### 
### Created by X-TOOL on Wed Jan  1 15:39:37 2020
### 

@<TRIPOS>MOLECULE
5uzj_ligand
   40    42     1     0     0
SMALL
GAST_HUCK


@<TRIPOS>ATOM
      1 C1         49.5570  109.3720   35.5590 C.3       1 8UV         0.0592
      2 C4         48.4220  106.1930   35.8980 C.ar      1 8UV        -0.0398
      3 C6         49.4560  104.4140   34.6360 C.ar      1 8UV        -0.0690
      4 C9         51.8450  104.6500   33.8170 C.3       1 8UV         0.0759
      5 N12        51.5790  104.0740   31.4360 N.am      1 8UV        -0.1920
      6 C13        51.3970  104.2250   30.0540 C.2       1 8UV         0.2089
      7 C19        50.6310  102.6950   25.5950 C.ar      1 8UV        -0.0464
      8 C20        50.5680  101.7260   24.6060 C.ar      1 8UV        -0.0091
      9 C22        51.1300  100.0720   26.1270 C.ar      1 8UV         0.1024
     10 O2         49.6720  108.2080   36.3990 O.3       1 8UV        -0.3229
     11 C3         49.5920  106.9680   35.8220 C.ar      1 8UV         0.0845
     12 C5         48.3450  104.9420   35.2800 C.ar      1 8UV        -0.0768
     13 C7         50.6350  105.1660   34.5680 C.ar      1 8UV        -0.0325
     14 C8         50.6990  106.4350   35.1530 C.ar      1 8UV        -0.0298
     15 C10        51.6940  105.0640   32.3660 C.2       1 8UV         0.2264
     16 O11        51.6520  106.2540   32.0760 O.2       1 8UV        -0.3770
     17 N14        51.2380  103.1940   29.2650 N.2       1 8UV        -0.3136
     18 C15        51.0330  103.4290   27.9770 C.2       1 8UV         0.0070
     19 C16        51.0250  104.7560   27.6840 C.2       1 8UV         0.0128
     20 S17        51.3190  105.7390   29.1280 S.3       1 8UV         0.0232
     21 C18        50.9150  102.3500   26.9360 C.ar      1 8UV        -0.0206
     22 N21        50.8140  100.4580   24.8910 N.ar      1 8UV        -0.2922
     23 C23        51.2030  100.9920   27.1940 C.ar      1 8UV        -0.0162
     24 N24        51.3620   98.7150   26.3310 N.pl3     1 8UV        -0.3236
     25 H1         49.6423  110.2790   36.1756 H         1 8UV         0.0577
     26 H2         48.5807  109.3636   35.0524 H         1 8UV         0.0577
     27 H3         50.3602  109.3627   34.8075 H         1 8UV         0.0577
     28 H4         47.5659  106.5716   36.4446 H         1 8UV         0.0488
     29 H5         49.4109  103.4273   34.1894 H         1 8UV         0.0468
     30 H6         51.8933  103.5536   33.8912 H         1 8UV         0.0665
     31 H7         52.7625  105.0868   34.2382 H         1 8UV         0.0665
     32 H8         51.6301  103.1355   31.7775 H         1 8UV         0.2413
     33 H9         50.4598  103.7336   25.3361 H         1 8UV         0.0573
     34 H10        50.3151  102.0096   23.5908 H         1 8UV         0.0765
     35 H11        47.4165  104.3830   35.3034 H         1 8UV         0.0573
     36 H12        51.6150  107.0109   35.0873 H         1 8UV         0.0482
     37 H13        50.8589  105.1634   26.6878 H         1 8UV         0.0697
     38 H14        51.4744  100.6634   28.1907 H         1 8UV         0.0571
     39 H15        51.6091   98.3702   27.2696 H         1 8UV         0.1761
     40 H16        51.2866   98.0555   25.5434 H         1 8UV         0.1761
@<TRIPOS>BOND
     1   10    1 1  
     2   11    2 ar 
     3   12    2 ar 
     4    3   12 ar 
     5   13    3 ar 
     6    4   13 1  
     7   15    4 1  
     8    6    5 1  
     9    5   15 am 
    10   17    6 2  
    11    6   20 1  
    12    7    8 ar 
    13   21    7 ar 
    14    8   22 ar 
    15   22    9 ar 
    16    9   23 ar 
    17    9   24 1  
    18   11   10 1  
    19   14   11 ar 
    20   13   14 ar 
    21   15   16 2  
    22   18   17 1  
    23   18   19 2  
    24   18   21 1  
    25   19   20 1  
    26   21   23 ar 
    27    1   25 1  
    28    1   26 1  
    29    1   27 1  
    30    2   28 1  
    31    3   29 1  
    32    4   30 1  
    33    4   31 1  
    34    5   32 1  
    35    7   33 1  
    36    8   34 1  
    37   12   35 1  
    38   14   36 1  
    39   19   37 1  
    40   23   38 1  
    41   24   39 1  
    42   24   40 1  
@<TRIPOS>SUBSTRUCTURE
     1 8UV         1

