### 
### Created by X-TOOL on Wed Jan  1 15:39:36 2020
### 

@<TRIPOS>MOLECULE
5uzk_ligand
   64    68     1     0     0
SMALL
GAST_HUCK


@<TRIPOS>ATOM
      1 C1         23.4620   14.6810   -0.0920 C.ar      1 504        -0.0768
      2 C2         23.9300   13.4850   -0.6210 C.ar      1 504        -0.0690
      3 C3         23.2790   12.2850   -0.3570 C.ar      1 504        -0.0325
      4 C4         22.1440   12.2990    0.4330 C.ar      1 504        -0.0298
      5 C5         21.6680   13.5050    0.9530 C.ar      1 504         0.0849
      6 C6         22.3090   14.7020    0.6670 C.ar      1 504        -0.0398
      7 O7         20.5260   13.5500    1.6770 O.3       1 504        -0.3197
      8 C8         20.2410   12.4510    2.5310 C.3       1 504         0.0703
      9 C9         18.9590   11.7500    2.0990 C.3       1 504        -0.0248
     10 C10        18.7160   10.5780    3.0610 C.3       1 504        -0.0474
     11 C11        19.8800    9.5670    3.0800 C.3       1 504        -0.0314
     12 C12        20.2100    9.1750    4.5370 C.3       1 504        -0.0096
     13 C13        21.2020    8.0040    4.5990 C.3       1 504        -0.0334
     14 N14        20.8330    6.8690    3.7280 N.4       1 504         0.2270
     15 C15        20.5350    7.2300    2.3220 C.3       1 504        -0.0334
     16 C16        19.5100    8.3570    2.2060 C.3       1 504        -0.0096
     17 C17        23.8160   10.9720   -0.8860 C.3       1 504         0.0760
     18 C18        25.1360   10.7220   -0.1960 C.2       1 504         0.2265
     19 O19        25.1560   10.6490    1.0160 O.2       1 504        -0.3770
     20 N20        26.2510   10.6340   -0.9550 N.am      1 504        -0.1924
     21 C21        27.5660   10.4870   -0.5050 C.2       1 504         0.2040
     22 N22        28.5950   10.5750   -1.3030 N.2       1 504        -0.3219
     23 C23        29.8010   10.5020   -0.7510 C.2       1 504        -0.0229
     24 C24        29.7580   10.3170    0.5820 C.2       1 504        -0.0109
     25 S25        28.0860   10.3390    1.1230 S.3       1 504         0.0049
     26 C26        31.0840   10.4960   -1.5100 C.2       1 504        -0.0139
     27 C27        32.3190   10.3490   -0.9750 C.2       1 504         0.0366
     28 N28        33.2710   10.3470   -1.9600 N.pl3     1 504        -0.2636
     29 C30        32.6860   10.4680   -3.1930 C.ar      1 504         0.1376
     30 C31        31.2760   10.5670   -2.9700 C.ar      1 504         0.0092
     31 C32        30.4140   10.7000   -4.0850 C.ar      1 504        -0.0542
     32 C33        31.0000   10.7270   -5.3590 C.ar      1 504        -0.0502
     33 C34        32.3960   10.6310   -5.4990 C.ar      1 504        -0.0053
     34 N35        33.1890   10.5120   -4.4400 N.ar      1 504        -0.2853
     35 H1         24.0042   15.6015   -0.2758 H         1 504         0.0573
     36 H2         24.8144   13.4871   -1.2479 H         1 504         0.0468
     37 H3         21.6232   11.3732    0.6489 H         1 504         0.0482
     38 H4         21.9100   15.6405    1.0344 H         1 504         0.0488
     39 H5         20.1228   12.8162    3.5618 H         1 504         0.0614
     40 H6         21.0753   11.7354    2.4889 H         1 504         0.0614
     41 H7         19.0667   11.3737    1.0710 H         1 504         0.0291
     42 H8         18.1144   12.4532    2.1455 H         1 504         0.0291
     43 H9         17.8003   10.0533    2.7509 H         1 504         0.0269
     44 H10        18.5828   10.9791    4.0765 H         1 504         0.0269
     45 H11        20.7708   10.0444    2.6457 H         1 504         0.0304
     46 H12        19.2803    8.8820    5.0467 H         1 504         0.0319
     47 H13        20.6509   10.0432    5.0487 H         1 504         0.0319
     48 H14        21.2505    7.6440    5.6373 H         1 504         0.0814
     49 H15        22.1924    8.3706    4.2913 H         1 504         0.0814
     50 H16        20.0144    6.4287    4.1180 H         1 504         0.2013
     51 H17        21.5989    6.2136    3.7270 H         1 504         0.2013
     52 H18        20.1408    6.3417    1.8068 H         1 504         0.0814
     53 H19        21.4680    7.5518    1.8362 H         1 504         0.0814
     54 H20        19.4562    8.6809    1.1561 H         1 504         0.0319
     55 H21        18.5277    7.9772    2.5234 H         1 504         0.0319
     56 H22        23.9652   11.0362   -1.9739 H         1 504         0.0665
     57 H23        23.1119   10.1577   -0.6598 H         1 504         0.0665
     58 H24        26.1210   10.6789   -1.9455 H         1 504         0.2414
     59 H25        30.6252   10.1756    1.2254 H         1 504         0.0496
     60 H26        32.5265   10.2467    0.0892 H         1 504         0.0972
     61 H27        34.2847   10.2659   -1.7966 H         1 504         0.2318
     62 H28        29.3402   10.7781   -3.9588 H         1 504         0.0674
     63 H29        30.3744   10.8222   -6.2391 H         1 504         0.0600
     64 H30        32.8335   10.6546   -6.4905 H         1 504         0.0752
@<TRIPOS>BOND
     1    1    2 ar 
     2    1    6 ar 
     3    2    3 ar 
     4    3    4 ar 
     5    3   17 1  
     6    4    5 ar 
     7    5    6 ar 
     8    5    7 1  
     9    7    8 1  
    10    8    9 1  
    11    9   10 1  
    12   10   11 1  
    13   11   12 1  
    14   11   16 1  
    15   12   13 1  
    16   13   14 1  
    17   14   15 1  
    18   15   16 1  
    19   17   18 1  
    20   18   19 2  
    21   18   20 am 
    22   20   21 1  
    23   21   22 2  
    24   21   25 1  
    25   22   23 1  
    26   23   24 2  
    27   23   26 1  
    28   24   25 1  
    29   26   27 2  
    30   26   30 1  
    31   27   28 1  
    32   28   29 1  
    33   29   30 ar 
    34   29   34 ar 
    35   30   31 ar 
    36   31   32 ar 
    37   32   33 ar 
    38   33   34 ar 
    39    1   35 1  
    40    2   36 1  
    41    4   37 1  
    42    6   38 1  
    43    8   39 1  
    44    8   40 1  
    45    9   41 1  
    46    9   42 1  
    47   10   43 1  
    48   10   44 1  
    49   11   45 1  
    50   12   46 1  
    51   12   47 1  
    52   13   48 1  
    53   13   49 1  
    54   14   50 1  
    55   14   51 1  
    56   15   52 1  
    57   15   53 1  
    58   16   54 1  
    59   16   55 1  
    60   17   56 1  
    61   17   57 1  
    62   20   58 1  
    63   24   59 1  
    64   27   60 1  
    65   28   61 1  
    66   31   62 1  
    67   32   63 1  
    68   33   64 1  
@<TRIPOS>SUBSTRUCTURE
     1 504         1

