### 
### Created by X-TOOL on Mon Sep 10 21:13:31 2018
### 

@<TRIPOS>MOLECULE
5v0n_ligand
   91    96     1     0     0
SMALL
GAST_HUCK


@<TRIPOS>ATOM
      1 C21        -3.6360  -15.3930   30.9500 C.ar      1 8W4        -0.0603
      2 C23        -2.2960  -13.3870   30.9280 C.ar      1 8W4        -0.0687
      3 C31        -2.7820  -21.9960   36.9530 C.3       1 8W4         0.0761
      4 C30        -2.6650  -22.4100   35.5100 C.3       1 8W4        -0.0105
      5 C28        -2.5970  -20.1980   34.6960 C.3       1 8W4         0.0957
      6 C10         0.1650  -14.8360   28.1770 C.3       1 8W4        -0.0397
      7 C11        -0.9830  -15.5660   27.5030 C.3       1 8W4        -0.0609
      8 C16        -0.5680  -17.9200   32.7790 C.2       1 8W4         0.1919
      9 C15         0.3190  -17.7340   31.7600 C.ar      1 8W4         0.0136
     10 C13         1.0760  -16.5220   29.7900 C.ar      1 8W4        -0.0296
     11 C12         2.3480  -17.1580   29.8940 C.ar      1 8W4         0.0889
     12 C20        -3.3980  -15.6360   32.3210 C.ar      1 8W4        -0.0408
     13 C19        -3.9810  -16.8340   33.0020 C.3       1 8W4         0.0067
     14 C18        -2.8900  -17.8340   33.5440 C.3       1 8W4         0.0842
     15 C24        -2.0370  -13.5950   32.3020 C.ar      1 8W4        -0.0686
     16 C26        -3.4760  -19.2350   33.9220 C.3       1 8W4         0.1392
     17 O01         3.3350  -19.8450   28.6700 O.2       1 8W4        -0.1492
     18 S02         4.4350  -19.4650   29.5380 S.o2      1 8W4         0.0690
     19 C03         5.2780  -18.1730   28.6580 C.3       1 8W4         0.1318
     20 C04         5.6680  -18.5700   27.2440 C.3       1 8W4        -0.0354
     21 C05         6.6130  -17.8570   29.2990 C.3       1 8W4        -0.0354
     22 C06         4.5210  -16.9200   28.4850 C.3       1 8W4         0.0744
     23 N07         3.1530  -16.6890   28.8000 N.pl3     1 8W4        -0.2751
     24 C08         2.3980  -15.7630   28.0840 C.2       1 8W4         0.0178
     25 C09         1.1470  -15.6300   28.6320 C.2       1 8W4        -0.0497
     26 C14         0.0960  -16.7940   30.7590 C.ar      1 8W4        -0.0731
     27 N17        -1.8670  -17.8750   32.5510 N.am      1 8W4        -0.2800
     28 C22        -3.1060  -14.2990   30.2790 C.ar      1 8W4        -0.0686
     29 C25        -2.6090  -14.7140   32.9710 C.ar      1 8W4        -0.0603
     30 O27        -4.6120  -19.0370   34.7140 O.3       1 8W4        -0.3812
     31 N29        -3.3350  -21.4240   34.6820 N.4       1 8W4         0.2495
     32 N32        -2.4520  -20.5570   37.1260 N.am      1 8W4        -0.2522
     33 C33        -2.2210  -20.0990   38.5500 C.3       1 8W4         0.0679
     34 C34        -3.5360  -20.0710   39.2550 C.ar      1 8W4        -0.0208
     35 C35        -4.4690  -19.0770   38.9600 C.ar      1 8W4        -0.0584
     36 C36        -5.6880  -19.0600   39.5930 C.ar      1 8W4        -0.0685
     37 C37        -6.0600  -20.0360   40.4630 C.ar      1 8W4        -0.0687
     38 C38        -5.1530  -21.0440   40.7320 C.ar      1 8W4        -0.0685
     39 C39        -3.9070  -21.0480   40.1370 C.ar      1 8W4        -0.0584
     40 C40        -2.3230  -19.6550   36.0960 C.2       1 8W4         0.2317
     41 O41        -2.0290  -18.4830   36.3060 O.2       1 8W4        -0.3904
     42 O42        -0.1030  -17.8840   33.9440 O.2       1 8W4        -0.3894
     43 C43         1.5880  -18.3290   31.8710 C.ar      1 8W4        -0.0429
     44 C44         2.6010  -18.0530   30.9630 C.ar      1 8W4         0.0901
     45 N45         3.7830  -18.7360   30.9520 N.am      1 8W4        -0.1820
     46 C46         4.5730  -19.0070   32.1760 C.3       1 8W4         0.0433
     47 O47         5.3140  -20.4720   29.8010 O.2       1 8W4        -0.1492
     48 H1         -4.2580  -16.0892   30.3991 H         1 8W4         0.0557
     49 H2         -1.8729  -12.5396   30.4007 H         1 8W4         0.0559
     50 H3         -2.0878  -22.5987   37.5570 H         1 8W4         0.0577
     51 H4         -3.8128  -22.1716   37.2946 H         1 8W4         0.0577
     52 H5         -3.1374  -23.3933   35.3685 H         1 8W4         0.0834
     53 H6         -1.6035  -22.4691   35.2277 H         1 8W4         0.0834
     54 H7         -1.6346  -20.3385   34.1822 H         1 8W4         0.1126
     55 H8         -0.2415  -14.2719   29.0293 H         1 8W4         0.0346
     56 H9          0.6005  -14.1364   27.4484 H         1 8W4         0.0346
     57 H10        -1.7338  -14.8363   27.1656 H         1 8W4         0.0244
     58 H11        -1.4445  -16.2630   28.2180 H         1 8W4         0.0244
     59 H12        -0.6025  -16.1275   26.6370 H         1 8W4         0.0244
     60 H13        -4.6186  -17.3689   32.2828 H         1 8W4         0.0449
     61 H14        -4.5923  -16.4910   33.8497 H         1 8W4         0.0449
     62 H15        -2.4583  -17.4118   34.4634 H         1 8W4         0.0607
     63 H16        -1.4036  -12.9033   32.8456 H         1 8W4         0.0599
     64 H17        -3.7627  -19.7295   32.9822 H         1 8W4         0.0702
     65 H18         6.1837  -17.7296   26.7563 H         1 8W4         0.0252
     66 H19         4.7638  -18.8267   26.6726 H         1 8W4         0.0252
     67 H20         6.3389  -19.4410   27.2795 H         1 8W4         0.0252
     68 H21         7.1106  -17.0553   28.7336 H         1 8W4         0.0252
     69 H22         7.2452  -18.7571   29.2923 H         1 8W4         0.0252
     70 H23         6.4530  -17.5289   30.3367 H         1 8W4         0.0252
     71 H24         4.6074  -16.6839   27.4141 H         1 8W4         0.0618
     72 H25         5.0754  -16.1724   29.0713 H         1 8W4         0.0618
     73 H26         2.7519  -15.2192   27.2094 H         1 8W4         0.0792
     74 H27        -0.8486  -16.2632   30.7263 H         1 8W4         0.0441
     75 H28        -2.1608  -17.8691   31.5952 H         1 8W4         0.1848
     76 H29        -3.3316  -14.1580   29.2281 H         1 8W4         0.0599
     77 H30        -2.4164  -14.8446   34.0297 H         1 8W4         0.0557
     78 H31        -5.2541  -18.5359   34.2251 H         1 8W4         0.2104
     79 H32        -4.2627  -21.2603   35.0407 H         1 8W4         0.2037
     80 H33        -3.3961  -21.7671   33.7362 H         1 8W4         0.2037
     81 H34        -1.7784  -19.0920   38.5492 H         1 8W4         0.0686
     82 H35        -1.5412  -20.7979   39.0594 H         1 8W4         0.0686
     83 H36        -4.2310  -18.3141   38.2276 H         1 8W4         0.0557
     84 H37        -6.3734  -18.2444   39.3929 H         1 8W4         0.0599
     85 H38        -7.0376  -20.0243   40.9313 H         1 8W4         0.0559
     86 H39        -5.4228  -21.8395   41.4172 H         1 8W4         0.0599
     87 H40        -3.2083  -21.8422   40.3740 H         1 8W4         0.0557
     88 H41         1.7798  -19.0193   32.6845 H         1 8W4         0.0397
     89 H42         4.0984  -18.5116   33.0359 H         1 8W4         0.0516
     90 H43         5.5940  -18.6187   32.0469 H         1 8W4         0.0516
     91 H44         4.6130  -20.0918   32.3540 H         1 8W4         0.0516
@<TRIPOS>BOND
     1   12    1 ar 
     2    1   28 ar 
     3   15    2 ar 
     4   28    2 ar 
     5    4    3 1  
     6    3   32 1  
     7   31    4 1  
     8   16    5 1  
     9    5   31 1  
    10    5   40 1  
    11    6    7 1  
    12   25    6 1  
    13    9    8 1  
    14    8   27 am 
    15    8   42 2  
    16   26    9 ar 
    17    9   43 ar 
    18   11   10 ar 
    19   10   25 1  
    20   10   26 ar 
    21   23   11 1  
    22   11   44 ar 
    23   13   12 1  
    24   12   29 ar 
    25   14   13 1  
    26   14   16 1  
    27   27   14 1  
    28   29   15 ar 
    29   16   30 1  
    30   18   17 2  
    31   19   18 1  
    32   18   45 am 
    33   18   47 2  
    34   19   20 1  
    35   19   21 1  
    36   22   19 1  
    37   22   23 1  
    38   23   24 1  
    39   24   25 2  
    40   32   33 1  
    41   32   40 am 
    42   33   34 1  
    43   34   35 ar 
    44   34   39 ar 
    45   35   36 ar 
    46   36   37 ar 
    47   37   38 ar 
    48   38   39 ar 
    49   40   41 2  
    50   43   44 ar 
    51   44   45 1  
    52   45   46 1  
    53    1   48 1  
    54    2   49 1  
    55    3   50 1  
    56    3   51 1  
    57    4   52 1  
    58    4   53 1  
    59    5   54 1  
    60    6   55 1  
    61    6   56 1  
    62    7   57 1  
    63    7   58 1  
    64    7   59 1  
    65   13   60 1  
    66   13   61 1  
    67   14   62 1  
    68   15   63 1  
    69   16   64 1  
    70   20   65 1  
    71   20   66 1  
    72   20   67 1  
    73   21   68 1  
    74   21   69 1  
    75   21   70 1  
    76   22   71 1  
    77   22   72 1  
    78   24   73 1  
    79   26   74 1  
    80   27   75 1  
    81   28   76 1  
    82   29   77 1  
    83   30   78 1  
    84   31   79 1  
    85   31   80 1  
    86   33   81 1  
    87   33   82 1  
    88   35   83 1  
    89   36   84 1  
    90   37   85 1  
    91   38   86 1  
    92   39   87 1  
    93   43   88 1  
    94   46   89 1  
    95   46   90 1  
    96   46   91 1  
@<TRIPOS>SUBSTRUCTURE
     1 8W4         1

