### 
### Created by X-TOOL on Mon Sep 10 21:13:31 2018
### 

@<TRIPOS>MOLECULE
5v13_ligand
   45    45     1     0     0
SMALL
GAST_HUCK


@<TRIPOS>ATOM
      1 C1        243.1900  -23.7020  355.0400 C.2       1 JH3         0.2153
      2 O2        243.1650  -22.5690  354.5830 O.2       1 JH3        -0.3872
      3 O1        243.9030  -23.9030  356.2780 O.3       1 JH3        -0.2900
      4 CM        244.2910  -22.7370  357.0100 C.3       1 JH3         0.0633
      5 C2        242.5120  -24.8660  354.4290 C.2       1 JH3        -0.0015
      6 C3        241.8200  -24.9150  353.2800 C.2       1 JH3        -0.0418
      7 C3'       241.6220  -23.7450  352.3560 C.3       1 JH3        -0.0186
      8 C4        241.2100  -26.2440  352.9180 C.3       1 JH3        -0.0040
      9 C5        239.7860  -26.0780  352.4040 C.3       1 JH3        -0.0321
     10 C6        239.0050  -27.3770  352.4930 C.2       1 JH3        -0.1061
     11 C7        238.8580  -28.2410  351.4750 C.2       1 JH3        -0.0838
     12 C7'       239.5290  -27.9980  350.1510 C.3       1 JH3        -0.0404
     13 C8        238.0450  -29.5150  351.6830 C.3       1 JH3        -0.0261
     14 C9        236.8550  -29.5680  350.7210 C.3       1 JH3        -0.0155
     15 CA        236.0020  -28.3130  350.8990 C.3       1 JH3         0.0895
     16 O3        234.7410  -28.3780  350.2200 O.3       1 JH3        -0.3652
     17 CB        234.6750  -28.4480  351.6490 C.3       1 JH3         0.0906
     18 CB'       234.1760  -27.1590  352.3110 C.3       1 JH3        -0.0336
     19 CC        234.0640  -29.7820  352.0680 C.3       1 JH3        -0.0336
     20 H1        244.8220  -23.0384  357.9250 H         1 JH3         0.0573
     21 H2        243.3952  -22.1584  357.2797 H         1 JH3         0.0573
     22 H3        244.9543  -22.1176  356.3884 H         1 JH3         0.0573
     23 H4        242.5833  -25.8018  354.9814 H         1 JH3         0.0294
     24 H5        241.0190  -24.0588  351.4911 H         1 JH3         0.0472
     25 H6        242.6007  -23.3825  352.0085 H         1 JH3         0.0472
     26 H7        241.1014  -22.9381  352.8925 H         1 JH3         0.0472
     27 H8        241.1960  -26.8868  353.8105 H         1 JH3         0.0522
     28 H9        241.8206  -26.7171  352.1349 H         1 JH3         0.0522
     29 H10       239.8211  -25.7538  351.3534 H         1 JH3         0.0371
     30 H11       239.2757  -25.3126  353.0071 H         1 JH3         0.0371
     31 H12       238.5337  -27.6241  353.4431 H         1 JH3         0.0244
     32 H13       239.2827  -28.8171  349.4593 H         1 JH3         0.0375
     33 H14       240.6187  -27.9546  350.2947 H         1 JH3         0.0375
     34 H15       239.1763  -27.0447  349.7306 H         1 JH3         0.0375
     35 H16       237.6727  -29.5395  352.7178 H         1 JH3         0.0411
     36 H17       238.6909  -30.3874  351.5049 H         1 JH3         0.0411
     37 H18       236.2471  -30.4587  350.9380 H         1 JH3         0.0312
     38 H19       237.2223  -29.6182  349.6854 H         1 JH3         0.0312
     39 H20       236.6121  -27.3996  350.9570 H         1 JH3         0.0626
     40 H21       233.2219  -27.3550  352.8222 H         1 JH3         0.0258
     41 H22       234.0283  -26.3857  351.5428 H         1 JH3         0.0258
     42 H23       234.9196  -26.8112  353.0432 H         1 JH3         0.0258
     43 H24       233.1125  -29.6017  352.5897 H         1 JH3         0.0258
     44 H25       234.7573  -30.3076  352.7411 H         1 JH3         0.0258
     45 H26       233.8816  -30.3983  351.1753 H         1 JH3         0.0258
@<TRIPOS>BOND
     1    1    2 2  
     2    1    3 1  
     3    1    5 1  
     4    3    4 1  
     5    5    6 2  
     6    6    7 1  
     7    6    8 1  
     8    8    9 1  
     9    9   10 1  
    10   10   11 2  
    11   11   12 1  
    12   11   13 1  
    13   13   14 1  
    14   14   15 1  
    15   15   16 1  
    16   15   17 1  
    17   16   17 1  
    18   17   18 1  
    19   17   19 1  
    20    4   20 1  
    21    4   21 1  
    22    4   22 1  
    23    5   23 1  
    24    7   24 1  
    25    7   25 1  
    26    7   26 1  
    27    8   27 1  
    28    8   28 1  
    29    9   29 1  
    30    9   30 1  
    31   10   31 1  
    32   12   32 1  
    33   12   33 1  
    34   12   34 1  
    35   13   35 1  
    36   13   36 1  
    37   14   37 1  
    38   14   38 1  
    39   15   39 1  
    40   18   40 1  
    41   18   41 1  
    42   18   42 1  
    43   19   43 1  
    44   19   44 1  
    45   19   45 1  
@<TRIPOS>SUBSTRUCTURE
     1 JH3         1

