### 
### Created by X-TOOL on Mon Sep 10 21:13:32 2018
### 

@<TRIPOS>MOLECULE
5v1b_ligand
   25    27     1     0     0
SMALL
GAST_HUCK


@<TRIPOS>ATOM
      1 N1         16.0560   26.1890   -7.7580 N.1       1 8UY        -0.3299
      2 C4         13.9860   26.6180   -4.9570 C.ar      1 8UY        -0.0256
      3 C5         13.4010   26.3580   -3.7310 C.ar      1 8UY        -0.0373
      4 C6         13.7720   25.1950   -3.0210 C.ar      1 8UY         0.0359
      5 C7         14.7320   24.3130   -3.5580 C.ar      1 8UY        -0.0373
      6 C8         15.3210   24.5810   -4.7730 C.ar      1 8UY        -0.0256
      7 C10        11.8100   24.8390   -1.4980 C.2       1 8UY        -0.0093
      8 C13        13.5660   24.2240    0.5810 C.2       1 8UY         0.1632
      9 C15        15.7450   24.1580    0.6680 C.2       1 8UY         0.0456
     10 C2         15.5710   25.9820   -6.7530 C.1       1 8UY         0.0991
     11 C3         14.9530   25.7340   -5.4870 C.ar      1 8UY         0.0954
     12 C9         13.1860   24.8630   -1.7030 C.2       1 8UY         0.1467
     13 C11        11.3150   24.5030   -0.2250 C.2       1 8UY        -0.0512
     14 C12        12.1670   24.1940    0.8050 C.2       1 8UY        -0.0063
     15 N14        14.6240   23.9860    1.3580 N.2       1 8UY        -0.3086
     16 N16        15.4490   24.5070   -0.5580 N.2       1 8UY        -0.1838
     17 N17        14.0460   24.5610   -0.6620 N.pl3     1 8UY        -0.1263
     18 H1         13.7016   27.5036   -5.5137 H         1 8UY         0.0717
     19 H2         12.6655   27.0397   -3.3195 H         1 8UY         0.0664
     20 H3         15.0078   23.4187   -3.0110 H         1 8UY         0.0664
     21 H4         16.0658   23.9052   -5.1774 H         1 8UY         0.0717
     22 H5         11.1261   25.0769   -2.3114 H         1 8UY         0.0618
     23 H6         16.7526   24.0289    1.0605 H         1 8UY         0.0865
     24 H7         10.2395   24.4879   -0.0545 H         1 8UY         0.0686
     25 H8         11.7723   23.9284    1.7846 H         1 8UY         0.0622
@<TRIPOS>BOND
     1   10    1 3  
     2    3    2 ar 
     3    2   11 ar 
     4    4    3 ar 
     5    4    5 ar 
     6   12    4 1  
     7    5    6 ar 
     8    6   11 ar 
     9   12    7 2  
    10    7   13 1  
    11    8   14 1  
    12    8   15 2  
    13   17    8 1  
    14   15    9 1  
    15    9   16 2  
    16   11   10 1  
    17   12   17 1  
    18   13   14 2  
    19   16   17 1  
    20    2   18 1  
    21    3   19 1  
    22    5   20 1  
    23    6   21 1  
    24    7   22 1  
    25    9   23 1  
    26   13   24 1  
    27   14   25 1  
@<TRIPOS>SUBSTRUCTURE
     1 8UY         1

