### 
### Created by X-TOOL on Mon Sep 10 21:13:34 2018
### 

@<TRIPOS>MOLECULE
5v35_ligand
   41    40     1     0     0
SMALL
GAST_HUCK


@<TRIPOS>ATOM
      1 C1          7.0960    8.6860    5.5100 C.3       1 FAR        -0.0595
      2 C2          5.6730    9.1360    5.6530 C.2       1 FAR        -0.1119
      3 C3          4.7450    8.3660    6.2860 C.2       1 FAR        -0.0831
      4 C5          3.3030    8.8680    6.4290 C.3       1 FAR        -0.0254
      5 C6          3.0450    8.9350    7.9660 C.3       1 FAR        -0.0388
      6 C7          2.0060    9.9860    8.3400 C.2       1 FAR        -0.1070
      7 C8          1.7090   10.2770    9.6370 C.2       1 FAR        -0.0827
      8 C9          0.6550   11.3090    9.9660 C.3       1 FAR        -0.0254
      9 C11         1.2150   12.2960   11.0320 C.3       1 FAR        -0.0388
     10 C12         0.2650   12.3670   12.2020 C.2       1 FAR        -0.1074
     11 C13        -0.4710   13.4490   12.5320 C.2       1 FAR        -0.0870
     12 C14        -0.5100   14.7300   11.7930 C.3       1 FAR        -0.0406
     13 C15        -1.3510   13.4160   13.6750 C.3       1 FAR        -0.0406
     14 C4          5.0400    7.0050    6.9100 C.3       1 FAR        -0.0403
     15 C10         2.3600    9.6080   10.8470 C.3       1 FAR        -0.0402
     16 H1          7.6707    9.4533    4.9706 H         1 FAR         0.0304
     17 H2          7.1271    7.7414    4.9472 H         1 FAR         0.0304
     18 H3          7.5343    8.5332    6.5073 H         1 FAR         0.0304
     19 H4          5.3750   10.0994    5.2418 H         1 FAR         0.0239
     20 H5          2.6017    8.1689    5.9501 H         1 FAR         0.0425
     21 H6          3.1945    9.8644    5.9757 H         1 FAR         0.0425
     22 H7          3.9908    9.1789    8.4719 H         1 FAR         0.0361
     23 H8          2.6898    7.9514    8.3070 H         1 FAR         0.0361
     24 H9          1.4857   10.5201    7.5464 H         1 FAR         0.0244
     25 H10        -0.2390   10.8069   10.3642 H         1 FAR         0.0425
     26 H11         0.3883   11.8649    9.0551 H         1 FAR         0.0425
     27 H12         1.3217   13.2956   10.5856 H         1 FAR         0.0361
     28 H13         2.1973   11.9424   11.3786 H         1 FAR         0.0361
     29 H14         0.1659   11.4800   12.8260 H         1 FAR         0.0244
     30 H15        -1.1982   15.4238   12.2980 H         1 FAR         0.0375
     31 H16        -0.8593   14.5501   10.7656 H         1 FAR         0.0375
     32 H17         0.4984   15.1686   11.7660 H         1 FAR         0.0375
     33 H18        -1.2692   12.4384   14.1726 H         1 FAR         0.0375
     34 H19        -2.3881   13.5732   13.3440 H         1 FAR         0.0375
     35 H20        -1.0665   14.2111   14.3799 H         1 FAR         0.0375
     36 H21         6.0972    6.7485    6.7473 H         1 FAR         0.0375
     37 H22         4.4012    6.2411    6.4426 H         1 FAR         0.0375
     38 H23         4.8343    7.0444    7.9899 H         1 FAR         0.0375
     39 H24         3.1080    8.8780   10.5040 H         1 FAR         0.0375
     40 H25         1.5898    9.0927   11.4396 H         1 FAR         0.0375
     41 H26         2.8509   10.3716   11.4682 H         1 FAR         0.0375
@<TRIPOS>BOND
     1    1    2 1  
     2    2    3 2  
     3    3    4 1  
     4    3   14 1  
     5    4    5 1  
     6    5    6 1  
     7    6    7 2  
     8    7    8 1  
     9    7   15 1  
    10    8    9 1  
    11    9   10 1  
    12   10   11 2  
    13   11   12 1  
    14   11   13 1  
    15    1   16 1  
    16    1   17 1  
    17    1   18 1  
    18    2   19 1  
    19    4   20 1  
    20    4   21 1  
    21    5   22 1  
    22    5   23 1  
    23    6   24 1  
    24    8   25 1  
    25    8   26 1  
    26    9   27 1  
    27    9   28 1  
    28   10   29 1  
    29   12   30 1  
    30   12   31 1  
    31   12   32 1  
    32   13   33 1  
    33   13   34 1  
    34   13   35 1  
    35   14   36 1  
    36   14   37 1  
    37   14   38 1  
    38   15   39 1  
    39   15   40 1  
    40   15   41 1  
@<TRIPOS>SUBSTRUCTURE
     1 FAR         1

