### 
### Created by X-TOOL on Mon Aug  2 16:11:50 2021
### 

@<TRIPOS>MOLECULE
5v37_ligand
   60    64     1     0     0
SMALL
GAST_HUCK


@<TRIPOS>ATOM
      1 N01        24.9840   -4.4020   14.5520 N.4       1 MOL         0.2207
      2 C04        23.8540   -3.8780   15.3170 C.3       1 MOL        -0.0243
      3 C06        23.6770   -2.3620   15.1260 C.3       1 MOL        -0.0080
      4 C09        22.4930   -1.8410   15.9450 C.3       1 MOL        -0.0239
      5 C12        21.1920   -2.5850   15.6400 C.3       1 MOL         0.0961
      6 C14        21.3790   -4.1070   15.7620 C.3       1 MOL        -0.0239
      7 C17        22.5620   -4.6040   14.9380 C.3       1 MOL        -0.0080
      8 S20        19.8270   -2.0910   16.6990 S.o2      1 MOL         0.0447
      9 O21        20.3170   -2.1990   18.0480 O.2       1 MOL        -0.1550
     10 O22        18.6500   -2.8380   16.3090 O.2       1 MOL        -0.1550
     11 N23        19.5560   -0.4900   16.3720 N.am      1 MOL        -0.2320
     12 C24        18.3210   -0.0480   15.7030 C.3       1 MOL         0.0430
     13 C26        17.4590    0.3490   16.9120 C.3       1 MOL        -0.0312
     14 C29        18.4880    0.7070   17.9990 C.3       1 MOL        -0.0312
     15 C32        19.8720    0.5580   17.3510 C.3       1 MOL         0.0430
     16 C34        20.3980    1.7670   16.5540 C.3       1 MOL        -0.0099
     17 C37        19.3950    2.2800   15.5040 C.3       1 MOL         0.0450
     18 C39        18.6930    1.1170   14.7710 C.3       1 MOL        -0.0099
     19 N42        18.4000    3.1810   16.0950 N.am      1 MOL        -0.2830
     20 C44        17.5210    4.0660   15.5050 C.2       1 MOL         0.2093
     21 O45        17.5470    4.1380   14.2810 O.2       1 MOL        -0.3855
     22 C46        16.5770    4.8530   16.2920 C.2       1 MOL         0.1130
     23 N47        15.9060    4.2730   17.3010 N.2       1 MOL        -0.1328
     24 O48        15.0800    5.2380   17.8520 O.3       1 MOL        -0.1601
     25 C49        15.2530    6.3790   17.1580 C.2       1 MOL         0.1452
     26 C50        16.1740    6.2050   16.1710 C.2       1 MOL        -0.0160
     27 C52        14.5240    7.6240   17.4770 C.3       1 MOL         0.0333
     28 C54        14.0350    8.5130   16.3670 C.3       1 MOL        -0.0333
     29 C57        15.1960    8.9410   17.2100 C.3       1 MOL        -0.0333
     30 H1         25.8244   -3.9117   14.8156 H         1 MOL         0.1997
     31 H2         24.8131   -4.2704   13.5674 H         1 MOL         0.1997
     32 H3         25.0938   -5.3851   14.7456 H         1 MOL         0.1997
     33 H4         24.0540   -4.0644   16.3825 H         1 MOL         0.0850
     34 H5         23.4981   -2.1519   14.0612 H         1 MOL         0.0320
     35 H6         24.5936   -1.8488   15.4521 H         1 MOL         0.0320
     36 H7         22.3500   -0.7743   15.7177 H         1 MOL         0.0286
     37 H8         22.7245   -1.9604   17.0137 H         1 MOL         0.0286
     38 H9         20.9158   -2.3524   14.6010 H         1 MOL         0.0554
     39 H10        20.4650   -4.6068   15.4087 H         1 MOL         0.0286
     40 H11        21.5505   -4.3604   16.8186 H         1 MOL         0.0286
     41 H12        22.6927   -5.6818   15.1145 H         1 MOL         0.0320
     42 H13        22.3535   -4.4296   13.8721 H         1 MOL         0.0320
     43 H14        17.8432   -0.8516   15.1234 H         1 MOL         0.0515
     44 H15        16.8259   -0.4910   17.2340 H         1 MOL         0.0284
     45 H16        16.8249    1.2155   16.6729 H         1 MOL         0.0284
     46 H17        18.3924    0.0216   18.8540 H         1 MOL         0.0284
     47 H18        18.3369    1.7418   18.3399 H         1 MOL         0.0284
     48 H19        20.6243    0.2481   18.0913 H         1 MOL         0.0515
     49 H20        21.3237    1.4709   16.0387 H         1 MOL         0.0306
     50 H21        20.6155    2.5832   17.2586 H         1 MOL         0.0306
     51 H22        19.9637    2.8530   14.7569 H         1 MOL         0.0557
     52 H23        17.7728    1.5010   14.3064 H         1 MOL         0.0306
     53 H24        19.3678    0.7380   13.9894 H         1 MOL         0.0306
     54 H25        18.3503    3.1485   17.0932 H         1 MOL         0.1848
     55 H26        16.5232    6.9416   15.4490 H         1 MOL         0.0312
     56 H27        13.9132    7.4797   18.3804 H         1 MOL         0.0520
     57 H28        13.0678    9.0284   16.4610 H         1 MOL         0.0296
     58 H29        14.1948    8.2217   15.3184 H         1 MOL         0.0296
     59 H30        16.2082    8.9642   16.7801 H         1 MOL         0.0296
     60 H31        15.0812    9.7710   17.9227 H         1 MOL         0.0296
@<TRIPOS>BOND
     1    1    2 1  
     2    2    3 1  
     3    2    7 1  
     4    3    4 1  
     5    4    5 1  
     6    5    6 1  
     7    5    8 1  
     8    6    7 1  
     9    8    9 2  
    10    8   10 2  
    11    8   11 am 
    12   11   12 1  
    13   11   15 1  
    14   12   13 1  
    15   12   18 1  
    16   13   14 1  
    17   14   15 1  
    18   15   16 1  
    19   16   17 1  
    20   17   18 1  
    21   17   19 1  
    22   19   20 am 
    23   20   21 2  
    24   20   22 1  
    25   22   23 2  
    26   22   26 1  
    27   23   24 1  
    28   24   25 1  
    29   25   26 2  
    30   25   27 1  
    31   27   28 1  
    32   27   29 1  
    33   28   29 1  
    34    1   30 1  
    35    1   31 1  
    36    1   32 1  
    37    2   33 1  
    38    3   34 1  
    39    3   35 1  
    40    4   36 1  
    41    4   37 1  
    42    5   38 1  
    43    6   39 1  
    44    6   40 1  
    45    7   41 1  
    46    7   42 1  
    47   12   43 1  
    48   13   44 1  
    49   13   45 1  
    50   14   46 1  
    51   14   47 1  
    52   15   48 1  
    53   16   49 1  
    54   16   50 1  
    55   17   51 1  
    56   18   52 1  
    57   18   53 1  
    58   19   54 1  
    59   26   55 1  
    60   27   56 1  
    61   28   57 1  
    62   28   58 1  
    63   29   59 1  
    64   29   60 1  
@<TRIPOS>SUBSTRUCTURE
     1 MOL         1

