### 
### Created by X-TOOL on Mon Aug  2 16:11:50 2021
### 

@<TRIPOS>MOLECULE
5v3h_ligand
   52    56     1     0     0
SMALL
GAST_HUCK


@<TRIPOS>ATOM
      1 C2        -47.3460  -16.6560   24.0580 C.ar      1 MOL         0.0330
      2 C3        -47.1650  -16.5780   22.6790 C.ar      1 MOL        -0.0545
      3 C4        -45.8840  -16.5970   22.1420 C.ar      1 MOL        -0.0569
      4 C5        -44.7690  -16.6840   22.9700 C.ar      1 MOL        -0.0109
      5 C6        -43.3880  -16.7140   22.3500 C.3       1 MOL         0.1018
      6 C8        -41.4360  -15.9530   23.7170 C.2       1 MOL         0.0533
      7 CL1       -48.9610  -16.6370   24.7200 Cl        1 MOL        -0.0771
      8 N7        -42.4220  -15.7180   22.8310 N.pl3     1 MOL        -0.2041
      9 C9        -40.7250  -14.8160   23.8780 C.2       1 MOL         0.0115
     10 C10       -39.5410  -14.6810   24.8120 C.3       1 MOL        -0.0116
     11 N11       -38.2530  -14.7670   24.1020 N.4       1 MOL         0.2457
     12 C12       -37.1010  -14.6070   25.0110 C.3       1 MOL        -0.0025
     13 C13       -36.3710  -13.8990   23.8730 C.3       1 MOL         0.1204
     14 C14       -37.8040  -13.5460   23.4160 C.3       1 MOL        -0.0025
     15 N15       -35.5940  -12.7070   24.2490 N.am      1 MOL        -0.2762
     16 C16       -34.2710  -12.5650   23.9770 C.2       1 MOL         0.2013
     17 O17       -33.6300  -13.4260   23.4000 O.2       1 MOL        -0.3961
     18 C18       -33.5730  -11.3230   24.3540 C.2       1 MOL         0.1345
     19 C19       -32.4320  -10.9100   23.7550 C.2       1 MOL         0.0996
     20 N20       -32.0790   -9.7510   24.3150 N.pl3     1 MOL        -0.1605
     21 N21       -33.0470   -9.4490   25.2820 N.2       1 MOL        -0.0880
     22 N22       -33.9180  -10.4030   25.2760 N.2       1 MOL        -0.2065
     23 C23       -30.9030   -8.9860   23.9240 C.3       1 MOL         0.0917
     24 C24       -30.9610   -7.4780   24.1830 C.3       1 MOL        -0.0158
     25 C25       -30.0400   -8.3730   25.0160 C.3       1 MOL        -0.0158
     26 C26       -41.3010  -13.8490   23.0450 C.2       1 MOL         0.0019
     27 N27       -42.3080  -14.3880   22.4150 N.2       1 MOL        -0.2208
     28 C28       -44.9480  -16.7680   24.3420 C.ar      1 MOL        -0.0569
     29 C29       -46.2290  -16.7500   24.8840 C.ar      1 MOL        -0.0545
     30 H1        -48.0253  -16.5023   22.0238 H         1 MOL         0.0606
     31 H2        -45.7517  -16.5435   21.0674 H         1 MOL         0.0558
     32 H3        -43.5068  -16.5654   21.2666 H         1 MOL         0.0801
     33 H4        -42.9605  -17.7097   22.5389 H         1 MOL         0.0801
     34 H5        -41.2441  -16.9001   24.2192 H         1 MOL         0.0876
     35 H6        -39.5869  -15.4868   25.5593 H         1 MOL         0.0902
     36 H7        -39.6004  -13.7067   25.3192 H         1 MOL         0.0902
     37 H8        -38.2363  -15.5954   23.5279 H         1 MOL         0.2043
     38 H9        -36.6383  -15.5516   25.3330 H         1 MOL         0.0839
     39 H10       -37.2970  -13.9762   25.8905 H         1 MOL         0.0839
     40 H11       -35.7830  -14.5452   23.2047 H         1 MOL         0.0662
     41 H12       -38.2023  -12.6107   23.8361 H         1 MOL         0.0839
     42 H13       -37.9524  -13.5509   22.3261 H         1 MOL         0.0839
     43 H14       -36.0632  -11.9653   24.7283 H         1 MOL         0.1844
     44 H15       -31.8985  -11.4292   22.9601 H         1 MOL         0.1132
     45 H16       -30.4496   -9.3974   23.0101 H         1 MOL         0.0693
     46 H17       -31.8563   -7.0313   24.6400 H         1 MOL         0.0299
     47 H18       -30.5336   -6.7763   23.4516 H         1 MOL         0.0299
     48 H19       -28.9495   -8.3121   24.8851 H         1 MOL         0.0299
     49 H20       -30.2722   -8.5671   26.0735 H         1 MOL         0.0299
     50 H21       -40.9643  -12.8186   22.9405 H         1 MOL         0.0628
     51 H22       -44.0865  -16.8480   24.9950 H         1 MOL         0.0558
     52 H23       -46.3587  -16.8097   25.9586 H         1 MOL         0.0606
@<TRIPOS>BOND
     1    1    2 ar 
     2    1    7 1  
     3    1   29 ar 
     4    2    3 ar 
     5    3    4 ar 
     6    4    5 1  
     7    4   28 ar 
     8    5    8 1  
     9    8    6 1  
    10    6    9 2  
    11    8   27 1  
    12    9   10 1  
    13    9   26 1  
    14   10   11 1  
    15   11   12 1  
    16   11   14 1  
    17   12   13 1  
    18   13   14 1  
    19   13   15 1  
    20   15   16 am 
    21   16   17 2  
    22   16   18 1  
    23   18   19 2  
    24   18   22 1  
    25   19   20 1  
    26   20   21 1  
    27   20   23 1  
    28   21   22 2  
    29   23   24 1  
    30   23   25 1  
    31   24   25 1  
    32   26   27 2  
    33   28   29 ar 
    34    2   30 1  
    35    3   31 1  
    36    5   32 1  
    37    5   33 1  
    38    6   34 1  
    39   10   35 1  
    40   10   36 1  
    41   11   37 1  
    42   12   38 1  
    43   12   39 1  
    44   13   40 1  
    45   14   41 1  
    46   14   42 1  
    47   15   43 1  
    48   19   44 1  
    49   23   45 1  
    50   24   46 1  
    51   24   47 1  
    52   25   48 1  
    53   25   49 1  
    54   26   50 1  
    55   28   51 1  
    56   29   52 1  
@<TRIPOS>SUBSTRUCTURE
     1 MOL         1

