### 
### Created by X-TOOL on Mon Sep 10 21:13:33 2018
### 

@<TRIPOS>MOLECULE
5v3o_ligand
   61    65     1     0     0
SMALL
GAST_HUCK


@<TRIPOS>ATOM
      1 C1         46.8520   57.2640  -37.7450 C.ar      1 8W7        -0.0720
      2 C2         48.1840   56.9090  -37.9290 C.ar      1 8W7        -0.0349
      3 C3         48.5360   55.5840  -38.1810 C.ar      1 8W7         0.1031
      4 C4         45.8500   56.3010  -37.8110 C.ar      1 8W7        -0.0596
      5 C5         46.1890   54.9740  -38.0670 C.ar      1 8W7         0.0454
      6 C6         47.5240   54.6390  -38.2460 C.ar      1 8W7         0.0295
      7 N1         46.2150   52.7450  -38.4290 N.am      1 8W7        -0.2410
      8 N2         46.7510   49.1230  -37.8760 N.am      1 8W7        -0.1978
      9 N3         52.1100   56.3750  -31.6400 N.4       1 8W7         0.2495
     10 O1         44.2150   53.7520  -38.0730 O.2       1 8W7        -0.3882
     11 C7         47.6240   53.1430  -38.5000 C.3       1 8W7         0.0716
     12 C8         45.4390   53.8030  -38.1880 C.2       1 8W7         0.2040
     13 C9         45.7460   51.3610  -38.5890 C.3       1 8W7         0.1421
     14 C10        46.0370   50.8760  -40.0060 C.3       1 8W7         0.0057
     15 C11        45.6640   49.4020  -40.1560 C.3       1 8W7         0.0467
     16 C12        46.3820   48.5600  -39.1030 C.2       1 8W7         0.2047
     17 C13        46.4700   50.4640  -37.5790 C.2       1 8W7         0.2305
     18 C14        50.8150   56.1110  -37.8930 C.3       1 8W7         0.0997
     19 C15        51.3390   56.0060  -36.6060 C.ar      1 8W7        -0.0198
     20 O2         46.8050   50.9210  -36.4880 O.2       1 8W7        -0.3837
     21 C22        52.2180   55.7380  -30.3160 C.3       1 8W7        -0.0065
     22 C23        51.3040   56.4720  -29.3280 C.3       1 8W7         0.0878
     23 O5         51.6190   57.8810  -29.2650 O.3       1 8W7        -0.3693
     24 C24        51.5230   58.4920  -30.5650 C.3       1 8W7         0.0878
     25 C25        52.5040   57.7870  -31.5040 C.3       1 8W7        -0.0065
     26 C21        52.9790   55.6880  -32.6150 C.3       1 8W7        -0.0009
     27 C20        52.3960   55.7950  -34.0320 C.ar      1 8W7        -0.0053
     28 C19        52.2550   54.6600  -34.8240 C.ar      1 8W7        -0.0617
     29 C17        51.7280   54.7630  -36.1070 C.ar      1 8W7        -0.0641
     30 C18        52.0090   57.0320  -34.5390 C.ar      1 8W7        -0.0617
     31 C16        51.4820   57.1460  -35.8200 C.ar      1 8W7        -0.0641
     32 O4         49.8290   55.1820  -38.3710 O.3       1 8W7        -0.3092
     33 O3         46.6390   47.3810  -39.3330 O.2       1 8W7        -0.3862
     34 H1         46.5927   58.2981  -37.5488 H         1 8W7         0.0543
     35 H2         48.9550   57.6691  -37.8760 H         1 8W7         0.0556
     36 H3         44.8131   56.5811  -37.6643 H         1 8W7         0.0556
     37 H4         47.2235   48.5587  -37.1990 H         1 8W7         0.2257
     38 H5         51.1554   56.3233  -31.9594 H         1 8W7         0.2049
     39 H6         48.2234   52.6422  -37.7255 H         1 8W7         0.0678
     40 H7         48.0531   52.9304  -39.4903 H         1 8W7         0.0678
     41 H8         44.6623   51.3188  -38.4053 H         1 8W7         0.0810
     42 H9         47.1091   51.0012  -40.2181 H         1 8W7         0.0337
     43 H10        45.4499   51.4721  -40.7201 H         1 8W7         0.0337
     44 H11        45.9558   49.0547  -41.1581 H         1 8W7         0.0510
     45 H12        44.5770   49.2888  -40.0307 H         1 8W7         0.0510
     46 H13        51.6682   56.0437  -38.5840 H         1 8W7         0.0762
     47 H14        50.3626   57.1110  -37.9653 H         1 8W7         0.0762
     48 H15        53.2590   55.7931  -29.9649 H         1 8W7         0.0837
     49 H16        51.9107   54.6843  -30.3884 H         1 8W7         0.0837
     50 H17        51.4312   56.0318  -28.3280 H         1 8W7         0.0613
     51 H18        50.2592   56.3530  -29.6508 H         1 8W7         0.0613
     52 H19        51.7791   59.5594  -30.4936 H         1 8W7         0.0613
     53 H20        50.4983   58.3858  -30.9506 H         1 8W7         0.0613
     54 H21        52.4825   58.2722  -32.4910 H         1 8W7         0.0837
     55 H22        53.5204   57.8474  -31.0877 H         1 8W7         0.0837
     56 H23        53.0633   54.6267  -32.3385 H         1 8W7         0.0967
     57 H24        53.9765   56.1515  -32.5991 H         1 8W7         0.0967
     58 H25        52.5568   53.6923  -34.4400 H         1 8W7         0.0542
     59 H26        51.6194   53.8757  -36.7202 H         1 8W7         0.0541
     60 H27        52.1202   57.9191  -33.9261 H         1 8W7         0.0542
     61 H28        51.1846   58.1151  -36.2041 H         1 8W7         0.0541
@<TRIPOS>BOND
     1    2    1 ar 
     2    1    4 ar 
     3    3    2 ar 
     4    3    6 ar 
     5   32    3 1  
     6    5    4 ar 
     7    6    5 ar 
     8    5   12 1  
     9    6   11 1  
    10   11    7 1  
    11    7   12 am 
    12    7   13 1  
    13    8   16 am 
    14   17    8 am 
    15    9   21 1  
    16    9   25 1  
    17   26    9 1  
    18   12   10 2  
    19   13   14 1  
    20   13   17 1  
    21   14   15 1  
    22   15   16 1  
    23   16   33 2  
    24   17   20 2  
    25   19   18 1  
    26   18   32 1  
    27   29   19 ar 
    28   19   31 ar 
    29   21   22 1  
    30   22   23 1  
    31   24   23 1  
    32   25   24 1  
    33   27   26 1  
    34   28   27 ar 
    35   27   30 ar 
    36   28   29 ar 
    37   30   31 ar 
    38    1   34 1  
    39    2   35 1  
    40    4   36 1  
    41    8   37 1  
    42    9   38 1  
    43   11   39 1  
    44   11   40 1  
    45   13   41 1  
    46   14   42 1  
    47   14   43 1  
    48   15   44 1  
    49   15   45 1  
    50   18   46 1  
    51   18   47 1  
    52   21   48 1  
    53   21   49 1  
    54   22   50 1  
    55   22   51 1  
    56   24   52 1  
    57   24   53 1  
    58   25   54 1  
    59   25   55 1  
    60   26   56 1  
    61   26   57 1  
    62   28   58 1  
    63   29   59 1  
    64   30   60 1  
    65   31   61 1  
@<TRIPOS>SUBSTRUCTURE
     1 8W7         1

