### 
### Created by X-TOOL on Mon Sep 10 21:13:33 2018
### 

@<TRIPOS>MOLECULE
5v3x_ligand
   57    60     1     0     0
SMALL
GAST_HUCK


@<TRIPOS>ATOM
      1 O1          6.0010   27.2720    6.5550 O.2       1 I28        -0.3732
      2 C2          5.4310   26.2070    6.4820 C.2       1 I28         0.2415
      3 C3          4.3030   25.9100    7.3740 C.2       1 I28         0.0813
      4 C4          3.9760   24.6550    7.8730 C.2       1 I28         0.1469
      5 C5          4.6330   23.3490    7.6620 C.ar      1 I28         0.0229
      6 C6          5.9900   23.2080    7.3260 C.ar      1 I28        -0.0489
      7 C7          6.5380   21.9500    7.1390 C.ar      1 I28        -0.0599
      8 C8          5.7390   20.8300    7.3050 C.ar      1 I28        -0.0607
      9 C9          4.4040   20.9470    7.6590 C.ar      1 I28        -0.0599
     10 C10         3.8440   22.2010    7.8340 C.ar      1 I28        -0.0489
     11 O11         2.8880   24.7600    8.6340 O.3       1 I28        -0.2511
     12 C12         2.4290   26.0170    8.6920 C.ar      1 I28         0.1147
     13 C13         1.3430   26.5270    9.3790 C.ar      1 I28        -0.0426
     14 C14         1.0520   27.8670    9.3090 C.ar      1 I28        -0.0490
     15 C15         1.8600   28.6880    8.5470 C.ar      1 I28         0.0799
     16 O16         1.5630   30.0050    8.4650 O.3       1 I28        -0.3448
     17 C17         2.9620   28.2060    7.8580 C.ar      1 I28         0.0249
     18 C18         3.7500   29.2340    7.0840 C.3       1 I28        -0.0036
     19 N19         4.8700   29.7490    7.9090 N.4       1 I28         0.2452
     20 C20         5.8070   30.5200    7.0720 C.3       1 I28        -0.0305
     21 C21         6.9930   31.0770    7.8620 C.3       1 I28        -0.0097
     22 C22         6.4440   31.9810    8.9580 C.3       1 I28        -0.0343
     23 C23         7.6120   32.6120    9.7410 C.3       1 I28        -0.0621
     24 C24         5.6080   31.1290    9.9210 C.3       1 I28        -0.0097
     25 C25         4.4740   30.3900    9.1860 C.3       1 I28        -0.0305
     26 C26         3.2670   26.8390    7.9180 C.ar      1 I28         0.0125
     27 O27         5.6650   25.4120    5.4100 O.3       1 I28        -0.2827
     28 C28         6.6000   25.8850    4.4020 C.3       1 I28         0.0721
     29 C29         8.0270   25.4930    4.7800 C.3       1 I28        -0.0373
     30 H1          6.6115   24.0889    7.2125 H         1 I28         0.0637
     31 H2          7.5814   21.8425    6.8655 H         1 I28         0.0620
     32 H3          6.1657   19.8448    7.1553 H         1 I28         0.0626
     33 H4          3.7994   20.0581    7.7986 H         1 I28         0.0620
     34 H5          2.7983   22.2960    8.1033 H         1 I28         0.0637
     35 H6          0.7205   25.8682    9.9736 H         1 I28         0.0480
     36 H7          0.2014   28.2742    9.8435 H         1 I28         0.0478
     37 H8          1.5842   30.3880    9.3342 H         1 I28         0.2418
     38 H9          3.0877   30.0682    6.8093 H         1 I28         0.0947
     39 H10         4.1539   28.7708    6.1717 H         1 I28         0.0947
     40 H11         5.3851   28.9309    8.1942 H         1 I28         0.2045
     41 H12         5.2618   31.3608    6.6184 H         1 I28         0.0815
     42 H13         6.1918   29.8620    6.2790 H         1 I28         0.0815
     43 H14         7.6481   31.6555    7.1940 H         1 I28         0.0319
     44 H15         7.5641   30.2508    8.3105 H         1 I28         0.0319
     45 H16         5.8206   32.7714    8.5146 H         1 I28         0.0302
     46 H17         7.2132   33.2643   10.5318 H         1 I28         0.0232
     47 H18         8.2348   33.2055    9.0555 H         1 I28         0.0232
     48 H19         8.2216   31.8166   10.1945 H         1 I28         0.0232
     49 H20         5.1688   31.7841   10.6878 H         1 I28         0.0319
     50 H21         6.2631   30.3883   10.4029 H         1 I28         0.0319
     51 H22         4.0865   29.6076    9.8551 H         1 I28         0.0815
     52 H23         3.6765   31.1164    8.9706 H         1 I28         0.0815
     53 H24         6.5316   26.9804    4.3286 H         1 I28         0.0608
     54 H25         6.3451   25.4358    3.4308 H         1 I28         0.0608
     55 H26         8.7233   25.8565    4.0099 H         1 I28         0.0255
     56 H27         8.0995   24.3978    4.8522 H         1 I28         0.0255
     57 H28         8.2860   25.9424    5.7500 H         1 I28         0.0255
@<TRIPOS>BOND
     1    1    2 2  
     2    2    3 1  
     3    2   27 1  
     4    3    4 2  
     5    3   26 1  
     6    4    5 1  
     7    4   11 1  
     8    5    6 ar 
     9    5   10 ar 
    10    6    7 ar 
    11    7    8 ar 
    12    8    9 ar 
    13    9   10 ar 
    14   11   12 1  
    15   12   13 ar 
    16   12   26 ar 
    17   13   14 ar 
    18   14   15 ar 
    19   15   16 1  
    20   15   17 ar 
    21   17   18 1  
    22   17   26 ar 
    23   18   19 1  
    24   19   20 1  
    25   19   25 1  
    26   20   21 1  
    27   21   22 1  
    28   22   23 1  
    29   22   24 1  
    30   24   25 1  
    31   27   28 1  
    32   28   29 1  
    33    6   30 1  
    34    7   31 1  
    35    8   32 1  
    36    9   33 1  
    37   10   34 1  
    38   13   35 1  
    39   14   36 1  
    40   16   37 1  
    41   18   38 1  
    42   18   39 1  
    43   19   40 1  
    44   20   41 1  
    45   20   42 1  
    46   21   43 1  
    47   21   44 1  
    48   22   45 1  
    49   23   46 1  
    50   23   47 1  
    51   23   48 1  
    52   24   49 1  
    53   24   50 1  
    54   25   51 1  
    55   25   52 1  
    56   28   53 1  
    57   28   54 1  
    58   29   55 1  
    59   29   56 1  
    60   29   57 1  
@<TRIPOS>SUBSTRUCTURE
     1 I28         1

