### 
### Created by X-TOOL on Mon Sep 10 21:13:32 2018
### 

@<TRIPOS>MOLECULE
5v3y_ligand
   53    56     1     0     0
SMALL
GAST_HUCK


@<TRIPOS>ATOM
      1 C2          2.1320   28.5690    8.2460 C.ar      1 5V8         0.0789
      2 C3          1.3190   27.7260    8.9920 C.ar      1 5V8        -0.0500
      3 C4          1.6010   26.3780    9.0730 C.ar      1 5V8        -0.0438
      4 C5          2.6960   25.8460    8.4110 C.ar      1 5V8         0.1127
      5 C10         4.8290   20.7960    7.2780 C.ar      1 5V8        -0.0291
      6 C11         6.2020   20.7290    7.0390 C.ar      1 5V8         0.0918
      7 C15         4.5870   25.7740    7.1130 C.2       1 5V8         0.0645
      8 C16         5.7060   26.1480    6.2300 C.2       1 5V8         0.1805
      9 C18         6.9690   25.7640    4.1860 C.3       1 5V8         0.0182
     10 C20         3.5370   26.6850    7.6540 C.ar      1 5V8         0.0078
     11 C24         6.1900   30.2400    6.8230 C.3       1 5V8        -0.0308
     12 C25         7.3880   30.7100    7.6520 C.3       1 5V8        -0.0123
     13 C26         6.8680   31.6760    8.7250 C.3       1 5V8        -0.0434
     14 O1          1.8300   29.9030    8.1850 O.3       1 5V8        -0.3451
     15 C7          4.2730   24.4990    7.5810 C.2       1 5V8         0.1386
     16 C8          4.9640   23.2060    7.3730 C.ar      1 5V8         0.0135
     17 C9          4.2120   22.0200    7.4490 C.ar      1 5V8        -0.0556
     18 C13         6.9580   21.8950    6.9720 C.ar      1 5V8        -0.0291
     19 C14         6.3440   23.1210    7.1420 C.ar      1 5V8        -0.0556
     20 C21         3.2440   28.0640    7.5780 C.ar      1 5V8         0.0233
     21 C22         4.1070   29.0360    6.8090 C.3       1 5V8        -0.0040
     22 O6          3.1700   24.5850    8.3330 O.3       1 5V8        -0.2537
     23 O12         6.8030   19.5220    6.8750 O.3       1 5V8        -0.3303
     24 N17         5.8690   25.4400    5.0990 N.am      1 5V8        -0.2948
     25 O19         6.4450   27.0900    6.4770 O.2       1 5V8        -0.4020
     26 N23         5.2590   29.4620    7.6630 N.4       1 5V8         0.2450
     27 C27         5.9730   30.8710    9.6690 C.3       1 5V8        -0.0123
     28 C28         4.8290   30.2450    8.8470 C.3       1 5V8        -0.0308
     29 H1          0.4584   28.1292    9.5134 H         1 5V8         0.0470
     30 H2          0.9605   25.7294    9.6596 H         1 5V8         0.0477
     31 H3          4.2445   19.8845    7.3297 H         1 5V8         0.0555
     32 H4          6.9415   25.0830    3.3226 H         1 5V8         0.0482
     33 H5          7.9281   25.6501    4.7124 H         1 5V8         0.0482
     34 H6          6.8629   26.8020    3.8378 H         1 5V8         0.0482
     35 H7          6.5465   29.6085    5.9959 H         1 5V8         0.0814
     36 H8          5.6648   31.1163    6.4152 H         1 5V8         0.0814
     37 H9          8.1120   31.2256    7.0039 H         1 5V8         0.0317
     38 H10         7.8737   29.8466    8.1300 H         1 5V8         0.0317
     39 H11         6.2882   32.4838    8.2547 H         1 5V8         0.0269
     40 H12         7.7118   32.1074    9.2835 H         1 5V8         0.0269
     41 H13         1.8460   30.2706    9.0609 H         1 5V8         0.2418
     42 H14         3.1463   22.0665    7.6421 H         1 5V8         0.0617
     43 H15         8.0248   21.8418    6.7871 H         1 5V8         0.0555
     44 H16         6.9363   24.0277    7.0962 H         1 5V8         0.0617
     45 H17         3.5098   29.9174    6.5323 H         1 5V8         0.0945
     46 H18         4.4858   28.5492    5.8983 H         1 5V8         0.0945
     47 H19         6.1530   18.8332    6.9489 H         1 5V8         0.2500
     48 H20         5.2407   24.6933    4.8808 H         1 5V8         0.1828
     49 H21         5.7336   28.6364    7.9936 H         1 5V8         0.2045
     50 H22         5.5551   31.5352   10.4398 H         1 5V8         0.0317
     51 H23         6.5618   30.0760   10.1500 H         1 5V8         0.0317
     52 H24         4.2602   29.5760    9.5095 H         1 5V8         0.0814
     53 H25         4.1756   31.0583    8.4985 H         1 5V8         0.0814
@<TRIPOS>BOND
     1    1    2 ar 
     2    1   14 1  
     3   20    1 ar 
     4    2    3 ar 
     5    4    3 ar 
     6   10    4 ar 
     7    4   22 1  
     8    5    6 ar 
     9   17    5 ar 
    10   18    6 ar 
    11    6   23 1  
    12    7    8 1  
    13   10    7 1  
    14    7   15 2  
    15    8   24 am 
    16    8   25 2  
    17   24    9 1  
    18   20   10 ar 
    19   11   12 1  
    20   26   11 1  
    21   12   13 1  
    22   13   27 1  
    23   15   16 1  
    24   15   22 1  
    25   16   17 ar 
    26   16   19 ar 
    27   19   18 ar 
    28   21   20 1  
    29   21   26 1  
    30   26   28 1  
    31   27   28 1  
    32    2   29 1  
    33    3   30 1  
    34    5   31 1  
    35    9   32 1  
    36    9   33 1  
    37    9   34 1  
    38   11   35 1  
    39   11   36 1  
    40   12   37 1  
    41   12   38 1  
    42   13   39 1  
    43   13   40 1  
    44   14   41 1  
    45   17   42 1  
    46   18   43 1  
    47   19   44 1  
    48   21   45 1  
    49   21   46 1  
    50   23   47 1  
    51   24   48 1  
    52   26   49 1  
    53   27   50 1  
    54   27   51 1  
    55   28   52 1  
    56   28   53 1  
@<TRIPOS>SUBSTRUCTURE
     1 5V8         1

