### 
### Created by X-TOOL on Mon Sep 10 21:13:32 2018
### 

@<TRIPOS>MOLECULE
5v40_ligand
   47    49     1     0     0
SMALL
GAST_HUCK


@<TRIPOS>ATOM
      1 C1          8.0010   25.2860    4.1540 C.3       1 JS1        -0.0373
      2 C2          7.5010   26.5200    4.9090 C.3       1 JS1         0.0721
      3 O3          6.2330   26.1770    5.5410 O.3       1 JS1        -0.2827
      4 C4          5.8040   26.9890    6.5350 C.2       1 JS1         0.2415
      5 O5          6.1980   28.1390    6.4900 O.2       1 JS1        -0.3732
      6 C6          4.5250   26.6720    7.1980 C.2       1 JS1         0.0813
      7 C7          4.0130   25.3910    7.4310 C.2       1 JS1         0.1469
      8 O8          2.8410   25.4940    8.0410 O.3       1 JS1        -0.2511
      9 C9          2.4860   26.7650    8.2430 C.ar      1 JS1         0.1147
     10 C10         3.4930   27.6120    7.7350 C.ar      1 JS1         0.0125
     11 C11         3.3050   29.0040    7.8680 C.ar      1 JS1         0.0249
     12 C12         2.1410   29.4630    8.4650 C.ar      1 JS1         0.0799
     13 C13         1.1730   28.6100    8.9570 C.ar      1 JS1        -0.0490
     14 C14         1.3490   27.2650    8.8500 C.ar      1 JS1        -0.0426
     15 O15         1.9360   30.7860    8.6010 O.3       1 JS1        -0.3448
     16 C16         4.2730   30.0650    7.3880 C.3       1 JS1        -0.0041
     17 N17         5.3620   30.2990    8.3730 N.4       1 JS1         0.2409
     18 C18         4.9320   30.8420    9.6740 C.3       1 JS1        -0.0422
     19 C19         6.4730   31.1000    7.8090 C.3       1 JS1        -0.0422
     20 C20         4.5760   24.0510    7.1510 C.ar      1 JS1         0.0229
     21 C21         5.9500   23.8190    7.0700 C.ar      1 JS1        -0.0489
     22 C22         6.4390   22.5470    6.8340 C.ar      1 JS1        -0.0599
     23 C23         5.5600   21.4860    6.7200 C.ar      1 JS1        -0.0607
     24 C24         4.1980   21.6970    6.8320 C.ar      1 JS1        -0.0599
     25 C25         3.6990   22.9710    7.0560 C.ar      1 JS1        -0.0489
     26 H1          8.9593   25.5179    3.6663 H         1 JS1         0.0255
     27 H2          7.2620   24.9980    3.3918 H         1 JS1         0.0255
     28 H3          8.1412   24.4552    4.8612 H         1 JS1         0.0255
     29 H4          7.3547   27.3538    4.2066 H         1 JS1         0.0608
     30 H5          8.2339   26.8110    5.6760 H         1 JS1         0.0608
     31 H6          0.2800   29.0087    9.4247 H         1 JS1         0.0478
     32 H7          0.5989   26.5866    9.2401 H         1 JS1         0.0480
     33 H8          1.8591   31.0003    9.5234 H         1 JS1         0.2418
     34 H9          3.7238   31.0054    7.2331 H         1 JS1         0.0947
     35 H10         4.7170   29.7386    6.4360 H         1 JS1         0.0947
     36 H11         5.7436   29.3873    8.5710 H         1 JS1         0.2040
     37 H12         5.8096   30.9763   10.3234 H         1 JS1         0.0778
     38 H13         4.2282   30.1425   10.1488 H         1 JS1         0.0778
     39 H14         4.4373   31.8125    9.5209 H         1 JS1         0.0778
     40 H15         6.7757   30.6760    6.8402 H         1 JS1         0.0778
     41 H16         7.3277   31.0799    8.5011 H         1 JS1         0.0778
     42 H17         6.1407   32.1389    7.6668 H         1 JS1         0.0778
     43 H18         6.6413   24.6448    7.1934 H         1 JS1         0.0637
     44 H19         7.5063   22.3827    6.7389 H         1 JS1         0.0620
     45 H20         5.9394   20.4862    6.5424 H         1 JS1         0.0626
     46 H21         3.5151   20.8598    6.7440 H         1 JS1         0.0620
     47 H22         2.6310   23.1270    7.1569 H         1 JS1         0.0637
@<TRIPOS>BOND
     1    1    2 1  
     2    2    3 1  
     3    3    4 1  
     4    4    5 2  
     5    4    6 1  
     6    6    7 2  
     7    6   10 1  
     8    7    8 1  
     9    7   20 1  
    10    8    9 1  
    11    9   10 ar 
    12    9   14 ar 
    13   10   11 ar 
    14   11   12 ar 
    15   11   16 1  
    16   12   13 ar 
    17   12   15 1  
    18   13   14 ar 
    19   16   17 1  
    20   17   18 1  
    21   17   19 1  
    22   20   21 ar 
    23   20   25 ar 
    24   21   22 ar 
    25   22   23 ar 
    26   23   24 ar 
    27   24   25 ar 
    28    1   26 1  
    29    1   27 1  
    30    1   28 1  
    31    2   29 1  
    32    2   30 1  
    33   13   31 1  
    34   14   32 1  
    35   15   33 1  
    36   16   34 1  
    37   16   35 1  
    38   17   36 1  
    39   18   37 1  
    40   18   38 1  
    41   18   39 1  
    42   19   40 1  
    43   19   41 1  
    44   19   42 1  
    45   21   43 1  
    46   22   44 1  
    47   23   45 1  
    48   24   46 1  
    49   25   47 1  
@<TRIPOS>SUBSTRUCTURE
     1 JS1         1

