### 
### Created by X-TOOL on Mon Sep 10 21:13:33 2018
### 

@<TRIPOS>MOLECULE
5v41_ligand
   52    55     1     0     0
SMALL
GAST_HUCK


@<TRIPOS>ATOM
      1 O1          6.3440   27.8240    6.6360 O.2       1 J24        -0.3732
      2 C2          5.6790   26.8310    6.3940 C.2       1 J24         0.2415
      3 O3          6.0600   26.0200    5.3800 O.3       1 J24        -0.2827
      4 C4          7.2310   26.3900    4.6060 C.3       1 J24         0.0721
      5 C5          7.7530   25.1600    3.8640 C.3       1 J24        -0.0373
      6 C6          4.4540   26.5040    7.1530 C.2       1 J24         0.0813
      7 C7          3.3810   27.4260    7.6530 C.ar      1 J24         0.0125
      8 C8          3.1180   28.8110    7.6410 C.ar      1 J24         0.0249
      9 C9          1.9580   29.2970    8.2430 C.ar      1 J24         0.0799
     10 O10         1.6830   30.6300    8.2460 O.3       1 J24        -0.3448
     11 C11         1.0600   28.4450    8.8720 C.ar      1 J24        -0.0490
     12 C12         1.3080   27.0930    8.8920 C.ar      1 J24        -0.0426
     13 C13         2.4530   26.5780    8.2910 C.ar      1 J24         0.1147
     14 O14         2.8910   25.3130    8.1910 O.3       1 J24        -0.2511
     15 C15         4.0510   25.2210    7.5360 C.2       1 J24         0.1469
     16 C16         4.7290   23.9180    7.3140 C.ar      1 J24         0.0229
     17 C17         6.1240   23.7890    7.3490 C.ar      1 J24        -0.0489
     18 C18         6.7310   22.5650    7.1500 C.ar      1 J24        -0.0599
     19 C19         5.9570   21.4370    6.9400 C.ar      1 J24        -0.0607
     20 C20         4.5760   21.5450    6.9230 C.ar      1 J24        -0.0599
     21 C21         3.9620   22.7690    7.1150 C.ar      1 J24        -0.0489
     22 C22         4.0540   29.8090    6.9940 C.3       1 J24        -0.0034
     23 N23         5.1450   30.1720    7.9360 N.4       1 J24         0.2484
     24 C24         4.6550   30.7980    9.1830 C.3       1 J24        -0.0067
     25 C25         5.7720   31.3400   10.0810 C.3       1 J24         0.0878
     26 O26         6.6560   32.1820    9.3330 O.3       1 J24        -0.3693
     27 C27         7.2580   31.5180    8.2190 C.3       1 J24         0.0878
     28 C28         6.1820   30.9770    7.2650 C.3       1 J24        -0.0067
     29 H1          8.0119   26.7717    5.2801 H         1 J24         0.0608
     30 H2          6.9602   27.1703    3.8795 H         1 J24         0.0608
     31 H3          8.6407   25.4359    3.2759 H         1 J24         0.0255
     32 H4          6.9712   24.7787    3.1907 H         1 J24         0.0255
     33 H5          8.0229   24.3801    4.5913 H         1 J24         0.0255
     34 H6          0.8598   30.7814    8.6954 H         1 J24         0.2418
     35 H7          0.1692   28.8433    9.3442 H         1 J24         0.0478
     36 H8          0.6076   26.4239    9.3787 H         1 J24         0.0480
     37 H9          6.7361   24.6640    7.5353 H         1 J24         0.0637
     38 H10         7.8122   22.4876    7.1582 H         1 J24         0.0620
     39 H11         6.4294   20.4730    6.7895 H         1 J24         0.0626
     40 H12         3.9707   20.6611    6.7575 H         1 J24         0.0620
     41 H13         2.8801   22.8365    7.1109 H         1 J24         0.0637
     42 H14         3.4904   30.7142    6.7241 H         1 J24         0.0947
     43 H15         4.4896   29.3642    6.0871 H         1 J24         0.0947
     44 H16         5.5850   29.3075    8.2101 H         1 J24         0.2047
     45 H17         4.0883   30.0449    9.7501 H         1 J24         0.0837
     46 H18         3.9899   31.6320    8.9147 H         1 J24         0.0837
     47 H19         6.3423   30.4967   10.4975 H         1 J24         0.0613
     48 H20         5.3262   31.9219   10.9011 H         1 J24         0.0613
     49 H21         7.8703   30.6807    8.5851 H         1 J24         0.0613
     50 H22         7.8972   32.2299    7.6762 H         1 J24         0.0613
     51 H23         5.6940   31.8308    6.7722 H         1 J24         0.0837
     52 H24         6.6736   30.3485    6.5078 H         1 J24         0.0837
@<TRIPOS>BOND
     1    1    2 2  
     2    2    3 1  
     3    2    6 1  
     4    3    4 1  
     5    4    5 1  
     6    6    7 1  
     7    6   15 2  
     8    7    8 ar 
     9    7   13 ar 
    10    8    9 ar 
    11    8   22 1  
    12    9   10 1  
    13    9   11 ar 
    14   11   12 ar 
    15   12   13 ar 
    16   13   14 1  
    17   14   15 1  
    18   15   16 1  
    19   16   17 ar 
    20   16   21 ar 
    21   17   18 ar 
    22   18   19 ar 
    23   19   20 ar 
    24   20   21 ar 
    25   22   23 1  
    26   23   24 1  
    27   23   28 1  
    28   24   25 1  
    29   25   26 1  
    30   26   27 1  
    31   27   28 1  
    32    4   29 1  
    33    4   30 1  
    34    5   31 1  
    35    5   32 1  
    36    5   33 1  
    37   10   34 1  
    38   11   35 1  
    39   12   36 1  
    40   17   37 1  
    41   18   38 1  
    42   19   39 1  
    43   20   40 1  
    44   21   41 1  
    45   22   42 1  
    46   22   43 1  
    47   23   44 1  
    48   24   45 1  
    49   24   46 1  
    50   25   47 1  
    51   25   48 1  
    52   27   49 1  
    53   27   50 1  
    54   28   51 1  
    55   28   52 1  
@<TRIPOS>SUBSTRUCTURE
     1 J24         1

