### 
### Created by X-TOOL on Mon Sep 10 21:13:32 2018
### 

@<TRIPOS>MOLECULE
5v42_ligand
   51    54     1     0     0
SMALL
GAST_HUCK


@<TRIPOS>ATOM
      1 O1          6.2500   27.6320    6.4410 O.2       1 I66        -0.3732
      2 C2          5.7130   26.5330    6.3750 C.2       1 I66         0.2415
      3 O3          6.0700   25.7050    5.3630 O.3       1 I66        -0.2827
      4 C4          7.3510   25.9660    4.7390 C.3       1 I66         0.0721
      5 C5          7.5090   24.9970    3.5760 C.3       1 I66        -0.0373
      6 C6          4.4770   26.2370    7.1440 C.2       1 I66         0.0813
      7 C7          3.4380   27.1930    7.6520 C.ar      1 I66         0.0125
      8 C8          3.2150   28.5840    7.6320 C.ar      1 I66         0.0249
      9 C9          2.0710   29.1010    8.2390 C.ar      1 I66         0.0799
     10 O10         1.8470   30.4440    8.2220 O.3       1 I66        -0.3448
     11 C11         1.1550   28.2810    8.8890 C.ar      1 I66        -0.0490
     12 C12         1.3650   26.9150    8.9200 C.ar      1 I66        -0.0426
     13 C13         2.4910   26.3730    8.3080 C.ar      1 I66         0.1147
     14 O14         2.9000   25.0940    8.2100 O.3       1 I66        -0.2511
     15 C15         4.0490   24.9680    7.5350 C.2       1 I66         0.1469
     16 C16         4.6930   23.6440    7.3310 C.ar      1 I66         0.0229
     17 C17         6.0950   23.5090    7.2550 C.ar      1 I66        -0.0489
     18 C18         6.6860   22.2710    7.0840 C.ar      1 I66        -0.0599
     19 C19         5.8710   21.1490    7.0120 C.ar      1 I66        -0.0607
     20 C20         4.4850   21.2490    7.1100 C.ar      1 I66        -0.0599
     21 C21         3.8840   22.4880    7.2760 C.ar      1 I66        -0.0489
     22 C22         4.1460   29.5940    6.9700 C.3       1 I66        -0.0036
     23 N23         5.3050   29.9420    7.8370 N.4       1 I66         0.2452
     24 C24         6.2850   30.8080    7.1270 C.3       1 I66        -0.0306
     25 C25         6.6950   31.9300    8.1300 C.3       1 I66        -0.0077
     26 C26         6.1960   31.3990    9.5110 C.3       1 I66        -0.0077
     27 C27         4.9340   30.6230    9.0990 C.3       1 I66        -0.0306
     28 H1          8.1605   25.8110    5.4675 H         1 I66         0.0608
     29 H2          7.3832   27.0017    4.3699 H         1 I66         0.0608
     30 H3          8.4758   25.1723    3.0815 H         1 I66         0.0255
     31 H4          6.6941   25.1545    2.8541 H         1 I66         0.0255
     32 H5          7.4714   23.9639    3.9518 H         1 I66         0.0255
     33 H6          1.0330   30.6339    8.6734 H         1 I66         0.2418
     34 H7          0.2823   28.7100    9.3680 H         1 I66         0.0478
     35 H8          0.6539   26.2674    9.4201 H         1 I66         0.0480
     36 H9          6.7199   24.3914    7.3320 H         1 I66         0.0637
     37 H10         7.7633   22.1781    7.0077 H         1 I66         0.0620
     38 H11         6.3235   20.1733    6.8765 H         1 I66         0.0626
     39 H12         3.8739   20.3552    7.0563 H         1 I66         0.0620
     40 H13         2.8064   22.5679    7.3625 H         1 I66         0.0637
     41 H14         3.5779   30.5106    6.7532 H         1 I66         0.0947
     42 H15         4.5230   29.1652    6.0298 H         1 I66         0.0947
     43 H16         5.7636   29.0771    8.0772 H         1 I66         0.2045
     44 H17         5.8230   31.2494    6.2316 H         1 I66         0.0814
     45 H18         7.1674   30.2208    6.8327 H         1 I66         0.0814
     46 H19         6.2041   32.8810    7.8757 H         1 I66         0.0319
     47 H20         7.7860   32.0705    8.1357 H         1 I66         0.0319
     48 H21         5.9547   32.2248   10.1964 H         1 I66         0.0319
     49 H22         6.9394   30.7381    9.9805 H         1 I66         0.0319
     50 H23         4.6618   29.8879    9.8707 H         1 I66         0.0814
     51 H24         4.0919   31.3114    8.9350 H         1 I66         0.0814
@<TRIPOS>BOND
     1    1    2 2  
     2    2    3 1  
     3    2    6 1  
     4    3    4 1  
     5    4    5 1  
     6    6    7 1  
     7    6   15 2  
     8    7    8 ar 
     9    7   13 ar 
    10    8    9 ar 
    11    8   22 1  
    12    9   10 1  
    13    9   11 ar 
    14   11   12 ar 
    15   12   13 ar 
    16   13   14 1  
    17   14   15 1  
    18   15   16 1  
    19   16   17 ar 
    20   16   21 ar 
    21   17   18 ar 
    22   18   19 ar 
    23   19   20 ar 
    24   20   21 ar 
    25   22   23 1  
    26   23   24 1  
    27   23   27 1  
    28   24   25 1  
    29   25   26 1  
    30   26   27 1  
    31    4   28 1  
    32    4   29 1  
    33    5   30 1  
    34    5   31 1  
    35    5   32 1  
    36   10   33 1  
    37   11   34 1  
    38   12   35 1  
    39   17   36 1  
    40   18   37 1  
    41   19   38 1  
    42   20   39 1  
    43   21   40 1  
    44   22   41 1  
    45   22   42 1  
    46   23   43 1  
    47   24   44 1  
    48   24   45 1  
    49   25   46 1  
    50   25   47 1  
    51   26   48 1  
    52   26   49 1  
    53   27   50 1  
    54   27   51 1  
@<TRIPOS>SUBSTRUCTURE
     1 I66         1

