### 
### Created by X-TOOL on Tue Oct 16 15:18:01 2018
### 

@<TRIPOS>MOLECULE
5v49_ligand
   47    50     1     0     0
SMALL
GAST_HUCK


@<TRIPOS>ATOM
      1 CL2        44.6900  -17.8160   16.5330 Cl        1 MOL        -0.0506
      2 C16        43.8820  -16.7540   15.4180 C.ar      1 MOL         0.0948
      3 C15        42.5120  -16.8570   15.2640 C.ar      1 MOL        -0.0346
      4 C14        41.9080  -15.9930   14.3680 C.ar      1 MOL        -0.0269
      5 N4         44.6690  -15.8980   14.7790 N.ar      1 MOL        -0.2989
      6 C17        44.0430  -15.0810   13.9210 C.ar      1 MOL         0.0759
      7 C13        42.6970  -15.0770   13.6750 C.ar      1 MOL         0.0987
      8 N3         42.3850  -14.1020   12.7290 N.pl3     1 MOL        -0.2234
      9 N5         44.5720  -14.1000   13.1220 N.2       1 MOL        -0.2958
     10 C12        43.5420  -13.5510   12.4350 C.2       1 MOL         0.2215
     11 N          43.7540  -12.5510   11.5620 N.pl3     1 MOL        -0.2568
     12 C          45.1010  -12.0680   11.2900 C.3       1 MOL         0.0263
     13 C1         42.6600  -11.8980   10.8420 C.3       1 MOL         0.0769
     14 C2         42.5820  -12.2770    9.3790 C.3       1 MOL        -0.0107
     15 N1         41.4710  -11.5910    8.7110 N.4       1 MOL         0.2409
     16 C3         41.1790  -11.9290    7.3090 C.3       1 MOL         0.0099
     17 C11        40.4650  -13.2660    7.2090 C.ar      1 MOL         0.0240
     18 C6         39.0610  -13.3030    7.1670 C.ar      1 MOL         0.0603
     19 N2         38.3190  -12.1380    7.1930 N.pl3     1 MOL        -0.3243
     20 C5         38.9420  -10.8190    7.2880 C.3       1 MOL         0.0294
     21 C4         40.3340  -10.8230    6.6860 C.3       1 MOL         0.0176
     22 C10        41.1710  -14.4680    7.1660 C.ar      1 MOL        -0.0523
     23 C9         40.4940  -15.6670    7.0860 C.ar      1 MOL         0.0203
     24 CL1        41.4030  -17.1530    7.0340 Cl        1 MOL        -0.0847
     25 C8         39.1180  -15.7210    7.0470 C.ar      1 MOL        -0.0527
     26 C7         38.4150  -14.5350    7.0880 C.ar      1 MOL         0.0510
     27 CL         36.6830  -14.5910    7.0400 Cl        1 MOL        -0.0838
     28 H1         41.9346  -17.5849   15.8224 H         1 MOL         0.0584
     29 H2         40.8365  -16.0281   14.2074 H         1 MOL         0.0653
     30 H3         41.4580  -13.8665   12.3468 H         1 MOL         0.2331
     31 H4         45.0563  -11.2531   10.5525 H         1 MOL         0.0494
     32 H5         45.7120  -12.8909   10.8906 H         1 MOL         0.0494
     33 H6         45.5519  -11.6951   12.2215 H         1 MOL         0.0494
     34 H7         42.7998  -10.8091   10.9115 H         1 MOL         0.0583
     35 H8         41.7116  -12.1775   11.3240 H         1 MOL         0.0583
     36 H9         42.4333  -13.3638    9.2975 H         1 MOL         0.0835
     37 H10        43.5246  -11.9978    8.8854 H         1 MOL         0.0835
     38 H11        41.6682  -10.6030    8.7441 H         1 MOL         0.2029
     39 H12        40.6377  -11.7854    9.2438 H         1 MOL         0.2029
     40 H13        42.1290  -12.0001    6.7591 H         1 MOL         0.0988
     41 H14        37.2921  -12.2009    7.1438 H         1 MOL         0.1740
     42 H15        39.0105  -10.5304    8.3472 H         1 MOL         0.0513
     43 H16        38.3203  -10.0893    6.7485 H         1 MOL         0.0513
     44 H17        40.2594  -10.9910    5.6015 H         1 MOL         0.0358
     45 H18        40.8132   -9.8509    6.8744 H         1 MOL         0.0358
     46 H19        42.2546  -14.4599    7.1955 H         1 MOL         0.0529
     47 H20        38.6008  -16.6717    6.9856 H         1 MOL         0.0538
@<TRIPOS>BOND
     1    1    2 1  
     2    2    3 ar 
     3    2    5 ar 
     4    3    4 ar 
     5    4    7 ar 
     6    5    6 ar 
     7    6    7 ar 
     8    6    9 1  
     9    7    8 1  
    10    8   10 1  
    11    9   10 2  
    12   10   11 1  
    13   11   12 1  
    14   11   13 1  
    15   13   14 1  
    16   14   15 1  
    17   15   16 1  
    18   16   17 1  
    19   16   21 1  
    20   17   18 ar 
    21   17   22 ar 
    22   18   19 1  
    23   18   26 ar 
    24   19   20 1  
    25   20   21 1  
    26   22   23 ar 
    27   23   24 1  
    28   23   25 ar 
    29   25   26 ar 
    30   26   27 1  
    31    3   28 1  
    32    4   29 1  
    33    8   30 1  
    34   12   31 1  
    35   12   32 1  
    36   12   33 1  
    37   13   34 1  
    38   13   35 1  
    39   14   36 1  
    40   14   37 1  
    41   15   38 1  
    42   15   39 1  
    43   16   40 1  
    44   19   41 1  
    45   20   42 1  
    46   20   43 1  
    47   21   44 1  
    48   21   45 1  
    49   22   46 1  
    50   25   47 1  
@<TRIPOS>SUBSTRUCTURE
     1 MOL         1

