### 
### Created by X-TOOL on Mon Sep 10 21:13:31 2018
### 

@<TRIPOS>MOLECULE
5v4q_ligand
   23    22     1     0     0
SMALL
GAST_HUCK


@<TRIPOS>ATOM
      1 O         -26.3150  -25.3560   -7.9830 O.co2     1 8WY        -0.5643
      2 C         -25.4420  -25.9570   -7.3110 C.2       1 8WY         0.0844
      3 OXT       -24.7850  -25.4630   -6.3670 O.co2     1 8WY        -0.5643
      4 CA        -25.1070  -27.3980   -7.7390 C.3       1 8WY         0.0284
      5 N         -26.3660  -28.0250   -8.1820 N.4       1 8WY         0.2327
      6 CB        -24.0770  -27.2990   -8.8930 C.3       1 8WY         0.0047
      7 CAG       -24.0000  -28.5710   -9.7280 C.3       1 8WY        -0.0204
      8 CAH       -23.1080  -28.3510  -10.9670 C.3       1 8WY         0.0527
      9 OAK       -21.7310  -28.3940  -10.5680 O.3       1 8WY        -0.3921
     10 CAI       -23.3360  -29.5090  -11.9970 C.3       1 8WY        -0.0389
     11 H1        -24.6789  -27.9673   -6.9008 H         1 8WY         0.1024
     12 H2        -26.1854  -28.9736   -8.4711 H         1 8WY         0.2010
     13 H3        -26.7462  -27.5043   -8.9568 H         1 8WY         0.2010
     14 H4        -27.0270  -28.0258   -7.4210 H         1 8WY         0.2010
     15 H5        -23.0845  -27.1013   -8.4619 H         1 8WY         0.0339
     16 H6        -24.3644  -26.4647   -9.5497 H         1 8WY         0.0339
     17 H7        -25.0121  -28.8506  -10.0558 H         1 8WY         0.0293
     18 H8        -23.5759  -29.3807   -9.1159 H         1 8WY         0.0293
     19 H9        -23.3421  -27.3805  -11.4288 H         1 8WY         0.0590
     20 H10       -21.1778  -28.2589  -11.3284 H         1 8WY         0.2098
     21 H11       -22.6977  -29.3470  -12.8781 H         1 8WY         0.0254
     22 H12       -24.3915  -29.5220  -12.3064 H         1 8WY         0.0254
     23 H13       -23.0789  -30.4711  -11.5299 H         1 8WY         0.0254
@<TRIPOS>BOND
     1    1    2 ar 
     2    2    3 ar 
     3    2    4 1  
     4    4    5 1  
     5    4    6 1  
     6    6    7 1  
     7    7    8 1  
     8    8    9 1  
     9    8   10 1  
    10    4   11 1  
    11    5   12 1  
    12    5   13 1  
    13    5   14 1  
    14    6   15 1  
    15    6   16 1  
    16    7   17 1  
    17    7   18 1  
    18    8   19 1  
    19    9   20 1  
    20   10   21 1  
    21   10   22 1  
    22   10   23 1  
@<TRIPOS>SUBSTRUCTURE
     1 8WY         1

