### 
### Created by X-TOOL on Mon Sep 10 21:13:31 2018
### 

@<TRIPOS>MOLECULE
5v5d_ligand
   58    61     1     0     0
SMALL
GAST_HUCK


@<TRIPOS>ATOM
      1 O01        -1.8990  -29.9810  -41.9960 O.2       1 8OY        -0.3683
      2 C02        -3.0710  -29.9770  -41.7780 C.2       1 8OY         0.2475
      3 C03        -3.9590  -31.2690  -41.9780 C.ar      1 8OY         0.1193
      4 N04        -5.3200  -31.0620  -41.8680 N.ar      1 8OY        -0.2778
      5 C05        -6.1930  -32.1150  -41.9970 C.ar      1 8OY         0.0334
      6 C06        -7.7350  -31.9500  -41.9080 C.3       1 8OY         0.0003
      7 C07        -8.5620  -31.7400  -43.2240 C.3       1 8OY        -0.0291
      8 C08        -7.7050  -31.3620  -44.4510 C.3       1 8OY        -0.0482
      9 C09        -8.4770  -31.0380  -45.7370 C.3       1 8OY        -0.0526
     10 C10        -9.9870  -30.9530  -45.5740 C.3       1 8OY        -0.0530
     11 C11       -10.4380  -30.2830  -44.3010 C.3       1 8OY        -0.0526
     12 C12        -9.6650  -30.6830  -43.0440 C.3       1 8OY        -0.0482
     13 C13        -5.6740  -33.3990  -42.2310 C.ar      1 8OY        -0.0284
     14 C14        -4.3210  -33.6040  -42.3240 C.ar      1 8OY        -0.0435
     15 C15        -3.4160  -32.5290  -42.1910 C.ar      1 8OY        -0.0209
     16 N16        -3.7050  -28.7840  -41.3050 N.am      1 8OY        -0.2324
     17 C17        -3.0960  -27.5070  -40.9970 C.ar      1 8OY         0.0941
     18 C18        -1.8280  -27.0750  -41.4240 C.ar      1 8OY        -0.0463
     19 C19        -1.2630  -25.8450  -41.0890 C.ar      1 8OY        -0.0733
     20 C20        -1.9340  -24.9260  -40.2670 C.ar      1 8OY        -0.0159
     21 C21        -1.3480  -23.5160  -39.8440 C.2       1 8OY         0.0501
     22 O22        -2.1740  -22.8460  -39.1730 O.co2     1 8OY        -0.5649
     23 O23        -0.2290  -23.2310  -40.1740 O.co2     1 8OY        -0.5649
     24 C24        -3.1920  -25.3410  -39.8230 C.ar      1 8OY        -0.0383
     25 C25        -3.7880  -26.5720  -40.1410 C.ar      1 8OY         0.0855
     26 N26        -5.0870  -26.9200  -39.6450 N.pl3     1 8OY        -0.2798
     27 C27        -6.2520  -27.0840  -40.3990 C.ar      1 8OY         0.0552
     28 C28        -6.3110  -26.9180  -41.7950 C.ar      1 8OY        -0.0407
     29 C29        -7.4590  -27.0700  -42.5850 C.ar      1 8OY        -0.0728
     30 C30        -8.7080  -27.4130  -42.0300 C.ar      1 8OY        -0.0745
     31 C31        -8.4830  -27.5380  -40.7050 C.ar      1 8OY        -0.0728
     32 C32        -7.5470  -27.4490  -39.7860 C.ar      1 8OY        -0.0407
     33 H1         -7.9279  -31.0783  -41.2654 H         1 8OY         0.0459
     34 H2         -8.1273  -32.8565  -41.4238 H         1 8OY         0.0459
     35 H3         -9.0502  -32.6998  -43.4483 H         1 8OY         0.0326
     36 H4         -7.0334  -32.2064  -44.6654 H         1 8OY         0.0270
     37 H5         -7.1082  -30.4772  -44.1849 H         1 8OY         0.0270
     38 H6         -8.2568  -31.8236  -46.4748 H         1 8OY         0.0265
     39 H7         -8.1192  -30.0690  -46.1153 H         1 8OY         0.0265
     40 H8        -10.3928  -31.9753  -45.5874 H         1 8OY         0.0265
     41 H9        -10.3937  -30.3858  -46.4242 H         1 8OY         0.0265
     42 H10       -11.4975  -30.5325  -44.1423 H         1 8OY         0.0265
     43 H11       -10.3330  -29.1960  -44.4332 H         1 8OY         0.0265
     44 H12        -9.1950  -29.7753  -42.6377 H         1 8OY         0.0270
     45 H13       -10.3903  -31.0772  -42.3170 H         1 8OY         0.0270
     46 H14        -6.3512  -34.2384  -42.3395 H         1 8OY         0.0684
     47 H15        -3.9420  -34.6039  -42.5018 H         1 8OY         0.0729
     48 H16        -2.3444  -32.6804  -42.2524 H         1 8OY         0.0705
     49 H17        -4.6943  -28.8396  -41.1701 H         1 8OY         0.2239
     50 H18        -1.2518  -27.7419  -42.0551 H         1 8OY         0.0473
     51 H19        -0.2813  -25.5922  -41.4729 H         1 8OY         0.0512
     52 H20        -3.7488  -24.6630  -39.1863 H         1 8OY         0.0512
     53 H21        -5.1703  -27.0640  -38.6285 H         1 8OY         0.2045
     54 H22        -5.3913  -26.6500  -42.3023 H         1 8OY         0.0525
     55 H23        -7.3836  -26.9190  -43.6558 H         1 8OY         0.0584
     56 H24        -9.6472  -27.5475  -42.5543 H         1 8OY         0.0509
     57 H25        -9.4142  -27.8118  -40.2223 H         1 8OY         0.0584
     58 H26        -7.7029  -27.6194  -38.7269 H         1 8OY         0.0525
@<TRIPOS>BOND
     1    1    2 2  
     2    2    3 1  
     3    2   16 am 
     4    3    4 ar 
     5    3   15 ar 
     6    4    5 ar 
     7    5    6 1  
     8    5   13 ar 
     9    6    7 1  
    10    7    8 1  
    11    7   12 1  
    12    8    9 1  
    13    9   10 1  
    14   10   11 1  
    15   11   12 1  
    16   13   14 ar 
    17   14   15 ar 
    18   16   17 1  
    19   17   18 ar 
    20   17   25 ar 
    21   18   19 ar 
    22   19   20 ar 
    23   20   21 1  
    24   20   24 ar 
    25   21   22 ar 
    26   21   23 ar 
    27   24   25 ar 
    28   25   26 1  
    29   26   27 1  
    30   27   28 ar 
    31   27   32 ar 
    32   28   29 ar 
    33   29   30 ar 
    34   30   31 ar 
    35   31   32 ar 
    36    6   33 1  
    37    6   34 1  
    38    7   35 1  
    39    8   36 1  
    40    8   37 1  
    41    9   38 1  
    42    9   39 1  
    43   10   40 1  
    44   10   41 1  
    45   11   42 1  
    46   11   43 1  
    47   12   44 1  
    48   12   45 1  
    49   13   46 1  
    50   14   47 1  
    51   15   48 1  
    52   16   49 1  
    53   18   50 1  
    54   19   51 1  
    55   24   52 1  
    56   26   53 1  
    57   28   54 1  
    58   29   55 1  
    59   30   56 1  
    60   31   57 1  
    61   32   58 1  
@<TRIPOS>SUBSTRUCTURE
     1 8OY         1

