### 
### Created by X-TOOL on Mon Sep 10 21:13:33 2018
### 

@<TRIPOS>MOLECULE
5v5e_ligand
   62    65     1     0     0
SMALL
GAST_HUCK


@<TRIPOS>ATOM
      1 C10       -27.5640  -16.3920  -45.6560 C.3       1 8N4        -0.0526
      2 C13       -26.0110  -16.8220  -43.2570 C.3       1 8N4        -0.0482
      3 C17       -32.0530  -20.4820  -40.6550 C.ar      1 8N4         0.0941
      4 C20       -33.0280  -23.0240  -40.0920 C.ar      1 8N4        -0.0159
      5 C21       -33.4840  -22.3370  -41.2030 C.ar      1 8N4        -0.0733
      6 C22       -32.9930  -21.0650  -41.4870 C.ar      1 8N4        -0.0463
      7 C28       -28.3860  -20.0800  -37.9220 C.ar      1 8N4        -0.0517
      8 C01       -32.0990  -15.5180  -41.7610 C.ar      1 8N4        -0.0209
      9 C02       -31.2890  -14.4300  -41.9990 C.ar      1 8N4        -0.0435
     10 C03       -29.9190  -14.5770  -42.0190 C.ar      1 8N4        -0.0284
     11 C04       -29.3510  -15.8290  -41.8010 C.ar      1 8N4         0.0334
     12 N05       -30.1600  -16.9000  -41.5680 N.ar      1 8N4        -0.2778
     13 C06       -31.5230  -16.7620  -41.5460 C.ar      1 8N4         0.1193
     14 C07       -27.8360  -16.0430  -41.8130 C.3       1 8N4         0.0003
     15 C08       -27.2480  -15.9610  -43.2110 C.3       1 8N4        -0.0291
     16 C09       -28.2180  -16.4340  -44.2860 C.3       1 8N4        -0.0482
     17 C11       -26.2460  -17.1440  -45.6670 C.3       1 8N4        -0.0530
     18 C12       -25.3400  -16.6230  -44.5860 C.3       1 8N4        -0.0526
     19 C14       -32.3380  -18.0240  -41.2670 C.2       1 8N4         0.2475
     20 O15       -33.5550  -18.0420  -41.3030 O.2       1 8N4        -0.3683
     21 N16       -31.5360  -19.1750  -40.9530 N.am      1 8N4        -0.2324
     22 C18       -31.5760  -21.1810  -39.5500 C.ar      1 8N4         0.0854
     23 C19       -32.0830  -22.4460  -39.2640 C.ar      1 8N4        -0.0383
     24 C23       -33.5610  -24.4130  -39.7760 C.2       1 8N4         0.0501
     25 O24       -32.9090  -25.4350  -40.1260 O.co2     1 8N4        -0.5649
     26 O25       -34.6500  -24.5440  -39.1640 O.co2     1 8N4        -0.5649
     27 N26       -30.6180  -20.6160  -38.6560 N.pl3     1 8N4        -0.2820
     28 C27       -29.2590  -20.3250  -38.9760 C.ar      1 8N4         0.0459
     29 C29       -27.0560  -19.7830  -38.1630 C.ar      1 8N4        -0.0811
     30 C30       -26.5830  -19.7260  -39.4710 C.ar      1 8N4        -0.0455
     31 C31       -27.4480  -19.9700  -40.5290 C.ar      1 8N4         0.0896
     32 C32       -28.7790  -20.2700  -40.2840 C.ar      1 8N4        -0.0130
     33 O33       -26.9580  -19.9030  -41.8550 O.3       1 8N4        -0.2290
     34 C34       -26.3620  -21.0890  -42.3270 C.3       1 8N4         0.5462
     35 F35       -27.0070  -22.1550  -41.8280 F         1 8N4        -0.1400
     36 F36       -26.4250  -21.1090  -43.6600 F         1 8N4        -0.1400
     37 F37       -25.0790  -21.1060  -41.9320 F         1 8N4        -0.1400
     38 H1        -27.3793  -15.3433  -45.9318 H         1 8N4         0.0265
     39 H2        -28.2429  -16.8502  -46.3903 H         1 8N4         0.0265
     40 H3        -26.2902  -17.8792  -43.1371 H         1 8N4         0.0270
     41 H4        -25.3254  -16.5298  -42.4480 H         1 8N4         0.0270
     42 H5        -34.2242  -22.7892  -41.8531 H         1 8N4         0.0512
     43 H6        -33.3476  -20.5307  -42.3610 H         1 8N4         0.0473
     44 H7        -28.7505  -20.1220  -36.9020 H         1 8N4         0.0435
     45 H8        -33.1768  -15.4037  -41.7418 H         1 8N4         0.0705
     46 H9        -31.7304  -13.4550  -42.1711 H         1 8N4         0.0729
     47 H10       -29.2840  -13.7182  -42.2044 H         1 8N4         0.0684
     48 H11       -27.6168  -17.0370  -41.3959 H         1 8N4         0.0459
     49 H12       -27.3657  -15.2707  -41.1867 H         1 8N4         0.0459
     50 H13       -26.9758  -14.9157  -43.4189 H         1 8N4         0.0326
     51 H14       -28.5266  -17.4664  -44.0648 H         1 8N4         0.0270
     52 H15       -29.1020  -15.7794  -44.2878 H         1 8N4         0.0270
     53 H16       -25.7595  -17.0097  -46.6444 H         1 8N4         0.0265
     54 H17       -26.4369  -18.2138  -45.4963 H         1 8N4         0.0265
     55 H18       -24.3871  -17.1722  -44.6053 H         1 8N4         0.0265
     56 H19       -25.1493  -15.5518  -44.7475 H         1 8N4         0.0265
     57 H20       -30.5430  -19.0570  -40.9411 H         1 8N4         0.2239
     58 H21       -31.7351  -22.9806  -38.3876 H         1 8N4         0.0512
     59 H22       -30.9344  -20.4003  -37.6998 H         1 8N4         0.2043
     60 H23       -26.3832  -19.5949  -37.3341 H         1 8N4         0.0558
     61 H24       -25.5421  -19.4917  -39.6629 H         1 8N4         0.0439
     62 H25       -29.4499  -20.4628  -41.1133 H         1 8N4         0.0443
@<TRIPOS>BOND
     1   16    1 1  
     2    1   17 1  
     3   15    2 1  
     4    2   18 1  
     5    3    6 ar 
     6    3   21 1  
     7   22    3 ar 
     8    4    5 ar 
     9   23    4 ar 
    10    4   24 1  
    11    6    5 ar 
    12   28    7 ar 
    13    7   29 ar 
    14    8    9 ar 
    15   13    8 ar 
    16    9   10 ar 
    17   11   10 ar 
    18   12   11 ar 
    19   11   14 1  
    20   13   12 ar 
    21   19   13 1  
    22   14   15 1  
    23   15   16 1  
    24   18   17 1  
    25   19   20 2  
    26   21   19 am 
    27   22   23 ar 
    28   27   22 1  
    29   24   25 ar 
    30   24   26 ar 
    31   27   28 1  
    32   28   32 ar 
    33   29   30 ar 
    34   30   31 ar 
    35   31   32 ar 
    36   31   33 1  
    37   33   34 1  
    38   34   35 1  
    39   34   36 1  
    40   34   37 1  
    41    1   38 1  
    42    1   39 1  
    43    2   40 1  
    44    2   41 1  
    45    5   42 1  
    46    6   43 1  
    47    7   44 1  
    48    8   45 1  
    49    9   46 1  
    50   10   47 1  
    51   14   48 1  
    52   14   49 1  
    53   15   50 1  
    54   16   51 1  
    55   16   52 1  
    56   17   53 1  
    57   17   54 1  
    58   18   55 1  
    59   18   56 1  
    60   21   57 1  
    61   23   58 1  
    62   27   59 1  
    63   29   60 1  
    64   30   61 1  
    65   32   62 1  
@<TRIPOS>SUBSTRUCTURE
     1 8N4         1

