### 
### Created by X-TOOL on Mon Sep 10 21:13:32 2018
### 

@<TRIPOS>MOLECULE
5v5n_ligand
   42    44     1     0     0
SMALL
GAST_HUCK


@<TRIPOS>ATOM
      1 C01       -10.0290  -49.6970  -15.0250 C.2       1 EDH         0.2035
      2 C02       -10.8550  -48.4850  -14.6050 C.ar      1 EDH         0.0553
      3 C03       -10.2670  -47.4760  -13.8670 C.ar      1 EDH        -0.0378
      4 C04       -11.0060  -46.3560  -13.4710 C.ar      1 EDH        -0.0507
      5 C05       -12.3580  -46.2530  -13.8280 C.ar      1 EDH        -0.0371
      6 C06       -12.9490  -47.2640  -14.5640 C.ar      1 EDH         0.0635
      7 C07       -14.4430  -47.1710  -14.9800 C.2       1 EDH         0.2447
      8 C08       -16.2970  -48.1640  -16.3590 C.2       1 EDH         0.2429
      9 C09       -18.4030  -47.5840  -16.7870 C.ar      1 EDH         0.0087
     10 C10       -18.1680  -48.8160  -17.3720 C.ar      1 EDH         0.0763
     11 C11       -19.2070  -49.4790  -18.0950 C.ar      1 EDH        -0.0455
     12 C12       -20.4550  -48.8820  -18.2080 C.ar      1 EDH        -0.0795
     13 C13       -20.6970  -47.6270  -17.6130 C.ar      1 EDH        -0.0817
     14 C14       -19.6790  -46.9750  -16.9040 C.ar      1 EDH        -0.0704
     15 C15       -16.1770  -50.3640  -17.5140 C.3       1 EDH         0.0567
     16 C16       -15.3550  -50.1010  -18.7300 C.3       1 EDH        -0.0296
     17 C17       -14.5060  -51.2780  -19.1110 C.3       1 EDH        -0.0629
     18 C18       -12.2060  -48.3810  -14.9620 C.ar      1 EDH        -0.0213
     19 N01       -10.5560  -50.6450  -15.9650 N.am      1 EDH        -0.3000
     20 N02       -14.9390  -48.1700  -15.9000 N.am      1 EDH        -0.1834
     21 N03       -17.2100  -47.1940  -16.1590 N.2       1 EDH        -0.3139
     22 N04       -16.8570  -49.1520  -17.0960 N.pl3     1 EDH        -0.2142
     23 O01       -15.1630  -46.2880  -14.5540 O.2       1 EDH        -0.3685
     24 O02        -8.9230  -49.8620  -14.5620 O.2       1 EDH        -0.3848
     25 H1         -9.2214  -47.5529  -13.5917 H         1 EDH         0.0704
     26 H2        -10.5352  -45.5709  -12.8904 H         1 EDH         0.0640
     27 H3        -12.9365  -45.3864  -13.5290 H         1 EDH         0.0704
     28 H4        -19.0214  -50.4438  -18.5531 H         1 EDH         0.0529
     29 H5        -21.2458  -49.3822  -18.7553 H         1 EDH         0.0508
     30 H6        -21.6734  -47.1650  -17.7042 H         1 EDH         0.0506
     31 H7        -19.8657  -46.0099  -16.4471 H         1 EDH         0.0510
     32 H8        -15.5224  -50.7118  -16.7013 H         1 EDH         0.0594
     33 H9        -16.9235  -51.1394  -17.7409 H         1 EDH         0.0594
     34 H10       -14.6985  -49.2406  -18.5335 H         1 EDH         0.0288
     35 H11       -16.0281  -49.8650  -19.5674 H         1 EDH         0.0288
     36 H12       -13.9219  -51.0329  -20.0103 H         1 EDH         0.0231
     37 H13       -15.1516  -52.1442  -19.3180 H         1 EDH         0.0231
     38 H14       -13.8220  -51.5198  -18.2841 H         1 EDH         0.0231
     39 H15       -12.6750  -49.1648  -15.5457 H         1 EDH         0.0723
     40 H16       -10.0093  -51.4372  -16.2360 H         1 EDH         0.1808
     41 H17       -11.4699  -50.5133  -16.3489 H         1 EDH         0.1808
     42 H18       -14.3185  -48.8838  -16.2246 H         1 EDH         0.2400
@<TRIPOS>BOND
     1    2    1 1  
     2    1   19 am 
     3    1   24 2  
     4    2    3 ar 
     5   18    2 ar 
     6    4    3 ar 
     7    5    4 ar 
     8    6    5 ar 
     9    7    6 1  
    10    6   18 ar 
    11   20    7 am 
    12    7   23 2  
    13    8   20 1  
    14    8   21 2  
    15   22    8 1  
    16   10    9 ar 
    17    9   14 ar 
    18    9   21 1  
    19   10   11 ar 
    20   22   10 1  
    21   11   12 ar 
    22   12   13 ar 
    23   14   13 ar 
    24   15   16 1  
    25   15   22 1  
    26   16   17 1  
    27    3   25 1  
    28    4   26 1  
    29    5   27 1  
    30   11   28 1  
    31   12   29 1  
    32   13   30 1  
    33   14   31 1  
    34   15   32 1  
    35   15   33 1  
    36   16   34 1  
    37   16   35 1  
    38   17   36 1  
    39   17   37 1  
    40   17   38 1  
    41   18   39 1  
    42   19   40 1  
    43   19   41 1  
    44   20   42 1  
@<TRIPOS>SUBSTRUCTURE
     1 EDH         1

