### 
### Created by X-TOOL on Mon Sep 10 21:13:31 2018
### 

@<TRIPOS>MOLECULE
5v5y_ligand
   70    74     1     0     0
SMALL
GAST_HUCK


@<TRIPOS>ATOM
      1 C01        24.6000    5.7300  -14.3420 C.3       1 8X7        -0.0430
      2 N02        24.4740    5.2780  -12.9290 N.4       1 8X7         0.2358
      3 C03        23.1160    4.7520  -12.6350 C.3       1 8X7        -0.0123
      4 C04        22.9690    4.0900  -11.2420 C.3       1 8X7         0.0649
      5 N05        24.1270    3.3510  -10.7560 N.pl3     1 8X7        -0.3044
      6 C06        25.4260    3.9310  -11.0610 C.3       1 8X7         0.0649
      7 C07        25.5610    4.3360  -12.5390 C.3       1 8X7        -0.0123
      8 C08        23.9680    2.5790   -9.6070 C.ar      1 8X7         0.0299
      9 C09        22.8760    2.7790   -8.7250 C.ar      1 8X7        -0.0526
     10 C10        22.7170    2.0090   -7.5690 C.ar      1 8X7        -0.0485
     11 C11        23.6440    0.9960   -7.2340 C.ar      1 8X7         0.0541
     12 N12        23.5810    0.1760   -6.1370 N.pl3     1 8X7        -0.2490
     13 C13        22.8230    0.3270   -5.0270 C.ar      1 8X7         0.1982
     14 N14        22.7820   -0.6880   -4.1220 N.ar      1 8X7        -0.2614
     15 C15        22.0430   -0.6210   -2.9860 C.ar      1 8X7         0.0227
     16 C16        21.3070    0.5420   -2.7540 C.ar      1 8X7         0.1146
     17 C17        20.4430    0.9600   -1.7140 C.2       1 8X7         0.2326
     18 O18        20.0530    0.3990   -0.6380 O.2       1 8X7        -0.3894
     19 N19        20.0270    2.1910   -2.0810 N.am      1 8X7        -0.1342
     20 C20        19.1860    2.9590   -1.2170 C.3       1 8X7         0.0910
     21 C21        20.1830    3.7770   -0.5390 C.2       1 8X7        -0.0645
     22 C22        20.9740    3.3530    0.4660 C.2       1 8X7        -0.1155
     23 N23        20.6160    2.5920   -3.2060 N.pl3     1 8X7        -0.1018
     24 C24        21.3550    1.5720   -3.6610 C.ar      1 8X7         0.1876
     25 N25        22.1040    1.4520   -4.7780 N.ar      1 8X7        -0.2257
     26 C26        20.3720    3.6930   -3.9750 C.ar      1 8X7         0.1961
     27 N27        19.1100    4.1780   -3.8410 N.ar      1 8X7        -0.2558
     28 C28        18.5580    5.2170   -4.5190 C.ar      1 8X7         0.0358
     29 C29        19.3620    5.8170   -5.5130 C.ar      1 8X7        -0.0199
     30 C30        20.6640    5.3270   -5.7440 C.ar      1 8X7        -0.0186
     31 C31        21.1750    4.2430   -5.0030 C.ar      1 8X7         0.0240
     32 C32        17.1590    5.6460   -4.1860 C.3       1 8X7         0.0631
     33 C33        16.5750    6.7170   -5.1440 C.3       1 8X7        -0.0574
     34 C34        17.0800    6.1400   -2.7170 C.3       1 8X7        -0.0574
     35 O35        16.2810    4.5230   -4.2880 O.3       1 8X7        -0.4203
     36 C36        24.7340    0.7880   -8.0970 C.ar      1 8X7        -0.0485
     37 C37        24.8900    1.5630   -9.2530 C.ar      1 8X7        -0.0526
     38 H1         23.7779    6.4208  -14.5807 H         1 8X7         0.0778
     39 H2         24.5526    4.8584  -15.0114 H         1 8X7         0.0778
     40 H3         25.5625    6.2448  -14.4779 H         1 8X7         0.0778
     41 H4         24.5912    6.0979  -12.3545 H         1 8X7         0.2032
     42 H5         22.8655    4.0019  -13.3996 H         1 8X7         0.0834
     43 H6         22.4038    5.5882  -12.6944 H         1 8X7         0.0834
     44 H7         22.1209    3.3912  -11.2902 H         1 8X7         0.0562
     45 H8         22.7484    4.8847  -10.5142 H         1 8X7         0.0562
     46 H9         26.2059    3.1918  -10.8257 H         1 8X7         0.0562
     47 H10        25.5679    4.8253  -10.4364 H         1 8X7         0.0562
     48 H11        26.5345    4.8249  -12.6918 H         1 8X7         0.0834
     49 H12        25.5005    3.4350  -13.1671 H         1 8X7         0.0834
     50 H13        22.1465    3.5478   -8.9526 H         1 8X7         0.0490
     51 H14        21.8690    2.1918   -6.9190 H         1 8X7         0.0508
     52 H15        24.1853   -0.6577   -6.1611 H         1 8X7         0.2160
     53 H16        22.0248   -1.4444   -2.2812 H         1 8X7         0.0908
     54 H17        18.6364    2.3194   -0.5107 H         1 8X7         0.0730
     55 H18        18.4732    3.5746   -1.7853 H         1 8X7         0.0730
     56 H19        20.2975    4.8084   -0.8693 H         1 8X7         0.0693
     57 H20        21.6943    4.0343    0.9165 H         1 8X7         0.0290
     58 H21        20.8930    2.3290    0.8278 H         1 8X7         0.0290
     59 H22        18.9808    6.6486   -6.0945 H         1 8X7         0.0891
     60 H23        21.2817    5.7918   -6.5039 H         1 8X7         0.0789
     61 H24        22.1588    3.8401   -5.2149 H         1 8X7         0.0897
     62 H25        15.5525    6.9723   -4.8289 H         1 8X7         0.0167
     63 H26        16.5542    6.3195   -6.1694 H         1 8X7         0.0167
     64 H27        17.2041    7.6188   -5.1130 H         1 8X7         0.0167
     65 H28        17.4969    5.3719   -2.0490 H         1 8X7         0.0167
     66 H29        16.0298    6.3278   -2.4493 H         1 8X7         0.0167
     67 H30        17.6574    7.0703   -2.6114 H         1 8X7         0.0167
     68 H31        16.5899    3.8282   -3.7185 H         1 8X7         0.1970
     69 H32        25.4620    0.0190   -7.8651 H         1 8X7         0.0508
     70 H33        25.7426    1.3799   -9.8969 H         1 8X7         0.0490
@<TRIPOS>BOND
     1    1    2 1  
     2    2    3 1  
     3    2    7 1  
     4    3    4 1  
     5    4    5 1  
     6    5    6 1  
     7    5    8 1  
     8    6    7 1  
     9    8    9 ar 
    10    8   37 ar 
    11    9   10 ar 
    12   10   11 ar 
    13   11   12 1  
    14   11   36 ar 
    15   12   13 1  
    16   13   14 ar 
    17   13   25 ar 
    18   14   15 ar 
    19   15   16 ar 
    20   16   17 1  
    21   16   24 ar 
    22   17   18 2  
    23   17   19 am 
    24   19   20 1  
    25   19   23 1  
    26   20   21 1  
    27   21   22 2  
    28   23   24 1  
    29   23   26 1  
    30   24   25 ar 
    31   26   27 ar 
    32   26   31 ar 
    33   27   28 ar 
    34   28   29 ar 
    35   28   32 1  
    36   29   30 ar 
    37   30   31 ar 
    38   32   33 1  
    39   32   34 1  
    40   32   35 1  
    41   36   37 ar 
    42    1   38 1  
    43    1   39 1  
    44    1   40 1  
    45    2   41 1  
    46    3   42 1  
    47    3   43 1  
    48    4   44 1  
    49    4   45 1  
    50    6   46 1  
    51    6   47 1  
    52    7   48 1  
    53    7   49 1  
    54    9   50 1  
    55   10   51 1  
    56   12   52 1  
    57   15   53 1  
    58   20   54 1  
    59   20   55 1  
    60   21   56 1  
    61   22   57 1  
    62   22   58 1  
    63   29   59 1  
    64   30   60 1  
    65   31   61 1  
    66   33   62 1  
    67   33   63 1  
    68   33   64 1  
    69   34   65 1  
    70   34   66 1  
    71   34   67 1  
    72   35   68 1  
    73   36   69 1  
    74   37   70 1  
@<TRIPOS>SUBSTRUCTURE
     1 8X7         1

