### 
### Created by X-TOOL on Mon Sep 10 21:13:32 2018
### 

@<TRIPOS>MOLECULE
5v6u_ligand
   30    31     1     0     0
SMALL
GAST_HUCK


@<TRIPOS>ATOM
      1 C5        -40.0230    9.7570   11.0590 C.ar      1 8YM        -0.0627
      2 C4        -38.9360   10.3710   10.4640 C.ar      1 8YM        -0.0624
      3 C2        -40.3760   11.9740    9.3780 C.ar      1 8YM         0.0466
      4 C6        -41.2930   10.2350   10.8020 C.ar      1 8YM        -0.0411
      5 C         -41.3340   13.0120    7.2060 C.3       1 8YM         0.0096
      6 O         -39.7680   14.1110    8.6370 O.2       1 8YM        -0.3828
      7 C1        -40.4870   13.1300    8.4590 C.2       1 8YM         0.1261
      8 C10       -42.5620   15.0610   12.1310 C.ar      1 8YM        -0.0647
      9 C11       -43.3510   14.7860   13.2340 C.ar      1 8YM        -0.0648
     10 C12       -44.1010   13.6240   13.2770 C.ar      1 8YM        -0.0530
     11 C13       -44.0580   12.7170   12.2320 C.ar      1 8YM         0.0246
     12 C14       -44.9360   11.5130   12.3340 C.2       1 8YM         0.0598
     13 C3        -39.1030   11.4640    9.6310 C.ar      1 8YM        -0.0484
     14 C7        -41.4890   11.3120    9.9410 C.ar      1 8YM         0.0505
     15 C8        -43.2970   13.0170   11.0840 C.ar      1 8YM         0.0462
     16 C9        -42.5210   14.1700   11.0660 C.ar      1 8YM        -0.0435
     17 O1        -44.5440   10.5120   12.9890 O.co2     1 8YM        -0.5628
     18 O2        -46.0740   11.5800   11.8030 O.co2     1 8YM        -0.5628
     19 S         -43.1540   11.9120    9.6990 S.3       1 8YM        -0.0337
     20 H1        -39.8798    8.9098   11.7199 H         1 8YM         0.0638
     21 H2        -37.9385    9.9908   10.6527 H         1 8YM         0.0574
     22 H3        -42.1476    9.7662   11.2762 H         1 8YM         0.0582
     23 H4        -41.2994   13.9602    6.6494 H         1 8YM         0.0448
     24 H5        -42.3741   12.7891    7.4861 H         1 8YM         0.0448
     25 H6        -40.9427   12.2013    6.5739 H         1 8YM         0.0448
     26 H7        -41.9756   15.9721   12.0980 H         1 8YM         0.0622
     27 H8        -43.3815   15.4814   14.0650 H         1 8YM         0.0569
     28 H9        -44.7285   13.4219   14.1375 H         1 8YM         0.0634
     29 H10       -38.2372   11.9272    9.1717 H         1 8YM         0.0654
     30 H11       -41.8802   14.3751   10.2161 H         1 8YM         0.0577
@<TRIPOS>BOND
     1    1    2 ar 
     2    4    1 ar 
     3   13    2 ar 
     4    3    7 1  
     5    3   13 ar 
     6   14    3 ar 
     7   14    4 ar 
     8    7    5 1  
     9    7    6 2  
    10    8    9 ar 
    11   16    8 ar 
    12   10    9 ar 
    13   11   10 ar 
    14   11   12 1  
    15   15   11 ar 
    16   12   17 ar 
    17   12   18 ar 
    18   19   14 1  
    19   15   16 ar 
    20   15   19 1  
    21    1   20 1  
    22    2   21 1  
    23    4   22 1  
    24    5   23 1  
    25    5   24 1  
    26    5   25 1  
    27    8   26 1  
    28    9   27 1  
    29   10   28 1  
    30   13   29 1  
    31   16   30 1  
@<TRIPOS>SUBSTRUCTURE
     1 8YM         1

