### 
### Created by X-TOOL on Mon Sep 10 21:13:33 2018
### 

@<TRIPOS>MOLECULE
5v79_ligand
   38    40     1     0     0
SMALL
GAST_HUCK


@<TRIPOS>ATOM
      1 C1        -24.0660    3.3480   98.2530 C.ar      1 8Y4        -0.0772
      2 C2        -23.1920    2.9700   99.2500 C.ar      1 8Y4        -0.0755
      3 C3        -24.5830    4.6280   98.2550 C.ar      1 8Y4        -0.0755
      4 C4        -22.8240    3.8620  100.2420 C.ar      1 8Y4        -0.0413
      5 C5        -24.2250    5.5290   99.2390 C.ar      1 8Y4        -0.0413
      6 C6        -23.3390    5.1550  100.2410 C.ar      1 8Y4         0.0663
      7 C7        -18.2960    9.2080  103.7470 C.2       1 8Y4         0.2415
      8 C8        -17.8770    8.8600  104.9990 C.2       1 8Y4         0.3122
      9 C9        -19.7190    7.7950  104.4350 C.2       1 8Y4         0.2729
     10 C10       -17.5300   10.1660  103.0100 C.2       1 8Y4         0.2529
     11 C11       -16.0930   10.1700  105.0260 C.cat     1 8Y4         0.2006
     12 C12       -21.9250    6.0980  102.0770 C.2       1 8Y4         0.2187
     13 C13       -18.7490    7.3170  106.7270 C.3       1 8Y4         0.0718
     14 C14       -22.1300    7.0790  103.1990 C.3       1 8Y4         0.1228
     15 N15       -19.4450    8.5470  103.3860 N.2       1 8Y4        -0.1894
     16 N16       -16.8010    9.2980  105.6880 N.pl3     1 8Y4        -0.1962
     17 N17       -18.7940    7.9530  105.4260 N.pl3     1 8Y4        -0.1194
     18 N18       -16.4330   10.5870  103.7330 N.am      1 8Y4        -0.2502
     19 N19       -14.9530   10.7420  105.5540 N.pl3     1 8Y4        -0.3337
     20 N20       -23.0190    6.1420  101.2210 N.am      1 8Y4        -0.2329
     21 O21       -17.7990   10.5720  101.8870 O.2       1 8Y4        -0.3661
     22 O22       -20.9240    5.3950  101.9640 O.2       1 8Y4        -0.3836
     23 S23       -21.0710    6.7110  104.6290 S.3       1 8Y4         0.0343
     24 H1        -24.3446    2.6467   97.4748 H         1 8Y4         0.0487
     25 H2        -22.7889    1.9637   99.2569 H         1 8Y4         0.0577
     26 H3        -25.2760    4.9287   97.4776 H         1 8Y4         0.0577
     27 H4        -22.1347    3.5537  101.0197 H         1 8Y4         0.0502
     28 H5        -24.6371    6.5316   99.2291 H         1 8Y4         0.0502
     29 H6        -17.8653    7.6713  107.2779 H         1 8Y4         0.0599
     30 H7        -18.6887    6.2260  106.6000 H         1 8Y4         0.0599
     31 H8        -19.6587    7.5708  107.2909 H         1 8Y4         0.0599
     32 H9        -23.1822    7.0395  103.5172 H         1 8Y4         0.0678
     33 H10       -21.8949    8.0897  102.8341 H         1 8Y4         0.0678
     34 H11       -16.5644    8.9766  106.6375 H         1 8Y4         0.2475
     35 H12       -15.8260   11.2496  103.2943 H         1 8Y4         0.1817
     36 H13       -14.6389   10.4850  106.5007 H         1 8Y4         0.1768
     37 H14       -14.4165   11.4258  105.0013 H         1 8Y4         0.1768
     38 H15       -23.6314    6.9288  101.2979 H         1 8Y4         0.2257
@<TRIPOS>BOND
     1    2    1 ar 
     2    3    1 ar 
     3    4    2 ar 
     4    5    3 ar 
     5    6    4 ar 
     6    6    5 ar 
     7   20    6 1  
     8    8    7 2  
     9    7   10 1  
    10   15    7 1  
    11    8   16 1  
    12   17    8 1  
    13    9   15 2  
    14    9   17 1  
    15   23    9 1  
    16   10   18 am 
    17   10   21 2  
    18   16   11 ar 
    19   11   18 ar 
    20   11   19 ar 
    21   14   12 1  
    22   12   20 am 
    23   12   22 2  
    24   17   13 1  
    25   14   23 1  
    26    1   24 1  
    27    2   25 1  
    28    3   26 1  
    29    4   27 1  
    30    5   28 1  
    31   13   29 1  
    32   13   30 1  
    33   13   31 1  
    34   14   32 1  
    35   14   33 1  
    36   16   34 1  
    37   18   35 1  
    38   19   36 1  
    39   19   37 1  
    40   20   38 1  
@<TRIPOS>SUBSTRUCTURE
     1 8Y4         1

