### 
### Created by X-TOOL on Mon Sep 10 21:13:33 2018
### 

@<TRIPOS>MOLECULE
5v7a_ligand
   26    27     1     0     0
SMALL
GAST_HUCK


@<TRIPOS>ATOM
      1 C1        -17.5030    8.7360  103.5790 C.2       1 8Y7         0.2415
      2 C2        -17.1280    8.4530  104.8620 C.2       1 8Y7         0.3122
      3 C3        -18.9500    7.3510  104.2810 C.2       1 8Y7         0.2723
      4 C4        -16.7060    9.6490  102.8240 C.2       1 8Y7         0.2529
      5 C5        -15.3550    9.7740  104.8810 C.cat     1 8Y7         0.2006
      6 C6        -20.7960    5.4430  101.9220 C.2       1 8Y7         0.0497
      7 C7        -18.0880    6.9900  106.6350 C.3       1 8Y7         0.0718
      8 C8        -21.2860    6.4210  102.9850 C.3       1 8Y7         0.0802
      9 N9        -18.6310    8.0530  103.2090 N.2       1 8Y7        -0.1895
     10 N10       -16.0720    8.9340  105.5700 N.pl3     1 8Y7        -0.1962
     11 N11       -18.0710    7.5710  105.3030 N.pl3     1 8Y7        -0.1194
     12 N12       -15.6480   10.1060  103.5670 N.am      1 8Y7        -0.2502
     13 N13       -14.2390   10.3990  105.3810 N.pl3     1 8Y7        -0.3337
     14 O14       -19.8540    4.6460  102.1890 O.co2     1 8Y7        -0.5678
     15 O15       -16.9000   10.0180  101.6800 O.2       1 8Y7        -0.3661
     16 O16       -21.4330    5.5750  100.8450 O.co2     1 8Y7        -0.5678
     17 S17       -20.2920    6.2530  104.4960 S.3       1 8Y7         0.0270
     18 H1        -17.2374    7.3775  107.2149 H         1 8Y7         0.0599
     19 H2        -18.0114    5.8953  106.5586 H         1 8Y7         0.0599
     20 H3        -19.0280    7.2575  107.1398 H         1 8Y7         0.0599
     21 H4        -22.3397    6.2074  103.2175 H         1 8Y7         0.0600
     22 H5        -21.1958    7.4485  102.6029 H         1 8Y7         0.0600
     23 H6        -15.8628    8.6643  106.5418 H         1 8Y7         0.2475
     24 H7        -15.0242   10.7437  103.1152 H         1 8Y7         0.1817
     25 H8        -13.9378   10.2182  106.3492 H         1 8Y7         0.1768
     26 H9        -13.7032   11.0486  104.7878 H         1 8Y7         0.1768
@<TRIPOS>BOND
     1    2    1 2  
     2    1    4 1  
     3    9    1 1  
     4    2   10 1  
     5   11    2 1  
     6    3    9 2  
     7    3   11 1  
     8   17    3 1  
     9    4   12 am 
    10    4   15 2  
    11   10    5 ar 
    12    5   12 ar 
    13    5   13 ar 
    14    8    6 1  
    15    6   14 ar 
    16    6   16 ar 
    17   11    7 1  
    18    8   17 1  
    19    7   18 1  
    20    7   19 1  
    21    7   20 1  
    22    8   21 1  
    23    8   22 1  
    24   10   23 1  
    25   12   24 1  
    26   13   25 1  
    27   13   26 1  
@<TRIPOS>SUBSTRUCTURE
     1 8Y7         1

