### 
### Created by X-TOOL on Mon Sep 10 21:13:33 2018
### 

@<TRIPOS>MOLECULE
5v7i_ligand
   55    58     1     0     0
SMALL
GAST_HUCK


@<TRIPOS>ATOM
      1 NAU       -42.7200   67.1280    5.0410 N.1       1 8Z1        -0.3708
      2 CAT       -41.5690   66.9230    4.8070 C.1       1 8Z1         0.0413
      3 CAP       -40.0620   66.6560    4.4870 C.2       1 8Z1         0.0690
      4 CAO       -39.7750   65.6860    3.5100 C.2       1 8Z1         0.2723
      5 NAY       -40.7740   65.0360    2.8980 N.pl3     1 8Z1        -0.2558
      6 OAN       -38.4790   65.3970    3.2160 O.3       1 8Z1        -0.1639
      7 CAM       -37.4710   66.2310    3.6060 C.2       1 8Z1         0.1891
      8 NAX       -36.2090   66.2630    3.1860 N.2       1 8Z1        -0.1938
      9 NAW       -35.5800   67.2210    3.8370 N.pl3     1 8Z1        -0.2102
     10 CAV       -36.4690   67.7580    4.6570 C.2       1 8Z1         0.0778
     11 CAZ       -36.0280   68.9070    5.5460 C.3       1 8Z1         0.0111
     12 CAL       -37.6950   67.1820    4.5460 C.2       1 8Z1        -0.0354
     13 CAK       -39.0120   67.3620    5.1970 C.3       1 8Z1        -0.0459
     14 CAQ       -38.9190   66.6540    6.6240 C.3       1 8Z1        -0.1054
     15 CAS       -38.2860   65.2350    6.6070 C.3       1 8Z1        -0.0801
     16 CAR       -38.2100   67.4950    7.7160 C.3       1 8Z1        -0.0801
     17 CAD       -39.4630   68.7790    5.2790 C.ar      1 8Z1        -0.0973
     18 CAC       -39.0520   69.7870    4.3670 C.ar      1 8Z1        -0.0243
     19 CAE       -40.3830   69.2050    6.2790 C.ar      1 8Z1        -0.0498
     20 CAF       -40.8460   70.5280    6.4000 C.ar      1 8Z1         0.0459
     21 CAG       -41.7700   70.8890    7.4250 C.3       1 8Z1         0.3762
     22 FAI       -41.6530   72.2240    7.7710 F         1 8Z1        -0.2202
     23 FAJ       -41.5730   70.1320    8.5820 F         1 8Z1        -0.2202
     24 FAH       -43.0440   70.6700    6.9710 F         1 8Z1        -0.2202
     25 CAB       -40.3950   71.4780    5.4780 C.ar      1 8Z1        -0.0060
     26 CAA       -39.4960   71.1200    4.4680 C.ar      1 8Z1         0.0772
     27 NBA       -39.0720   72.0550    3.5990 N.pl3     1 8Z1        -0.3023
     28 CBB       -37.6750   72.2360    3.0900 C.3       1 8Z1         0.0272
     29 CBC       -37.5990   73.6540    2.5350 C.3       1 8Z1        -0.0315
     30 CBD       -38.9310   74.2910    2.8690 C.3       1 8Z1        -0.0315
     31 CBE       -39.8820   73.1140    2.9260 C.3       1 8Z1         0.0272
     32 H1        -40.5640   64.3255    2.1824 H         1 8Z1         0.2092
     33 H2        -41.7520   65.2468    3.1431 H         1 8Z1         0.2092
     34 H3        -34.5935   67.4966    3.7290 H         1 8Z1         0.2583
     35 H4        -36.8757   69.2392    6.1633 H         1 8Z1         0.0503
     36 H5        -35.6805   69.7423    4.9203 H         1 8Z1         0.0503
     37 H6        -35.2083   68.5720    6.1986 H         1 8Z1         0.0503
     38 H7        -39.9607   66.5273    6.9538 H         1 8Z1         0.0069
     39 H8        -38.2651   64.8306    7.6297 H         1 8Z1         0.0215
     40 H9        -37.2597   65.2959    6.2158 H         1 8Z1         0.0215
     41 H10       -38.8851   64.5739    5.9635 H         1 8Z1         0.0215
     42 H11       -38.6462   68.5045    7.7422 H         1 8Z1         0.0215
     43 H12       -37.1367   67.5653    7.4855 H         1 8Z1         0.0215
     44 H13       -38.3440   67.0122    8.6953 H         1 8Z1         0.0215
     45 H14       -38.3728   69.5213    3.5650 H         1 8Z1         0.0822
     46 H15       -40.7469   68.4688    6.9865 H         1 8Z1         0.0851
     47 H16       -40.7455   72.5015    5.5468 H         1 8Z1         0.0805
     48 H17       -37.4617   71.5050    2.2962 H         1 8Z1         0.0513
     49 H18       -36.9522   72.1090    3.9094 H         1 8Z1         0.0513
     50 H19       -37.4453   73.6329    1.4460 H         1 8Z1         0.0285
     51 H20       -36.7773   74.2095    3.0106 H         1 8Z1         0.0285
     52 H21       -39.2333   75.0030    2.0870 H         1 8Z1         0.0285
     53 H22       -38.8872   74.8082    3.8388 H         1 8Z1         0.0285
     54 H23       -40.7784   73.3591    3.5145 H         1 8Z1         0.0513
     55 H24       -40.1815   72.7993    1.9154 H         1 8Z1         0.0513
@<TRIPOS>BOND
     1    1    2 3  
     2    2    3 1  
     3    3    4 2  
     4    3   13 1  
     5    4    5 1  
     6    4    6 1  
     7    6    7 1  
     8    7    8 2  
     9    7   12 1  
    10    8    9 1  
    11    9   10 1  
    12   10   11 1  
    13   10   12 2  
    14   12   13 1  
    15   13   14 1  
    16   13   17 1  
    17   14   15 1  
    18   14   16 1  
    19   17   18 ar 
    20   17   19 ar 
    21   18   26 ar 
    22   19   20 ar 
    23   20   21 1  
    24   20   25 ar 
    25   21   22 1  
    26   21   23 1  
    27   21   24 1  
    28   25   26 ar 
    29   26   27 1  
    30   27   28 1  
    31   27   31 1  
    32   28   29 1  
    33   29   30 1  
    34   30   31 1  
    35    5   32 1  
    36    5   33 1  
    37    9   34 1  
    38   11   35 1  
    39   11   36 1  
    40   11   37 1  
    41   14   38 1  
    42   15   39 1  
    43   15   40 1  
    44   15   41 1  
    45   16   42 1  
    46   16   43 1  
    47   16   44 1  
    48   18   45 1  
    49   19   46 1  
    50   25   47 1  
    51   28   48 1  
    52   28   49 1  
    53   29   50 1  
    54   29   51 1  
    55   30   52 1  
    56   30   53 1  
    57   31   54 1  
    58   31   55 1  
@<TRIPOS>SUBSTRUCTURE
     1 8Z1         1

