### 
### Created by X-TOOL on Mon Sep 10 21:13:34 2018
### 

@<TRIPOS>MOLECULE
5v7t_ligand
   67    71     1     0     0
SMALL
GAST_HUCK


@<TRIPOS>ATOM
      1 C5        -16.7200    9.5200  -27.6480 C.3       1 91V        -0.0295
      2 C6        -18.0050    9.8900  -28.3980 C.3       1 91V         0.0144
      3 C7        -17.7390   10.8620  -29.5690 C.3       1 91V         0.0738
      4 C8        -16.2290   11.0920  -29.7960 C.3       1 91V         0.0144
      5 C13       -21.0710    9.5500  -30.8780 C.ar      1 91V        -0.0559
      6 C15       -22.7520    7.8490  -31.2130 C.ar      1 91V        -0.0685
      7 C17       -20.4140    7.3030  -31.3650 C.ar      1 91V        -0.0559
      8 C20       -15.6460    7.6450  -32.9520 C.ar      1 91V        -0.0681
      9 C21       -16.1070    7.6660  -34.2600 C.ar      1 91V        -0.0685
     10 C22       -17.3860    8.1330  -34.5320 C.ar      1 91V        -0.0681
     11 C24       -13.8620   11.4260  -22.9160 C.3       1 91V         0.0269
     12 C26       -11.8830   12.7450  -22.0940 C.2       1 91V         0.1495
     13 C28        -9.6400   12.8310  -21.1740 C.2       1 91V         0.0087
     14 C1        -13.9060   10.5040  -24.1350 C.3       1 91V        -0.0284
     15 C2        -15.0700   10.9120  -25.0350 C.3       1 91V        -0.0107
     16 C3        -14.8170   10.4070  -26.4590 C.3       1 91V        -0.0318
     17 N4        -15.9670   10.7410  -27.3140 N.4       1 91V         0.2354
     18 C9        -15.5500   11.5400  -28.4910 C.3       1 91V        -0.0295
     19 O10       -18.3830   10.4470  -30.7950 O.3       1 91V        -0.3484
     20 C11       -18.5860    9.0350  -31.0240 C.3       1 91V         0.1261
     21 C12       -20.0550    8.6240  -31.0970 C.ar      1 91V        -0.0032
     22 C14       -22.4070    9.1630  -30.9390 C.ar      1 91V        -0.0681
     23 C16       -21.7500    6.9160  -31.4270 C.ar      1 91V        -0.0681
     24 C18       -17.7290    8.5540  -32.1780 C.ar      1 91V        -0.0032
     25 C19       -16.4490    8.0870  -31.9110 C.ar      1 91V        -0.0559
     26 C23       -18.1900    8.5830  -33.4920 C.ar      1 91V        -0.0559
     27 N25       -12.7060   12.2960  -23.1150 N.pl3     1 91V        -0.3035
     28 C27       -10.5080   12.4050  -22.1370 C.2       1 91V         0.0027
     29 C29       -10.1560   13.6350  -20.1400 C.2       1 91V         0.1769
     30 N30        -9.6040   14.2030  -19.0810 N.2       1 91V        -0.2690
     31 N31       -10.5160   14.8510  -18.4480 N.2       1 91V        -0.2613
     32 C32       -11.6820   14.7260  -19.0410 C.2       1 91V         0.1483
     33 N33       -11.5030   13.9620  -20.1290 N.pl3     1 91V        -0.1205
     34 N34       -12.3630   13.5000  -21.1290 N.2       1 91V        -0.1401
     35 H1        -16.0999    8.8714  -28.2842 H         1 91V         0.0815
     36 H2        -16.9788    8.9860  -26.7218 H         1 91V         0.0815
     37 H3        -18.7016   10.3672  -27.6930 H         1 91V         0.0342
     38 H4        -18.4593    8.9710  -28.7969 H         1 91V         0.0342
     39 H5        -18.1772   11.8303  -29.2855 H         1 91V         0.0604
     40 H6        -16.0924   11.8707  -30.5608 H         1 91V         0.0342
     41 H7        -15.7679   10.1547  -30.1406 H         1 91V         0.0342
     42 H8        -20.8198   10.5813  -30.6581 H         1 91V         0.0561
     43 H9        -23.7942    7.5543  -31.2594 H         1 91V         0.0561
     44 H10       -19.6381    6.5637  -31.5281 H         1 91V         0.0561
     45 H11       -14.6476    7.2793  -32.7411 H         1 91V         0.0600
     46 H12       -15.4713    7.3192  -35.0667 H         1 91V         0.0561
     47 H13       -17.7555    8.1464  -35.5510 H         1 91V         0.0600
     48 H14       -13.7436   10.8370  -21.9946 H         1 91V         0.0514
     49 H15       -14.7840   12.0227  -22.8539 H         1 91V         0.0514
     50 H16        -8.5860   12.5588  -21.2043 H         1 91V         0.0760
     51 H17       -14.0444    9.4641  -23.8043 H         1 91V         0.0286
     52 H18       -12.9624   10.5886  -24.6939 H         1 91V         0.0286
     53 H19       -15.1585   12.0084  -25.0453 H         1 91V         0.0317
     54 H20       -16.0022   10.4724  -24.6505 H         1 91V         0.0317
     55 H21       -14.6791    9.3158  -26.4412 H         1 91V         0.0814
     56 H22       -13.9113   10.8845  -26.8611 H         1 91V         0.0814
     57 H23       -16.5847   11.3261  -26.7735 H         1 91V         0.2033
     58 H24       -15.8061   12.5938  -28.3071 H         1 91V         0.0815
     59 H25       -14.4610   11.4429  -28.6118 H         1 91V         0.0815
     60 H26       -18.1928    8.5268  -30.1312 H         1 91V         0.0921
     61 H27       -23.1860    9.8976  -30.7703 H         1 91V         0.0600
     62 H28       -22.0063    5.8850  -31.6426 H         1 91V         0.0600
     63 H29       -16.0785    8.0679  -30.8925 H         1 91V         0.0561
     64 H30       -19.1839    8.9596  -33.7050 H         1 91V         0.0561
     65 H31       -12.4882   12.5953  -24.0762 H         1 91V         0.1793
     66 H32       -10.1362   11.7908  -22.9558 H         1 91V         0.0717
     67 H33       -12.6227   15.1632  -18.7094 H         1 91V         0.1262
@<TRIPOS>BOND
     1    2    1 1  
     2    1   17 1  
     3    3    2 1  
     4    3    4 1  
     5   19    3 1  
     6    4   18 1  
     7   21    5 ar 
     8    5   22 ar 
     9   22    6 ar 
    10   23    6 ar 
    11   21    7 ar 
    12    7   23 ar 
    13    8    9 ar 
    14   25    8 ar 
    15    9   10 ar 
    16   10   26 ar 
    17   14   11 1  
    18   11   27 1  
    19   27   12 1  
    20   12   28 1  
    21   12   34 2  
    22   28   13 2  
    23   13   29 1  
    24   15   14 1  
    25   16   15 1  
    26   17   16 1  
    27   18   17 1  
    28   20   19 1  
    29   20   21 1  
    30   24   20 1  
    31   24   25 ar 
    32   24   26 ar 
    33   29   30 2  
    34   29   33 1  
    35   30   31 1  
    36   31   32 2  
    37   32   33 1  
    38   33   34 1  
    39    1   35 1  
    40    1   36 1  
    41    2   37 1  
    42    2   38 1  
    43    3   39 1  
    44    4   40 1  
    45    4   41 1  
    46    5   42 1  
    47    6   43 1  
    48    7   44 1  
    49    8   45 1  
    50    9   46 1  
    51   10   47 1  
    52   11   48 1  
    53   11   49 1  
    54   13   50 1  
    55   14   51 1  
    56   14   52 1  
    57   15   53 1  
    58   15   54 1  
    59   16   55 1  
    60   16   56 1  
    61   17   57 1  
    62   18   58 1  
    63   18   59 1  
    64   20   60 1  
    65   22   61 1  
    66   23   62 1  
    67   25   63 1  
    68   26   64 1  
    69   27   65 1  
    70   28   66 1  
    71   32   67 1  
@<TRIPOS>SUBSTRUCTURE
     1 91V         1

