### 
### Created by X-TOOL on Mon Sep 10 21:13:33 2018
### 

@<TRIPOS>MOLECULE
5v7w_ligand
   49    52     1     0     0
SMALL
GAST_HUCK


@<TRIPOS>ATOM
      1 C4        -36.3710   23.6650   22.9950 C.3       1 91J        -0.0075
      2 C5        -36.5520   23.4420   21.4820 C.3       1 91J        -0.0106
      3 C6        -36.7260   21.9410   21.2540 C.3       1 91J         0.0269
      4 C8        -35.5900   20.2590   19.8860 C.cat     1 91J         0.1971
      5 C10       -36.5460   18.1760   19.5170 C.2       1 91J         0.2333
      6 C13       -37.4870   14.5790   17.9540 C.3       1 91J         0.0362
      7 C15       -35.6110   14.6600   16.2940 C.3       1 91J        -0.0355
      8 C17       -36.0520   16.6690   17.7450 C.2       1 91J         0.0615
      9 C24       -37.8700   25.6190   21.3980 C.3       1 91J        -0.0318
     10 C1        -38.0760   26.9970   23.3870 C.3       1 91J        -0.0431
     11 N2        -37.7930   25.6520   22.8680 N.4       1 91J         0.2331
     12 C3        -36.4940   25.1540   23.3500 C.3       1 91J        -0.0318
     13 N7        -35.5110   21.3950   20.6520 N.pl3     1 91J        -0.3216
     14 N9        -36.4280   19.3150   20.2320 N.pl3     1 91J        -0.2182
     15 S11       -37.5920   16.8030   19.7870 S.3       1 91J         0.1175
     16 C12       -36.9920   15.9560   18.3800 C.2       1 91J         0.1217
     17 C14       -37.1010   14.3390   16.4900 C.3       1 91J        -0.0259
     18 C16       -35.3590   16.1640   16.4760 C.3       1 91J         0.0004
     19 C18       -35.7740   17.9660   18.3780 C.2       1 91J         0.1560
     20 C19       -34.8630   19.0170   18.0140 C.2       1 91J         0.2131
     21 O20       -34.1500   18.9250   17.0270 O.2       1 91J        -0.3881
     22 N21       -34.8040   20.1280   18.7800 N.am      1 91J        -0.2573
     23 C23       -37.7940   24.1640   20.9200 C.3       1 91J        -0.0075
     24 H1        -35.3761   23.3046   23.2953 H         1 91J         0.0320
     25 H2        -37.1444   23.1009   23.5369 H         1 91J         0.0320
     26 H3        -35.6572   23.8029   20.9537 H         1 91J         0.0325
     27 H4        -37.5782   21.7689   20.5801 H         1 91J         0.0533
     28 H5        -36.9136   21.4433   22.2168 H         1 91J         0.0533
     29 H6        -38.5809   14.5319   18.0591 H         1 91J         0.0661
     30 H7        -37.0241   13.8086   18.5881 H         1 91J         0.0661
     31 H8        -35.3062   14.3616   15.2801 H         1 91J         0.0298
     32 H9        -35.0194   14.1012   17.0341 H         1 91J         0.0298
     33 H10       -37.0312   26.1898   20.9730 H         1 91J         0.0814
     34 H11       -38.8205   26.0646   21.0696 H         1 91J         0.0814
     35 H12       -38.0106   26.9876   24.4850 H         1 91J         0.0777
     36 H13       -39.0881   27.3020   23.0827 H         1 91J         0.0777
     37 H14       -37.3412   27.7084   22.9820 H         1 91J         0.0777
     38 H15       -38.5054   25.0335   23.2230 H         1 91J         0.2030
     39 H16       -35.6808   25.7170   22.8687 H         1 91J         0.0814
     40 H17       -36.4317   25.2802   24.4410 H         1 91J         0.0814
     41 H18       -34.6035   21.8588   20.8014 H         1 91J         0.1793
     42 H19       -37.0119   19.4443   21.0706 H         1 91J         0.2406
     43 H20       -37.7048   14.9895   15.8402 H         1 91J         0.0319
     44 H21       -37.2866   13.2865   16.2296 H         1 91J         0.0319
     45 H22       -35.7560   16.7065   15.6053 H         1 91J         0.0482
     46 H23       -34.2768   16.3434   16.5576 H         1 91J         0.0482
     47 H24       -34.1749   20.8648   18.5322 H         1 91J         0.1811
     48 H25       -38.6970   23.6318   21.2537 H         1 91J         0.0320
     49 H26       -37.7463   24.1520   19.8211 H         1 91J         0.0320
@<TRIPOS>BOND
     1    2    1 1  
     2    1   12 1  
     3    2    3 1  
     4   23    2 1  
     5    3   13 1  
     6   13    4 ar 
     7    4   14 ar 
     8    4   22 ar 
     9   14    5 1  
    10    5   15 1  
    11    5   19 2  
    12   16    6 1  
    13    6   17 1  
    14    7   17 1  
    15   18    7 1  
    16    8   16 2  
    17    8   18 1  
    18   19    8 1  
    19    9   11 1  
    20    9   23 1  
    21   11   10 1  
    22   11   12 1  
    23   15   16 1  
    24   19   20 1  
    25   20   21 2  
    26   20   22 am 
    27    1   24 1  
    28    1   25 1  
    29    2   26 1  
    30    3   27 1  
    31    3   28 1  
    32    6   29 1  
    33    6   30 1  
    34    7   31 1  
    35    7   32 1  
    36    9   33 1  
    37    9   34 1  
    38   10   35 1  
    39   10   36 1  
    40   10   37 1  
    41   11   38 1  
    42   12   39 1  
    43   12   40 1  
    44   13   41 1  
    45   14   42 1  
    46   17   43 1  
    47   17   44 1  
    48   18   45 1  
    49   18   46 1  
    50   22   47 1  
    51   23   48 1  
    52   23   49 1  
@<TRIPOS>SUBSTRUCTURE
     1 91J         1

