### 
### Created by X-TOOL on Mon Sep 10 21:13:32 2018
### 

@<TRIPOS>MOLECULE
5v82_ligand
   50    54     1     0     0
SMALL
GAST_HUCK


@<TRIPOS>ATOM
      1 C9        -22.2780   34.8120   -1.0400 C.ar      1 96Y         0.0064
      2 C2        -21.2850   30.9530    0.0180 C.ar      1 96Y         0.0538
      3 C10       -22.6750   36.0760   -1.4610 C.ar      1 96Y         0.1320
      4 C6        -21.5570   32.5350   -1.6120 C.ar      1 96Y         0.0850
      5 C1        -21.4410   30.5130    1.4500 C.3       1 96Y        -0.0090
      6 C3        -20.7290   30.0990   -0.9170 C.ar      1 96Y         0.0421
      7 N4        -20.6070   30.4800   -2.1810 N.ar      1 96Y        -0.2790
      8 C5        -20.9970   31.6800   -2.5650 C.ar      1 96Y         0.0421
      9 N7        -21.6780   32.1630   -0.3460 N.ar      1 96Y        -0.2685
     10 C8        -21.9990   33.8670   -2.0160 C.ar      1 96Y         0.0646
     11 C11       -22.7740   36.3130   -2.8460 C.ar      1 96Y         0.0435
     12 C12       -22.4690   35.2920   -3.7530 C.ar      1 96Y         0.0108
     13 N13       -22.1080   34.1140   -3.3140 N.ar      1 96Y        -0.2996
     14 C14       -23.2110   37.6910   -2.9990 C.2       1 96Y         0.0363
     15 N15       -23.3610   38.1870   -1.8070 N.2       1 96Y        -0.1769
     16 N16       -23.0230   37.2430   -0.8350 N.pl3     1 96Y        -0.1286
     17 C17       -23.1460   37.4650    0.5380 C.ar      1 96Y         0.1735
     18 C18       -23.3300   38.7680    0.9940 C.ar      1 96Y        -0.0071
     19 C19       -23.4950   38.9800    2.3540 C.ar      1 96Y        -0.0550
     20 C20       -23.5060   37.8850    3.2100 C.ar      1 96Y        -0.0410
     21 C21       -23.3470   36.6130    2.6830 C.ar      1 96Y         0.0338
     22 N22       -23.1850   36.4400    1.3820 N.ar      1 96Y        -0.2697
     23 C23       -23.3860   35.4300    3.6150 C.3       1 96Y         0.1089
     24 C24       -23.8880   34.1740    2.8740 C.3       1 96Y        -0.0135
     25 N25       -23.9690   33.0410    3.8060 N.4       1 96Y         0.2291
     26 C26       -22.6340   32.7040    4.3170 C.3       1 96Y        -0.0278
     27 C27       -22.0670   33.9030    5.0830 C.3       1 96Y         0.0535
     28 C28       -22.0020   35.1490    4.1850 C.3       1 96Y         0.2723
     29 F29       -21.1150   34.9420    3.1270 F         1 96Y        -0.2023
     30 F30       -21.6160   36.2560    4.9490 F         1 96Y        -0.2023
     31 H1        -22.1896   34.5735    0.0137 H         1 96Y         0.0699
     32 H2        -21.0621   29.4863    1.5614 H         1 96Y         0.0436
     33 H3        -22.5045   30.5437    1.7293 H         1 96Y         0.0436
     34 H4        -20.8702   31.1875    2.1051 H         1 96Y         0.0436
     35 H5        -20.3916   29.1141   -0.6151 H         1 96Y         0.0862
     36 H6        -20.8857   31.9957   -3.5960 H         1 96Y         0.0874
     37 H7        -22.5319   35.4773   -4.8192 H         1 96Y         0.0830
     38 H8        -23.3814   38.2122   -3.9399 H         1 96Y         0.0765
     39 H9        -23.3439   39.6000    0.2992 H         1 96Y         0.0608
     40 H10       -23.6136   39.9845    2.7439 H         1 96Y         0.0693
     41 H11       -23.6374   38.0242    4.2770 H         1 96Y         0.0577
     42 H12       -24.0743   35.6565    4.4426 H         1 96Y         0.0601
     43 H13       -23.1900   33.9274    2.0604 H         1 96Y         0.0845
     44 H14       -24.8851   34.3726    2.4542 H         1 96Y         0.0845
     45 H15       -24.3524   32.2421    3.3256 H         1 96Y         0.2015
     46 H16       -24.5679   33.2880    4.5783 H         1 96Y         0.2015
     47 H17       -21.9697   32.4584    3.4754 H         1 96Y         0.0816
     48 H18       -22.7066   31.8382    4.9916 H         1 96Y         0.0816
     49 H19       -21.0534   33.6592    5.4339 H         1 96Y         0.0377
     50 H20       -22.7130   34.1159    5.9475 H         1 96Y         0.0377
@<TRIPOS>BOND
     1    1    3 ar 
     2   10    1 ar 
     3    2    5 1  
     4    2    6 ar 
     5    9    2 ar 
     6    3   11 ar 
     7    3   16 1  
     8    4    8 ar 
     9    4    9 ar 
    10    4   10 1  
    11    6    7 ar 
    12    7    8 ar 
    13   10   13 ar 
    14   11   12 ar 
    15   11   14 1  
    16   12   13 ar 
    17   14   15 2  
    18   15   16 1  
    19   16   17 1  
    20   17   18 ar 
    21   17   22 ar 
    22   18   19 ar 
    23   19   20 ar 
    24   20   21 ar 
    25   21   22 ar 
    26   21   23 1  
    27   23   24 1  
    28   23   28 1  
    29   24   25 1  
    30   25   26 1  
    31   26   27 1  
    32   27   28 1  
    33   28   29 1  
    34   28   30 1  
    35    1   31 1  
    36    5   32 1  
    37    5   33 1  
    38    5   34 1  
    39    6   35 1  
    40    8   36 1  
    41   12   37 1  
    42   14   38 1  
    43   18   39 1  
    44   19   40 1  
    45   20   41 1  
    46   23   42 1  
    47   24   43 1  
    48   24   44 1  
    49   25   45 1  
    50   25   46 1  
    51   26   47 1  
    52   26   48 1  
    53   27   49 1  
    54   27   50 1  
@<TRIPOS>SUBSTRUCTURE
     1 96Y         1

