### 
### Created by X-TOOL on Mon Sep 10 21:13:31 2018
### 

@<TRIPOS>MOLECULE
5v83_ligand
   50    52     1     0     0
SMALL
GAST_HUCK


@<TRIPOS>ATOM
      1 C4          1.3850    9.3400  -10.8320 C.3       1 8Z7         0.0105
      2 C14         1.7670    7.9070  -14.1210 C.3       1 8Z7         0.0020
      3 C5          0.3710    8.4330  -10.4480 C.3       1 8Z7         0.0525
      4 C6          0.1920    9.0240   -7.8390 C.2       1 8Z7         0.2876
      5 C11         0.9720   10.3390   -3.6320 C.ar      1 8Z7         0.0333
      6 C7         -0.3990    9.4860   -5.3910 C.ar      1 8Z7         0.0953
      7 C8         -1.2680    8.9260   -4.4400 C.ar      1 8Z7        -0.0115
      8 C9         -1.0240    9.0860   -3.0940 C.ar      1 8Z7        -0.0435
      9 C10         0.0940    9.7780   -2.6800 C.ar      1 8Z7        -0.0452
     10 C12         0.7350   10.1850   -4.9720 C.ar      1 8Z7        -0.0127
     11 C13         2.2340   11.1130   -3.1740 C.3       1 8Z7         0.3726
     12 N1          1.2240    8.2850  -13.0930 N.4       1 8Z7         0.2473
     13 N2         -0.4020    8.7270   -9.1370 N.am      1 8Z7        -0.2645
     14 C3          2.1210    8.7900  -12.0640 C.3       1 8Z7        -0.0284
     15 N3         -0.7240    9.2260   -6.7750 N.am      1 8Z7        -0.2138
     16 F3          2.1930   12.3470   -3.7100 F         1 8Z7        -0.2209
     17 F1          3.3570   10.4830   -3.6030 F         1 8Z7        -0.2209
     18 F2          2.2630   11.2040   -1.8510 F         1 8Z7        -0.2209
     19 O           1.3930    9.1220   -7.6600 O.2       1 8Z7        -0.3905
     20 C1         -0.5700    8.1280  -11.5140 C.3       1 8Z7         0.0105
     21 C2          0.1810    7.4360  -12.6480 C.3       1 8Z7        -0.0284
     22 C15         2.7790    6.7310  -13.9660 C.ar      1 8Z7         0.0014
     23 C20         2.3370    5.4010  -13.9980 C.ar      1 8Z7        -0.0553
     24 C19         3.2730    4.3750  -13.8620 C.ar      1 8Z7        -0.0684
     25 C18         4.6500    4.6690  -13.7220 C.ar      1 8Z7        -0.0687
     26 C17         5.1080    5.9970  -13.7060 C.ar      1 8Z7        -0.0684
     27 C16         4.1660    7.0090  -13.8290 C.ar      1 8Z7        -0.0553
     28 H1          2.0982    9.4654  -10.0040 H         1 8Z7         0.0339
     29 H2          0.9338   10.3126  -11.0778 H         1 8Z7         0.0339
     30 H3          2.3086    8.7629  -14.5500 H         1 8Z7         0.0980
     31 H4          0.9800    7.5842  -14.8184 H         1 8Z7         0.0980
     32 H5          0.9111    7.4951  -10.2517 H         1 8Z7         0.0557
     33 H6         -2.1356    8.3647   -4.7674 H         1 8Z7         0.0758
     34 H7         -1.7081    8.6696   -2.3634 H         1 8Z7         0.0663
     35 H8          0.2991    9.8915   -1.6216 H         1 8Z7         0.0740
     36 H9          1.4211   10.6017   -5.7005 H         1 8Z7         0.0709
     37 H10         0.7318    9.1146  -13.3854 H         1 8Z7         0.2048
     38 H11        -1.4007    8.7115   -9.1860 H         1 8Z7         0.1855
     39 H12         2.7782    7.9694  -11.7405 H         1 8Z7         0.0815
     40 H13         2.7291    9.5980  -12.4969 H         1 8Z7         0.0815
     41 H14        -1.6959    9.1841   -7.0066 H         1 8Z7         0.2257
     42 H15        -1.0235    9.0590  -11.8847 H         1 8Z7         0.0339
     43 H16        -1.3584    7.4626  -11.1324 H         1 8Z7         0.0339
     44 H17         0.6057    6.4883  -12.2853 H         1 8Z7         0.0815
     45 H18        -0.5104    7.2337  -13.4792 H         1 8Z7         0.0815
     46 H19         1.2850    5.1732  -14.1263 H         1 8Z7         0.0558
     47 H20         2.9420    3.3428  -13.8636 H         1 8Z7         0.0599
     48 H21         5.3621    3.8574  -13.6257 H         1 8Z7         0.0559
     49 H22         6.1628    6.2240  -13.6010 H         1 8Z7         0.0599
     50 H23         4.4978    8.0410  -13.8203 H         1 8Z7         0.0558
@<TRIPOS>BOND
     1    1    3 1  
     2   14    1 1  
     3   12    2 1  
     4    2   22 1  
     5    3   13 1  
     6    3   20 1  
     7   13    4 am 
     8    4   15 am 
     9    4   19 2  
    10    5    9 ar 
    11   10    5 ar 
    12    5   11 1  
    13    6    7 ar 
    14    6   10 ar 
    15   15    6 1  
    16    7    8 ar 
    17    8    9 ar 
    18   11   16 1  
    19   11   17 1  
    20   11   18 1  
    21   12   14 1  
    22   12   21 1  
    23   20   21 1  
    24   22   23 ar 
    25   22   27 ar 
    26   23   24 ar 
    27   24   25 ar 
    28   25   26 ar 
    29   26   27 ar 
    30    1   28 1  
    31    1   29 1  
    32    2   30 1  
    33    2   31 1  
    34    3   32 1  
    35    7   33 1  
    36    8   34 1  
    37    9   35 1  
    38   10   36 1  
    39   12   37 1  
    40   13   38 1  
    41   14   39 1  
    42   14   40 1  
    43   15   41 1  
    44   20   42 1  
    45   20   43 1  
    46   21   44 1  
    47   21   45 1  
    48   23   46 1  
    49   24   47 1  
    50   25   48 1  
    51   26   49 1  
    52   27   50 1  
@<TRIPOS>SUBSTRUCTURE
     1 8Z7         1

