### 
### Created by X-TOOL on Mon Sep 10 21:13:33 2018
### 

@<TRIPOS>MOLECULE
5v84_ligand
   65    68     1     0     0
SMALL
GAST_HUCK


@<TRIPOS>ATOM
      1 C4         29.3970   39.6990   30.8490 C.2       1 96V        -0.0412
      2 C14        33.7340   37.4410   31.9360 C.2       1 96V        -0.0578
      3 C5         29.5750   38.3270   30.2780 C.2       1 96V         0.0424
      4 C6         30.8660   37.8440   30.2260 C.2       1 96V         0.0702
      5 C8         31.8330   39.8590   31.0700 C.2       1 96V         0.2331
      6 C10        30.5420   40.4500   31.1980 C.2       1 96V         0.1164
      7 C13        33.2660   37.9210   30.5750 C.3       1 96V         0.0947
      8 C3         28.2870   40.5070   31.1720 C.2       1 96V        -0.0740
      9 C1         27.8840   42.8240   32.1240 C.3       1 96V        -0.0082
     10 C15        32.9900   37.3620   33.0160 C.2       1 96V        -0.1148
     11 C16        28.4700   37.4590   29.7580 C.2       1 96V         0.1755
     12 C19        27.6740   37.0080   32.0350 C.3       1 96V         0.0213
     13 C2         28.7420   41.6690   31.6810 C.2       1 96V         0.0352
     14 C20        26.5360   35.8840   30.1070 C.3       1 96V         0.0527
     15 C21        25.6890   36.2690   28.8830 C.3       1 96V         0.0107
     16 C22        24.6850   35.1680   28.4840 C.3       1 96V        -0.0281
     17 C24        26.1610   33.4840   29.6220 C.3       1 96V        -0.0281
     18 C25        27.2280   34.5530   29.8100 C.3       1 96V         0.0107
     19 C26        24.0400   32.7900   28.5430 C.3       1 96V         0.0100
     20 C27        24.3390   31.4410   27.8640 C.3       1 96V        -0.0114
     21 C28        23.3600   32.6280   29.8940 C.ar      1 96V         0.0042
     22 C29        23.9480   31.9000   30.9290 C.ar      1 96V        -0.0550
     23 C30        23.3290   31.8190   32.1670 C.ar      1 96V        -0.0684
     24 C31        22.1130   32.4550   32.3730 C.ar      1 96V        -0.0687
     25 C32        21.5260   33.1890   31.3450 C.ar      1 96V        -0.0684
     26 C33        22.1470   33.2700   30.1060 C.ar      1 96V        -0.0550
     27 N11        30.0970   41.6590   31.6810 N.pl3     1 96V        -0.2810
     28 N18        27.5700   36.8390   30.5740 N.am      1 96V        -0.2791
     29 N23        25.1770   33.7670   28.5410 N.4       1 96V         0.2492
     30 N7         31.9510   38.5740   30.6300 N.am      1 96V        -0.1988
     31 O17        28.4050   37.2780   28.5530 O.2       1 96V        -0.4071
     32 O9         32.8250   40.5000   31.4150 O.2       1 96V        -0.4109
     33 H1         34.7756   37.1359   32.0254 H         1 96V         0.0701
     34 H2         31.0293   36.8364   29.8464 H         1 96V         0.1172
     35 H3         33.2021   37.0559   29.8986 H         1 96V         0.0814
     36 H4         34.0005   38.6397   30.1827 H         1 96V         0.0814
     37 H5         27.2409   40.2379   31.0337 H         1 96V         0.0176
     38 H6         28.5260   43.6363   32.4954 H         1 96V         0.0424
     39 H7         27.2098   42.4929   32.9277 H         1 96V         0.0424
     40 H8         27.2893   43.1867   31.2727 H         1 96V         0.0424
     41 H9         33.4213   37.0030   33.9493 H         1 96V         0.0291
     42 H10        31.9420   37.6555   32.9779 H         1 96V         0.0291
     43 H11        28.4676   37.7343   32.2645 H         1 96V         0.0484
     44 H12        27.9165   36.0409   32.4997 H         1 96V         0.0484
     45 H13        26.7155   37.3749   32.4308 H         1 96V         0.0484
     46 H14        25.8359   35.7406   30.9432 H         1 96V         0.0560
     47 H15        26.3625   36.4557   28.0336 H         1 96V         0.0339
     48 H16        25.1300   37.1871   29.1165 H         1 96V         0.0339
     49 H17        24.3642   35.3673   27.4509 H         1 96V         0.0815
     50 H18        23.8193   35.2454   29.1582 H         1 96V         0.0815
     51 H19        25.6095   33.3808   30.5682 H         1 96V         0.0815
     52 H20        26.6650   32.5352   29.3860 H         1 96V         0.0815
     53 H21        27.8826   34.2797   30.6507 H         1 96V         0.0339
     54 H22        27.8279   34.6435   28.8924 H         1 96V         0.0339
     55 H23        23.2791   33.2591   27.9019 H         1 96V         0.1014
     56 H24        23.4480   30.7982   27.9175 H         1 96V         0.0307
     57 H25        25.1774   30.9491   28.3790 H         1 96V         0.0307
     58 H26        24.6052   31.6118   26.8105 H         1 96V         0.0307
     59 H27        24.8932   31.3954   30.7644 H         1 96V         0.0559
     60 H28        23.7936   31.2605   32.9716 H         1 96V         0.0599
     61 H29        21.6193   32.3805   33.3352 H         1 96V         0.0559
     62 H30        20.5834   33.6975   31.5126 H         1 96V         0.0599
     63 H31        21.6850   33.8344   29.3040 H         1 96V         0.0559
     64 H32        30.6989   42.4343   31.9933 H         1 96V         0.2278
     65 H33        25.6753   33.6184   27.6775 H         1 96V         0.2051
@<TRIPOS>BOND
     1    3    1 1  
     2    1    6 2  
     3    1    8 1  
     4    7    2 1  
     5    2   10 2  
     6    3    4 2  
     7   11    3 1  
     8    4   30 1  
     9    6    5 1  
    10   30    5 am 
    11    5   32 2  
    12    6   27 1  
    13   30    7 1  
    14    8   13 2  
    15   13    9 1  
    16   28   11 am 
    17   11   31 2  
    18   28   12 1  
    19   13   27 1  
    20   15   14 1  
    21   18   14 1  
    22   14   28 1  
    23   16   15 1  
    24   29   16 1  
    25   17   18 1  
    26   29   17 1  
    27   19   20 1  
    28   19   21 1  
    29   19   29 1  
    30   21   22 ar 
    31   21   26 ar 
    32   22   23 ar 
    33   23   24 ar 
    34   24   25 ar 
    35   25   26 ar 
    36    2   33 1  
    37    4   34 1  
    38    7   35 1  
    39    7   36 1  
    40    8   37 1  
    41    9   38 1  
    42    9   39 1  
    43    9   40 1  
    44   10   41 1  
    45   10   42 1  
    46   12   43 1  
    47   12   44 1  
    48   12   45 1  
    49   14   46 1  
    50   15   47 1  
    51   15   48 1  
    52   16   49 1  
    53   16   50 1  
    54   17   51 1  
    55   17   52 1  
    56   18   53 1  
    57   18   54 1  
    58   19   55 1  
    59   20   56 1  
    60   20   57 1  
    61   20   58 1  
    62   22   59 1  
    63   23   60 1  
    64   24   61 1  
    65   25   62 1  
    66   26   63 1  
    67   27   64 1  
    68   29   65 1  
@<TRIPOS>SUBSTRUCTURE
     1 96V         1

