### 
### Created by X-TOOL on Mon Sep 10 21:13:31 2018
### 

@<TRIPOS>MOLECULE
5v86_ligand
   59    61     1     0     0
SMALL
GAST_HUCK


@<TRIPOS>ATOM
      1 C4         12.6020   -8.8930  -13.4680 C.3       1 8ZA        -0.0319
      2 C14        16.1110  -14.8130  -11.1340 C.ar      1 8ZA        -0.0687
      3 C5         14.4540   -8.4560  -12.2550 C.3       1 8ZA        -0.0298
      4 C6         15.4810   -9.1980  -11.4130 C.3       1 8ZA         0.0109
      5 C11        16.7790  -12.2240  -10.1560 C.ar      1 8ZA        -0.0209
      6 C7         14.8130   -9.7690  -10.2380 C.3       1 8ZA         0.0577
      7 C8         13.7730  -10.6950  -10.5510 C.3       1 8ZA         0.0109
      8 C9         12.7870   -9.9590  -11.4800 C.3       1 8ZA        -0.0298
      9 C10        17.1350  -10.8090   -9.6370 C.3       1 8ZA         0.0687
     10 C12        17.1840  -12.6330  -11.4240 C.ar      1 8ZA        -0.0584
     11 C13        16.8540  -13.9240  -11.9120 C.ar      1 8ZA        -0.0685
     12 N1         13.4130   -9.3500  -12.6460 N.4       1 8ZA         0.2353
     13 N2         15.8610  -10.2290   -9.1930 N.am      1 8ZA        -0.2395
     14 C3         11.8480   -7.6410  -12.9500 C.3       1 8ZA        -0.0128
     15 N3         16.5770  -10.4480   -6.9840 N.am      1 8ZA        -0.2190
     16 C1          9.9260   -6.0760  -13.0980 C.3       1 8ZA        -0.0651
     17 C2         10.6070   -7.2680  -13.7670 C.3       1 8ZA        -0.0511
     18 C15        15.6720  -14.4310   -9.8660 C.ar      1 8ZA        -0.0685
     19 C16        16.0070  -13.1240   -9.3960 C.ar      1 8ZA        -0.0584
     20 C17        15.5560  -10.1430   -7.9070 C.2       1 8ZA         0.2921
     21 O          14.4620   -9.7890   -7.5250 O.2       1 8ZA        -0.3900
     22 C18        16.4210  -10.5470   -5.5680 C.ar      1 8ZA         0.0675
     23 C23        15.2680  -11.1570   -5.0830 C.ar      1 8ZA        -0.0271
     24 C22        15.1400  -11.3000   -3.7150 C.ar      1 8ZA         0.0407
     25 CL2        13.7300  -12.0540   -3.0540 Cl        1 8ZA        -0.0741
     26 C21        16.1320  -10.8940   -2.8500 C.ar      1 8ZA         0.0376
     27 CL1        15.8740  -11.1340   -1.1510 Cl        1 8ZA        -0.0843
     28 C20        17.3050  -10.3140   -3.3750 C.ar      1 8ZA        -0.0613
     29 C19        17.4680  -10.1270   -4.7460 C.ar      1 8ZA        -0.0407
     30 H1         11.8635   -9.6740  -13.7020 H         1 8ZA         0.0814
     31 H2         13.1480   -8.6188  -14.3827 H         1 8ZA         0.0814
     32 H3         15.8750  -15.8001  -11.5148 H         1 8ZA         0.0559
     33 H4         14.9427   -8.0496  -13.1528 H         1 8ZA         0.0815
     34 H5         14.0254   -7.6318  -11.6659 H         1 8ZA         0.0815
     35 H6         16.2656   -8.4990  -11.0877 H         1 8ZA         0.0339
     36 H7         15.9327  -10.0049  -12.0087 H         1 8ZA         0.0339
     37 H8         14.2896   -8.9269   -9.7617 H         1 8ZA         0.0562
     38 H9         13.2606  -11.0142   -9.6315 H         1 8ZA         0.0339
     39 H10        14.1904  -11.5748  -11.0625 H         1 8ZA         0.0339
     40 H11        12.2915   -9.1664  -10.9001 H         1 8ZA         0.0815
     41 H12        12.0354  -10.6823  -11.8293 H         1 8ZA         0.0815
     42 H13        17.5750  -10.2023  -10.4422 H         1 8ZA         0.0684
     43 H14        17.8429  -10.8730   -8.7975 H         1 8ZA         0.0684
     44 H15        17.7587  -11.9565  -12.0462 H         1 8ZA         0.0557
     45 H16        17.1829  -14.2232  -12.9006 H         1 8ZA         0.0599
     46 H17        13.8754  -10.1028  -13.1312 H         1 8ZA         0.2033
     47 H18        12.5424   -6.7881  -12.9700 H         1 8ZA         0.0317
     48 H19        11.5329   -7.8331  -11.9138 H         1 8ZA         0.0317
     49 H20        17.4920  -10.6094   -7.3538 H         1 8ZA         0.2258
     50 H21         9.0314   -5.7947  -13.6729 H         1 8ZA         0.0230
     51 H22        10.6233   -5.2259  -13.0657 H         1 8ZA         0.0230
     52 H23         9.6327   -6.3488  -12.0735 H         1 8ZA         0.0230
     53 H24         9.9136   -8.1214  -13.7990 H         1 8ZA         0.0264
     54 H25        10.9043   -6.9985  -14.7912 H         1 8ZA         0.0264
     55 H26        15.0907  -15.1095   -9.2521 H         1 8ZA         0.0599
     56 H27        15.6542  -12.8138   -8.4191 H         1 8ZA         0.0557
     57 H28        14.4952  -11.5086   -5.7570 H         1 8ZA         0.0507
     58 H29        18.0951  -10.0077   -2.6990 H         1 8ZA         0.0583
     59 H30        18.3653   -9.6767   -5.1549 H         1 8ZA         0.0504
@<TRIPOS>BOND
     1   12    1 1  
     2    1   14 1  
     3   11    2 ar 
     4    2   18 ar 
     5    4    3 1  
     6    3   12 1  
     7    6    4 1  
     8    5    9 1  
     9   10    5 ar 
    10    5   19 ar 
    11    6    7 1  
    12   13    6 1  
    13    7    8 1  
    14    8   12 1  
    15    9   13 1  
    16   10   11 ar 
    17   13   20 am 
    18   14   17 1  
    19   20   15 am 
    20   15   22 1  
    21   17   16 1  
    22   18   19 ar 
    23   20   21 2  
    24   22   23 ar 
    25   22   29 ar 
    26   23   24 ar 
    27   24   25 1  
    28   24   26 ar 
    29   26   27 1  
    30   26   28 ar 
    31   28   29 ar 
    32    1   30 1  
    33    1   31 1  
    34    2   32 1  
    35    3   33 1  
    36    3   34 1  
    37    4   35 1  
    38    4   36 1  
    39    6   37 1  
    40    7   38 1  
    41    7   39 1  
    42    8   40 1  
    43    8   41 1  
    44    9   42 1  
    45    9   43 1  
    46   10   44 1  
    47   11   45 1  
    48   12   46 1  
    49   14   47 1  
    50   14   48 1  
    51   15   49 1  
    52   16   50 1  
    53   16   51 1  
    54   16   52 1  
    55   17   53 1  
    56   17   54 1  
    57   18   55 1  
    58   19   56 1  
    59   23   57 1  
    60   28   58 1  
    61   29   59 1  
@<TRIPOS>SUBSTRUCTURE
     1 8ZA         1

