### 
### Created by X-TOOL on Mon Sep 10 21:13:31 2018
### 

@<TRIPOS>MOLECULE
5v88_ligand
   75    77     1     0     0
SMALL
GAST_HUCK


@<TRIPOS>ATOM
      1 FBI         3.4210   10.1830   -3.6050 F         1 8ZD        -0.2209
      2 CBH         2.2620   10.7220   -3.1580 C.3       1 8ZD         0.3726
      3 FBJ         2.1280   12.0070   -3.6040 F         1 8ZD        -0.2209
      4 FBK         2.3240   10.8200   -1.8800 F         1 8ZD        -0.2209
      5 CBF         1.0760    9.9650   -3.6640 C.ar      1 8ZD         0.0333
      6 CBG         0.9250    9.8340   -5.0040 C.ar      1 8ZD        -0.0127
      7 CBE         0.1020    9.4290   -2.7810 C.ar      1 8ZD        -0.0452
      8 CBD        -0.9810    8.7760   -3.2780 C.ar      1 8ZD        -0.0435
      9 CBC        -1.1420    8.6330   -4.6740 C.ar      1 8ZD        -0.0115
     10 CBB        -0.2040    9.1170   -5.5100 C.ar      1 8ZD         0.0953
     11 NBA        -0.4320    8.9900   -6.9420 N.am      1 8ZD        -0.2135
     12 CAY         0.6070    8.7140   -7.8540 C.2       1 8ZD         0.2918
     13 OAZ         1.7220    8.4470   -7.4970 O.2       1 8ZD        -0.3902
     14 NAL         0.2380    8.7260   -9.2600 N.am      1 8ZD        -0.2418
     15 CAI         1.3240    8.2800  -10.2920 C.3       1 8ZD         0.0574
     16 CAJ         1.5100    9.1010  -11.3760 C.3       1 8ZD         0.0109
     17 CAK         2.5330    8.3860  -12.2710 C.3       1 8ZD        -0.0295
     18 CAH         0.8500    6.9450  -10.6730 C.3       1 8ZD         0.0109
     19 CAG         1.5740    6.2960  -11.8360 C.3       1 8ZD        -0.0295
     20 NAF         1.9620    7.2170  -12.8340 N.4       1 8ZD         0.2373
     21 CAD         2.8000    6.7390  -13.7270 C.3       1 8ZD        -0.0238
     22 CAE         2.1480    5.7450  -14.7540 C.3       1 8ZD        -0.0216
     23 CAC         4.0190    6.0840  -12.9940 C.3       1 8ZD        -0.0102
     24 CAB         5.1290    5.5410  -13.9660 C.3       1 8ZD        -0.0508
     25 CAA         5.4800    4.1360  -13.5510 C.3       1 8ZD        -0.0651
     26 CAM        -1.1080    9.0970   -9.6030 C.3       1 8ZD         0.0650
     27 CAN        -1.1370   10.6390  -10.0640 C.ar      1 8ZD         0.0009
     28 CAO        -0.0350   11.4290   -9.9830 C.ar      1 8ZD        -0.0716
     29 CAP        -0.0890   12.7920  -10.4210 C.ar      1 8ZD        -0.0839
     30 CAQ        -1.2190   13.3120  -10.8920 C.ar      1 8ZD        -0.0825
     31 CAR        -2.3730   12.5100  -10.9620 C.ar      1 8ZD        -0.0474
     32 CAS        -2.3050   11.1900  -10.5670 C.ar      1 8ZD         0.0707
     33 NAT        -3.4790   10.3170  -10.5910 N.am      1 8ZD        -0.2369
     34 CAU        -3.6530    9.3680  -11.6340 C.2       1 8ZD         0.2016
     35 OAV        -2.8160    9.3110  -12.5480 O.2       1 8ZD        -0.3858
     36 CAW        -4.7730    8.4640  -11.5270 C.3       1 8ZD         0.0400
     37 CAX        -4.3740    7.1870  -10.9400 C.3       1 8ZD        -0.0477
     38 H1          1.6503   10.2669   -5.6834 H         1 8ZD         0.0709
     39 H2          0.2224    9.5408   -1.7095 H         1 8ZD         0.0740
     40 H3         -1.7222    8.3644   -2.6025 H         1 8ZD         0.0663
     41 H4         -2.0188    8.1347   -5.0714 H         1 8ZD         0.0758
     42 H5         -1.3617    9.1029   -7.2925 H         1 8ZD         0.2257
     43 H6          2.2939    8.1994   -9.7794 H         1 8ZD         0.0561
     44 H7          1.8993   10.0782  -11.0542 H         1 8ZD         0.0339
     45 H8          0.5622    9.2436  -11.9158 H         1 8ZD         0.0339
     46 H9          3.4102    8.1074  -11.6686 H         1 8ZD         0.0815
     47 H10         2.8439    9.0637  -13.0798 H         1 8ZD         0.0815
     48 H11        -0.2135    7.0281  -10.9413 H         1 8ZD         0.0339
     49 H12         0.9572    6.2863   -9.7986 H         1 8ZD         0.0339
     50 H13         0.9065    5.5490  -12.2903 H         1 8ZD         0.0815
     51 H14         2.4756    5.7966  -11.4517 H         1 8ZD         0.0815
     52 H15         1.1224    7.4852  -13.3230 H         1 8ZD         0.2036
     53 H16         3.1778    7.5932  -14.3080 H         1 8ZD         0.0848
     54 H17         2.9138    5.3943  -15.4615 H         1 8ZD         0.0284
     55 H18         1.3478    6.2602  -15.3055 H         1 8ZD         0.0284
     56 H19         1.7260    4.8845  -14.2142 H         1 8ZD         0.0284
     57 H20         3.6484    5.2443  -12.3877 H         1 8ZD         0.0320
     58 H21         4.4739    6.8388  -12.3358 H         1 8ZD         0.0320
     59 H22         6.0219    6.1804  -13.9042 H         1 8ZD         0.0265
     60 H23         4.7499    5.5394  -14.9986 H         1 8ZD         0.0265
     61 H24         6.2567    3.7390  -14.2212 H         1 8ZD         0.0230
     62 H25         4.5838    3.5010  -13.6117 H         1 8ZD         0.0230
     63 H26         5.8558    4.1421  -12.5172 H         1 8ZD         0.0230
     64 H27        -1.7599    8.9636   -8.7271 H         1 8ZD         0.0654
     65 H28        -1.4654    8.4611  -10.4264 H         1 8ZD         0.0654
     66 H29         0.8895   11.0263   -9.5852 H         1 8ZD         0.0513
     67 H30         0.8020   13.4071  -10.3679 H         1 8ZD         0.0470
     68 H31        -1.2506   14.3450  -11.2192 H         1 8ZD         0.0520
     69 H32        -3.3069   12.9255  -11.3230 H         1 8ZD         0.0480
     70 H33        -4.1650   10.3889   -9.8669 H         1 8ZD         0.2235
     71 H34        -5.1841    8.2832  -12.5311 H         1 8ZD         0.0504
     72 H35        -5.5447    8.9239  -10.8922 H         1 8ZD         0.0504
     73 H36        -5.2496    6.5245  -10.8736 H         1 8ZD         0.0254
     74 H37        -3.9663    7.3579   -9.9327 H         1 8ZD         0.0254
     75 H38        -3.6058    6.7171  -11.5717 H         1 8ZD         0.0254
@<TRIPOS>BOND
     1    1    2 1  
     2    2    3 1  
     3    2    4 1  
     4    2    5 1  
     5    5    6 ar 
     6    5    7 ar 
     7    6   10 ar 
     8    7    8 ar 
     9    8    9 ar 
    10    9   10 ar 
    11   10   11 1  
    12   11   12 am 
    13   12   13 2  
    14   12   14 am 
    15   14   15 1  
    16   14   26 1  
    17   15   16 1  
    18   15   18 1  
    19   16   17 1  
    20   17   20 1  
    21   18   19 1  
    22   19   20 1  
    23   20   21 1  
    24   21   22 1  
    25   21   23 1  
    26   23   24 1  
    27   24   25 1  
    28   26   27 1  
    29   27   28 ar 
    30   27   32 ar 
    31   28   29 ar 
    32   29   30 ar 
    33   30   31 ar 
    34   31   32 ar 
    35   32   33 1  
    36   33   34 am 
    37   34   35 2  
    38   34   36 1  
    39   36   37 1  
    40    6   38 1  
    41    7   39 1  
    42    8   40 1  
    43    9   41 1  
    44   11   42 1  
    45   15   43 1  
    46   16   44 1  
    47   16   45 1  
    48   17   46 1  
    49   17   47 1  
    50   18   48 1  
    51   18   49 1  
    52   19   50 1  
    53   19   51 1  
    54   20   52 1  
    55   21   53 1  
    56   22   54 1  
    57   22   55 1  
    58   22   56 1  
    59   23   57 1  
    60   23   58 1  
    61   24   59 1  
    62   24   60 1  
    63   25   61 1  
    64   25   62 1  
    65   25   63 1  
    66   26   64 1  
    67   26   65 1  
    68   28   66 1  
    69   29   67 1  
    70   30   68 1  
    71   31   69 1  
    72   33   70 1  
    73   36   71 1  
    74   36   72 1  
    75   37   73 1  
    76   37   74 1  
    77   37   75 1  
@<TRIPOS>SUBSTRUCTURE
     1 8ZD         1

