### 
### Created by X-TOOL on Mon Sep 10 21:13:34 2018
### 

@<TRIPOS>MOLECULE
5v8o_ligand
   23    25     1     0     0
SMALL
GAST_HUCK


@<TRIPOS>ATOM
      1 C4         44.3480    5.2900  -20.3430 C.ar      1 8ZM        -0.0094
      2 C7         44.2630    3.8280  -20.1370 C.2       1 8ZM        -0.0009
      3 C6         44.1460    7.2350  -21.7690 C.ar      1 8ZM        -0.0580
      4 C9         43.8170    1.5410  -20.9350 C.2       1 8ZM         0.2460
      5 C8         43.8270    2.9180  -21.1660 C.2       1 8ZM         0.0010
      6 C1         44.5270    8.0540  -20.7230 C.ar      1 8ZM        -0.0589
      7 C2         44.8200    7.5020  -19.4910 C.ar      1 8ZM        -0.0580
      8 C3         44.7360    6.1330  -19.2980 C.ar      1 8ZM        -0.0496
      9 C5         44.0590    5.8630  -21.5890 C.ar      1 8ZM        -0.0496
     10 N10        44.2270    1.1090  -19.6200 N.am      1 8ZM        -0.0216
     11 C11        44.6130    2.0400  -18.6810 C.2       1 8ZM         0.3247
     12 N12        44.6350    3.3680  -18.9440 N.2       1 8ZM        -0.2918
     13 N13        44.9270    1.3960  -17.5670 N.pl3     1 8ZM        -0.1245
     14 N14        44.7300    0.0750  -17.8350 N.2       1 8ZM        -0.0477
     15 N15        44.3160   -0.1270  -19.0500 N.2       1 8ZM        -0.0137
     16 O16        43.4810    0.5710  -21.8010 O.2       1 8ZM        -0.4038
     17 H1         43.9139    7.6677  -22.7354 H         1 8ZM         0.0625
     18 H2         43.5032    3.3070  -22.1302 H         1 8ZM         0.0335
     19 H3         44.5957    9.1260  -20.8688 H         1 8ZM         0.0641
     20 H4         45.1175    8.1444  -18.6701 H         1 8ZM         0.0625
     21 H5         44.9733    5.7117  -18.3278 H         1 8ZM         0.0651
     22 H6         43.7654    5.2290  -22.4178 H         1 8ZM         0.0651
     23 H7         45.2528    1.8087  -16.6813 H         1 8ZM         0.2628
@<TRIPOS>BOND
     1    1    2 1  
     2    1    8 ar 
     3    9    1 ar 
     4    2    5 2  
     5    2   12 1  
     6    3    6 ar 
     7    3    9 ar 
     8    5    4 1  
     9    4   10 am 
    10    4   16 2  
    11    6    7 ar 
    12    7    8 ar 
    13   10   11 am 
    14   10   15 1  
    15   11   12 2  
    16   11   13 1  
    17   13   14 1  
    18   14   15 2  
    19    3   17 1  
    20    5   18 1  
    21    6   19 1  
    22    7   20 1  
    23    8   21 1  
    24    9   22 1  
    25   13   23 1  
@<TRIPOS>SUBSTRUCTURE
     1 8ZM         1

