### 
### Created by X-TOOL on Mon Sep 10 21:13:33 2018
### 

@<TRIPOS>MOLECULE
5v8p_ligand
   27    28     1     0     0
SMALL
GAST_HUCK


@<TRIPOS>ATOM
      1 O15         4.7970  -41.3840  -21.3270 O.2       1 90G        -0.3825
      2 C14         4.7840  -41.3440  -22.5520 C.2       1 90G         0.2182
      3 C16         5.1090  -40.0870  -23.3200 C.3       1 90G         0.0869
      4 S17         3.6540  -39.0150  -23.3420 S.3       1 90G        -0.1559
      5 N13         4.4750  -42.3710  -23.3230 N.am      1 90G        -0.2050
      6 C10         3.9760  -43.4950  -22.7930 C.2       1 90G         0.1805
      7 C9          4.2640  -44.2200  -21.6560 C.2       1 90G        -0.0267
      8 N11         3.0110  -44.0650  -23.5190 N.pl3     1 90G        -0.2038
      9 N12         2.6300  -45.2180  -22.8170 N.2       1 90G        -0.2405
     10 C8          3.3970  -45.3060  -21.7010 C.2       1 90G         0.0120
     11 C3          3.3130  -46.3770  -20.6750 C.ar      1 90G        -0.0199
     12 C2          3.2870  -46.0410  -19.3260 C.ar      1 90G        -0.0549
     13 C4          3.2940  -47.7090  -21.0670 C.ar      1 90G        -0.0549
     14 C5          3.2210  -48.7120  -20.1070 C.ar      1 90G        -0.0482
     15 C6          3.1820  -48.3800  -18.7530 C.ar      1 90G         0.0397
     16 CL0         3.0940  -49.6710  -17.5000 Cl        1 90G        -0.0711
     17 C1          3.2170  -47.0420  -18.3640 C.ar      1 90G        -0.0482
     18 H1          5.3902  -40.3475  -24.3510 H         1 90G         0.0619
     19 H2          5.9449  -39.5635  -22.8330 H         1 90G         0.0619
     20 H3          2.8894  -39.4974  -23.7878 H         1 90G         0.1043
     21 H4          4.6149  -42.3086  -24.3112 H         1 90G         0.2325
     22 H5          5.0060  -43.9924  -20.8921 H         1 90G         0.0160
     23 H6          2.6252  -43.7270  -24.4122 H         1 90G         0.2501
     24 H7          3.3213  -45.0002  -19.0250 H         1 90G         0.0616
     25 H8          3.3360  -47.9662  -22.1192 H         1 90G         0.0616
     26 H9          3.1944  -49.7522  -20.4109 H         1 90G         0.0621
     27 H10         3.1897  -46.7822  -17.3120 H         1 90G         0.0621
@<TRIPOS>BOND
     1    1    2 2  
     2    2    3 1  
     3    2    5 am 
     4    3    4 1  
     5    5    6 1  
     6    6    7 2  
     7    6    8 1  
     8    7   10 1  
     9    8    9 1  
    10    9   10 2  
    11   10   11 1  
    12   11   12 ar 
    13   11   13 ar 
    14   12   17 ar 
    15   13   14 ar 
    16   14   15 ar 
    17   15   16 1  
    18   15   17 ar 
    19    3   18 1  
    20    3   19 1  
    21    4   20 1  
    22    5   21 1  
    23    7   22 1  
    24    8   23 1  
    25   12   24 1  
    26   13   25 1  
    27   14   26 1  
    28   17   27 1  
@<TRIPOS>SUBSTRUCTURE
     1 90G         1

