### 
### Created by X-TOOL on Mon Sep 10 21:13:31 2018
### 

@<TRIPOS>MOLECULE
5v8q_ligand
   34    35     1     0     0
SMALL
GAST_HUCK


@<TRIPOS>ATOM
      1 C5         29.4740   -0.5640    3.2510 C.3       1 97A         0.1009
      2 C8         28.1420   -1.2740    3.5870 C.3       1 97A         0.0727
      3 C13        28.0350    3.4410    3.8630 C.ar      1 97A        -0.0010
      4 C15        26.0870    4.8260    4.2000 C.ar      1 97A         0.1064
      5 C20        23.8280    3.7340    4.7170 C.3       1 97A         0.3786
      6 C1         29.2930    1.6830    6.3910 C.3       1 97A        -0.0626
      7 C2         29.7600    0.5220    5.5120 C.3       1 97A        -0.0243
      8 C3         29.3070    0.7430    4.0640 C.3       1 97A         0.0970
      9 O7         30.5790   -1.3630    3.6780 O.3       1 97A        -0.3866
     10 C9         27.1870   -0.1070    3.6770 C.2       1 97A         0.2126
     11 O10        25.9900   -0.2040    3.5190 O.2       1 97A        -0.3828
     12 N11        27.8630    1.0290    3.9690 N.am      1 97A        -0.2023
     13 C12        27.2670    2.2980    4.0740 C.ar      1 97A         0.1092
     14 C14        27.4570    4.6900    3.9330 C.ar      1 97A        -0.0123
     15 C16        25.5370    6.1490    4.2570 C.1       1 97A         0.1047
     16 N17        25.1140    7.2050    4.2990 N.1       1 97A        -0.3262
     17 C18        25.3060    3.6770    4.4060 C.ar      1 97A         0.0661
     18 C19        25.9060    2.4320    4.3390 C.ar      1 97A         0.0005
     19 F21        23.2000    2.6330    4.1510 F         1 97A        -0.2187
     20 F22        23.6400    3.6820    6.0970 F         1 97A        -0.2187
     21 F23        23.2180    4.8850    4.2290 F         1 97A        -0.2187
     22 H1         29.5691   -0.3551    2.1752 H         1 97A         0.0647
     23 H2         28.2057   -1.8145    4.5429 H         1 97A         0.0535
     24 H3         27.8476   -1.9724    2.7897 H         1 97A         0.0535
     25 H4         29.0923    3.3474    3.6427 H         1 97A         0.0763
     26 H5         29.6230    1.5145    7.4267 H         1 97A         0.0231
     27 H6         28.1952    1.7466    6.3617 H         1 97A         0.0231
     28 H7         29.7249    2.6230    6.0169 H         1 97A         0.0231
     29 H8         29.3281   -0.4167    5.8892 H         1 97A         0.0291
     30 H9         30.8577    0.4596    5.5444 H         1 97A         0.0291
     31 H10        29.8930    1.5614    3.6203 H         1 97A         0.0656
     32 H11        31.3827   -0.8651    3.5857 H         1 97A         0.2101
     33 H12        28.0658    5.5739    3.7806 H         1 97A         0.0765
     34 H13        25.3052    1.5435    4.4958 H         1 97A         0.0776
@<TRIPOS>BOND
     1    2    1 1  
     2    8    1 1  
     3    1    9 1  
     4   10    2 1  
     5   13    3 ar 
     6    3   14 ar 
     7   14    4 ar 
     8    4   15 1  
     9    4   17 ar 
    10   17    5 1  
    11    5   19 1  
    12    5   20 1  
    13    5   21 1  
    14    7    6 1  
    15    8    7 1  
    16   12    8 1  
    17   10   11 2  
    18   12   10 am 
    19   12   13 1  
    20   13   18 ar 
    21   15   16 3  
    22   17   18 ar 
    23    1   22 1  
    24    2   23 1  
    25    2   24 1  
    26    3   25 1  
    27    6   26 1  
    28    6   27 1  
    29    6   28 1  
    30    7   29 1  
    31    7   30 1  
    32    8   31 1  
    33    9   32 1  
    34   14   33 1  
    35   18   34 1  
@<TRIPOS>SUBSTRUCTURE
     1 97A         1

