### 
### Created by X-TOOL on Mon Sep 10 21:13:32 2018
### 

@<TRIPOS>MOLECULE
5v8v_ligand
   81    83     1     0     0
SMALL
GAST_HUCK


@<TRIPOS>ATOM
      1 C01        27.2240   38.5760   24.4300 C.3       1 90D        -0.0553
      2 C02        27.6550   37.1600   24.1480 C.3       1 90D        -0.0210
      3 C03        27.7690   36.8150   22.6600 C.ar      1 90D        -0.0377
      4 C04        28.9300   36.2550   22.1440 C.ar      1 90D        -0.0553
      5 C05        29.0260   35.9390   20.8000 C.ar      1 90D        -0.0623
      6 C06        27.9600   36.1740   19.9520 C.ar      1 90D        -0.0532
      7 C07        26.7790   36.7340   20.4380 C.ar      1 90D        -0.0054
      8 C08        26.7030   37.0390   21.7970 C.ar      1 90D        -0.0455
      9 C09        25.6240   37.0060   19.5240 C.ar      1 90D         0.0383
     10 C10        24.8390   35.9370   19.1100 C.ar      1 90D         0.1683
     11 F11        25.1570   34.7070   19.5740 F         1 90D        -0.1739
     12 C12        23.7660   36.0590   18.2710 C.ar      1 90D        -0.0001
     13 C13        23.4460   37.3180   17.7970 C.ar      1 90D        -0.0352
     14 C14        24.1960   38.4240   18.1700 C.ar      1 90D        -0.0428
     15 C15        25.2910   38.2960   19.0250 C.ar      1 90D        -0.0220
     16 C16        26.1010   39.5570   19.4190 C.3       1 90D         0.0543
     17 O17        25.5830   40.6740   18.6910 O.3       1 90D        -0.4286
     18 C18        27.6050   39.4450   19.1080 C.3       1 90D        -0.0497
     19 C19        28.0420   39.9940   17.7700 C.3       1 90D        -0.0386
     20 C20        28.4840   38.9290   16.7870 C.3       1 90D         0.0321
     21 N21        29.9360   38.9510   16.5500 N.am      1 90D        -0.2626
     22 C22        30.4580   39.3790   15.3880 C.2       1 90D         0.3192
     23 O23        30.5800   40.5440   15.0770 O.2       1 90D        -0.3776
     24 O24        30.8300   38.3470   14.6160 O.3       1 90D        -0.2673
     25 C25        31.4690   38.7010   13.3620 C.3       1 90D         0.0663
     26 C26        25.6900   40.0300   20.8880 C.3       1 90D        -0.0192
     27 C28        24.1920   40.0850   21.2330 C.3       1 90D        -0.0524
     28 C29        23.9640   40.5400   22.6760 C.3       1 90D        -0.0329
     29 C30        24.7000   41.8360   22.9540 C.3       1 90D         0.0338
     30 N31        26.1250   41.7230   22.5670 N.am      1 90D        -0.2737
     31 C32        26.3090   41.3400   21.1680 C.3       1 90D         0.0309
     32 C33        27.1720   41.9290   23.3960 C.2       1 90D         0.1786
     33 O34        28.3290   41.8150   23.0180 O.2       1 90D        -0.3969
     34 C35        26.8670   42.3140   24.8280 C.3       1 90D         0.0422
     35 C36        28.1280   42.4830   25.6630 C.3       1 90D         0.0043
     36 C37        27.9420   43.4300   26.8340 C.3       1 90D        -0.0318
     37 N38        28.1260   42.7620   28.1240 N.4       1 90D         0.2249
     38 C39        28.1040   43.7330   29.2200 C.3       1 90D        -0.0449
     39 H1         27.1695   38.7330   25.5174 H         1 90D         0.0252
     40 H2         26.2344   38.7538   23.9839 H         1 90D         0.0252
     41 H3         27.9534   39.2749   23.9948 H         1 90D         0.0252
     42 H4         26.9197   36.4800   24.6029 H         1 90D         0.0424
     43 H5         28.6387   37.0011   24.6138 H         1 90D         0.0424
     44 H6         29.7705   36.0632   22.8011 H         1 90D         0.0600
     45 H7         29.9403   35.5057   20.4110 H         1 90D         0.0614
     46 H8         28.0427   35.9210   18.9012 H         1 90D         0.0610
     47 H9         25.7864   37.4628   22.1912 H         1 90D         0.0600
     48 H10        23.1818   35.1918   17.9851 H         1 90D         0.0832
     49 H11        22.6019   37.4419   17.1282 H         1 90D         0.0686
     50 H12        23.9269   39.4033   17.7910 H         1 90D         0.0806
     51 H13        26.0709   41.4555   18.9229 H         1 90D         0.1942
     52 H14        27.8783   38.3800   19.1414 H         1 90D         0.0184
     53 H15        28.1531   39.9890   19.8913 H         1 90D         0.0184
     54 H16        28.8830   40.6833   17.9359 H         1 90D         0.0277
     55 H17        27.1982   40.5445   17.3286 H         1 90D         0.0277
     56 H18        27.9676   39.0955   15.8302 H         1 90D         0.0519
     57 H19        28.2065   37.9425   17.1867 H         1 90D         0.0519
     58 H20        30.5515   38.6388   17.2737 H         1 90D         0.1867
     59 H21        31.7307   37.7848   12.8124 H         1 90D         0.0575
     60 H22        32.3820   39.2795   13.5662 H         1 90D         0.0575
     61 H23        30.7786   39.3069   12.7569 H         1 90D         0.0575
     62 H24        26.1328   39.2967   21.5781 H         1 90D         0.0239
     63 H25        23.7582   39.0827   21.1018 H         1 90D         0.0261
     64 H26        23.6945   40.7919   20.5528 H         1 90D         0.0261
     65 H27        24.3314   39.7623   23.3618 H         1 90D         0.0284
     66 H28        22.8873   40.6944   22.8397 H         1 90D         0.0284
     67 H29        24.6347   42.0650   24.0279 H         1 90D         0.0522
     68 H30        24.2326   42.6475   22.3770 H         1 90D         0.0522
     69 H31        25.8451   42.1012   20.5236 H         1 90D         0.0517
     70 H32        27.3857   41.2820   20.9504 H         1 90D         0.0517
     71 H33        26.2459   41.5272   25.2810 H         1 90D         0.0504
     72 H34        26.3129   43.2642   24.8283 H         1 90D         0.0504
     73 H35        28.9260   42.8774   25.0168 H         1 90D         0.0341
     74 H36        28.4249   41.4981   26.0526 H         1 90D         0.0341
     75 H37        26.9249   43.8470   26.7936 H         1 90D         0.0815
     76 H38        28.6760   44.2449   26.7499 H         1 90D         0.0815
     77 H39        29.0129   42.2830   28.1246 H         1 90D         0.2011
     78 H40        27.3833   42.0941   28.2593 H         1 90D         0.2011
     79 H41        28.2438   43.2089   30.1770 H         1 90D         0.0777
     80 H42        27.1367   44.2566   29.2266 H         1 90D         0.0777
     81 H43        28.9150   44.4627   29.0797 H         1 90D         0.0777
@<TRIPOS>BOND
     1    1    2 1  
     2    2    3 1  
     3    3    4 ar 
     4    3    8 ar 
     5    4    5 ar 
     6    5    6 ar 
     7    6    7 ar 
     8    7    8 ar 
     9    7    9 1  
    10    9   10 ar 
    11    9   15 ar 
    12   10   11 1  
    13   10   12 ar 
    14   12   13 ar 
    15   13   14 ar 
    16   14   15 ar 
    17   15   16 1  
    18   16   17 1  
    19   16   18 1  
    20   16   26 1  
    21   18   19 1  
    22   19   20 1  
    23   20   21 1  
    24   21   22 am 
    25   22   23 2  
    26   22   24 1  
    27   24   25 1  
    28   26   27 1  
    29   26   31 1  
    30   27   28 1  
    31   28   29 1  
    32   29   30 1  
    33   30   31 1  
    34   30   32 am 
    35   32   33 2  
    36   32   34 1  
    37   34   35 1  
    38   35   36 1  
    39   36   37 1  
    40   37   38 1  
    41    1   39 1  
    42    1   40 1  
    43    1   41 1  
    44    2   42 1  
    45    2   43 1  
    46    4   44 1  
    47    5   45 1  
    48    6   46 1  
    49    8   47 1  
    50   12   48 1  
    51   13   49 1  
    52   14   50 1  
    53   17   51 1  
    54   18   52 1  
    55   18   53 1  
    56   19   54 1  
    57   19   55 1  
    58   20   56 1  
    59   20   57 1  
    60   21   58 1  
    61   25   59 1  
    62   25   60 1  
    63   25   61 1  
    64   26   62 1  
    65   27   63 1  
    66   27   64 1  
    67   28   65 1  
    68   28   66 1  
    69   29   67 1  
    70   29   68 1  
    71   31   69 1  
    72   31   70 1  
    73   34   71 1  
    74   34   72 1  
    75   35   73 1  
    76   35   74 1  
    77   36   75 1  
    78   36   76 1  
    79   37   77 1  
    80   37   78 1  
    81   38   79 1  
    82   38   80 1  
    83   38   81 1  
@<TRIPOS>SUBSTRUCTURE
     1 90D         1

