### 
### Created by X-TOOL on Mon Sep 10 21:13:34 2018
### 

@<TRIPOS>MOLECULE
5v9p_ligand
   39    41     1     0     0
SMALL
GAST_HUCK


@<TRIPOS>ATOM
      1 C4        -49.0590   46.8030   14.8060 C.2       1 90S         0.0198
      2 C14       -50.1610   41.6220   19.2670 C.3       1 90S         0.0023
      3 C5        -49.0280   46.0460   15.9960 C.2       1 90S        -0.0229
      4 C6        -50.2300   45.3530   16.0120 C.2       1 90S         0.1522
      5 C10       -50.8140   44.4290   17.0010 C.2       1 90S         0.2340
      6 C13       -51.0420   42.7790   18.7860 C.3       1 90S         0.0365
      7 C3        -47.4930   47.2570   12.8960 C.3       1 90S        -0.0535
      8 C1        -46.8410   47.9120   15.1820 C.3       1 90S        -0.0535
      9 C15       -48.8510   42.3870   19.4720 C.3       1 90S         0.1049
     10 C16       -48.8100   43.2710   18.1950 C.3       1 90S         0.0662
     11 C18       -49.1180   44.4910   20.9310 C.2       1 90S         0.0624
     12 C19       -49.0900   44.7740   22.2610 C.2       1 90S         0.0246
     13 C2        -48.0310   47.7570   14.2390 C.3       1 90S        -0.0083
     14 C20       -48.8870   43.5550   22.9010 C.2       1 90S         0.0020
     15 N12       -50.2220   43.5950   17.8960 N.am      1 90S        -0.2673
     16 N17       -48.9320   43.1440   20.7420 N.pl3     1 90S        -0.1990
     17 N21       -48.7950   42.5810   22.0140 N.2       1 90S        -0.2160
     18 N7        -50.8950   45.7300   14.8820 N.pl3     1 90S        -0.2131
     19 N9        -50.1890   46.5540   14.2150 N.2       1 90S        -0.2196
     20 O11       -52.0220   44.4250   17.0090 O.2       1 90S        -0.3822
     21 BR2       -49.3170   46.4240   23.1170 Br        1 90S        -0.0788
     22 H1        -50.0635   40.8339   18.5059 H         1 90S         0.0317
     23 H2        -50.5329   41.1826   20.2043 H         1 90S         0.0317
     24 H3        -48.2336   46.0128   16.7401 H         1 90S         0.0406
     25 H4        -51.3807   43.3785   19.6438 H         1 90S         0.0522
     26 H5        -51.9158   42.3889   18.2435 H         1 90S         0.0522
     27 H6        -46.7496   47.9702   12.5104 H         1 90S         0.0252
     28 H7        -48.3223   47.1683   12.1789 H         1 90S         0.0252
     29 H8        -47.0204   46.2733   13.0336 H         1 90S         0.0252
     30 H9        -47.1928   48.2712   16.1603 H         1 90S         0.0252
     31 H10       -46.1301   48.6371   14.7592 H         1 90S         0.0252
     32 H11       -46.3424   46.9394   15.3062 H         1 90S         0.0252
     33 H12       -47.9827   41.7126   19.5063 H         1 90S         0.0701
     34 H13       -48.3566   42.7185   17.3588 H         1 90S         0.0554
     35 H14       -48.2354   44.1903   18.3816 H         1 90S         0.0554
     36 H15       -49.2655   45.2216   20.1370 H         1 90S         0.1041
     37 H16       -48.5080   48.7376   14.0949 H         1 90S         0.0442
     38 H17       -48.8144   43.4231   23.9795 H         1 90S         0.0665
     39 H18       -51.8306   45.3972   14.6084 H         1 90S         0.2540
@<TRIPOS>BOND
     1    3    1 1  
     2    1   13 1  
     3    1   19 2  
     4    2    6 1  
     5    9    2 1  
     6    4    3 2  
     7    5    4 1  
     8    4   18 1  
     9   15    5 am 
    10    5   20 2  
    11   15    6 1  
    12   13    7 1  
    13   13    8 1  
    14    9   10 1  
    15   16    9 1  
    16   10   15 1  
    17   11   12 2  
    18   11   16 1  
    19   12   14 1  
    20   12   21 1  
    21   14   17 2  
    22   16   17 1  
    23   18   19 1  
    24    2   22 1  
    25    2   23 1  
    26    3   24 1  
    27    6   25 1  
    28    6   26 1  
    29    7   27 1  
    30    7   28 1  
    31    7   29 1  
    32    8   30 1  
    33    8   31 1  
    34    8   32 1  
    35    9   33 1  
    36   10   34 1  
    37   10   35 1  
    38   11   36 1  
    39   13   37 1  
    40   14   38 1  
    41   18   39 1  
@<TRIPOS>SUBSTRUCTURE
     1 90S         1

