### 
### Created by X-TOOL on Mon Sep 10 21:13:34 2018
### 

@<TRIPOS>MOLECULE
5v9t_ligand
   43    45     1     0     0
SMALL
GAST_HUCK


@<TRIPOS>ATOM
      1 C4        -49.4670   47.0340   14.7760 C.2       1 90V         0.0198
      2 C14       -48.7560   42.8880   18.9850 C.3       1 90V        -0.0076
      3 C5        -49.6030   46.2520   15.9160 C.2       1 90V        -0.0229
      4 C6        -50.8740   45.6750   15.8430 C.2       1 90V         0.1522
      5 C10       -51.5260   44.7030   16.8510 C.2       1 90V         0.2340
      6 C13       -49.1420   44.0800   18.0020 C.3       1 90V         0.0356
      7 C3        -48.7040   49.3440   14.1070 C.3       1 90V        -0.0535
      8 C1        -47.7080   47.2770   13.0470 C.3       1 90V        -0.0535
      9 C15       -49.8380   42.7060   19.7060 C.3       1 90V         0.0640
     10 C17       -51.1500   43.1100   18.7280 C.3       1 90V         0.0563
     11 C19       -49.4580   43.0060   22.1590 C.2       1 90V         0.1794
     12 C2        -48.2650   47.8860   14.3470 C.3       1 90V        -0.0083
     13 C21       -49.4620   43.7970   23.4630 C.3       1 90V         0.0489
     14 C22       -48.6920   43.1420   24.6120 C.3       1 90V        -0.0309
     15 C23       -48.1010   44.3490   23.8850 C.3       1 90V        -0.0309
     16 N12       -50.7100   43.9810   17.8240 N.am      1 90V        -0.2683
     17 N18       -49.8650   43.5840   20.8850 N.am      1 90V        -0.2817
     18 N7        -51.4410   46.0890   14.7160 N.pl3     1 90V        -0.2131
     19 N9        -50.5750   46.9250   14.0650 N.2       1 90V        -0.2196
     20 O11       -52.6890   44.5030   16.8420 O.2       1 90V        -0.3822
     21 O20       -49.0970   41.8890   22.1950 O.2       1 90V        -0.3968
     22 H1        -47.9042   43.1675   19.6224 H         1 90V         0.0308
     23 H2        -48.5069   41.9790   18.4179 H         1 90V         0.0308
     24 H3        -48.8674   46.1159   16.7074 H         1 90V         0.0406
     25 H4        -48.6357   43.9599   17.0329 H         1 90V         0.0522
     26 H5        -48.8645   45.0487   18.4431 H         1 90V         0.0522
     27 H6        -47.8339   49.9431   13.8004 H         1 90V         0.0252
     28 H7        -49.1253   49.7576   15.0351 H         1 90V         0.0252
     29 H8        -49.4660   49.3717   13.3142 H         1 90V         0.0252
     30 H9        -47.3988   46.2377   13.2321 H         1 90V         0.0252
     31 H10       -46.8404   47.8631   12.7098 H         1 90V         0.0252
     32 H11       -48.4869   47.2950   12.2705 H         1 90V         0.0252
     33 H12       -49.9014   41.6555   20.0260 H         1 90V         0.0576
     34 H13       -51.9466   43.5656   19.3345 H         1 90V         0.0544
     35 H14       -51.5388   42.2108   18.2277 H         1 90V         0.0544
     36 H15       -47.4930   47.8634   15.1303 H         1 90V         0.0442
     37 H16       -50.3991   44.3517   23.6183 H         1 90V         0.0538
     38 H17       -48.2452   42.1459   24.4775 H         1 90V         0.0294
     39 H18       -49.0534   43.2453   25.6458 H         1 90V         0.0294
     40 H19       -48.0364   45.3210   24.3959 H         1 90V         0.0294
     41 H20       -47.2283   44.2216   23.2276 H         1 90V         0.0294
     42 H21       -50.1512   44.5396   20.8153 H         1 90V         0.1855
     43 H22       -52.3799   45.8240   14.3855 H         1 90V         0.2540
@<TRIPOS>BOND
     1    3    1 1  
     2    1   12 1  
     3    1   19 2  
     4    2    6 1  
     5    9    2 1  
     6    4    3 2  
     7    5    4 1  
     8    4   18 1  
     9   16    5 am 
    10    5   20 2  
    11   16    6 1  
    12   12    7 1  
    13   12    8 1  
    14    9   10 1  
    15   17    9 1  
    16   10   16 1  
    17   11   13 1  
    18   11   17 am 
    19   11   21 2  
    20   13   14 1  
    21   13   15 1  
    22   14   15 1  
    23   18   19 1  
    24    2   22 1  
    25    2   23 1  
    26    3   24 1  
    27    6   25 1  
    28    6   26 1  
    29    7   27 1  
    30    7   28 1  
    31    7   29 1  
    32    8   30 1  
    33    8   31 1  
    34    8   32 1  
    35    9   33 1  
    36   10   34 1  
    37   10   35 1  
    38   12   36 1  
    39   13   37 1  
    40   14   38 1  
    41   14   39 1  
    42   15   40 1  
    43   15   41 1  
    44   17   42 1  
    45   18   43 1  
@<TRIPOS>SUBSTRUCTURE
     1 90V         1

