### 
### Created by X-TOOL on Mon Sep 10 21:13:33 2018
### 

@<TRIPOS>MOLECULE
5vad_ligand
   51    54     1     0     0
SMALL
GAST_HUCK


@<TRIPOS>ATOM
      1 N3        -36.3220    8.1100   32.4540 N.am      1 91Y        -0.2066
      2 C4        -34.9270    8.0960   32.6160 C.ar      1 91Y         0.1912
      3 C6        -32.8160    7.2340   32.1490 C.ar      1 91Y         0.0272
      4 C7        -32.2340    8.1490   33.0280 C.ar      1 91Y         0.0297
      5 C10       -35.1310   10.0140   34.2710 C.2       1 91Y         0.2236
      6 N12       -34.5090   11.0470   34.8850 N.am      1 91Y        -0.2790
      7 C13       -35.2370   12.0550   35.6670 C.3       1 91Y         0.0585
      8 C15       -33.6560   12.7730   37.3490 C.ar      1 91Y        -0.0386
      9 C17       -32.1060   12.6270   39.1640 C.ar      1 91Y        -0.0755
     10 C20       -34.4230   11.7500   37.9250 C.ar      1 91Y        -0.0386
     11 C21       -35.6230   11.4710   37.0530 C.3       1 91Y         0.0032
     12 C22       -38.6370    7.4120   31.8580 C.3       1 91Y         0.0562
     13 C24       -39.1810    6.7780   29.4290 C.3       1 91Y        -0.0507
     14 C26       -38.8470    9.1880   30.0220 C.3       1 91Y        -0.0507
     15 O1        -36.6610    6.1260   31.4260 O.2       1 91Y        -0.3804
     16 C2        -37.1240    7.1640   31.8880 C.2       1 91Y         0.2151
     17 N5        -34.1320    7.2380   31.9670 N.ar      1 91Y        -0.2540
     18 N8        -32.9970    9.0120   33.6860 N.ar      1 91Y        -0.2685
     19 C9        -34.3240    9.0260   33.5120 C.ar      1 91Y         0.1727
     20 O11       -36.3470    9.8840   34.3340 O.2       1 91Y        -0.3840
     21 C14       -34.3030   13.2140   36.0580 C.3       1 91Y         0.0032
     22 C16       -32.4900   13.2180   37.9650 C.ar      1 91Y        -0.0668
     23 C18       -32.8650   11.6020   39.7440 C.ar      1 91Y        -0.0755
     24 C19       -34.0310   11.1610   39.1260 C.ar      1 91Y        -0.0668
     25 C23       -39.3750    6.4300   30.9220 C.3       1 91Y        -0.0326
     26 C25       -39.6320    8.2120   29.1360 C.3       1 91Y        -0.0528
     27 C27       -39.0150    8.8770   31.5210 C.3       1 91Y        -0.0326
     28 H1        -36.7898    8.9231   32.8004 H         1 91Y         0.2368
     29 H2        -32.1959    6.5221   31.6164 H         1 91Y         0.0906
     30 H3        -31.1597    8.1544   33.1728 H         1 91Y         0.0797
     31 H4        -33.5156   11.1273   34.8032 H         1 91Y         0.1850
     32 H5        -36.1167   12.4083   35.1091 H         1 91Y         0.0598
     33 H6        -31.2029   12.9656   39.6589 H         1 91Y         0.0541
     34 H7        -35.8091   10.3892   36.9815 H         1 91Y         0.0435
     35 H8        -36.5181   11.9716   37.4508 H         1 91Y         0.0435
     36 H9        -39.0028    7.2181   32.8771 H         1 91Y         0.0545
     37 H10       -39.7745    6.0824   28.8175 H         1 91Y         0.0267
     38 H11       -38.1165    6.6761   29.1714 H         1 91Y         0.0267
     39 H12       -39.2074   10.2093   29.8296 H         1 91Y         0.0267
     40 H13       -37.7798    9.1209   29.7638 H         1 91Y         0.0267
     41 H14       -34.8775   14.1397   36.2096 H         1 91Y         0.0435
     42 H15       -33.5426   13.3775   35.2802 H         1 91Y         0.0435
     43 H16       -31.8947   14.0073   37.5204 H         1 91Y         0.0537
     44 H17       -32.5432   11.1517   40.6760 H         1 91Y         0.0541
     45 H18       -34.6254   10.3716   39.5716 H         1 91Y         0.0537
     46 H19       -40.4496    6.4607   31.1547 H         1 91Y         0.0293
     47 H20       -38.9900    5.4152   31.1007 H         1 91Y         0.0293
     48 H21       -40.7071    8.3085   29.3479 H         1 91Y         0.0265
     49 H22       -39.4444    8.4460   28.0777 H         1 91Y         0.0265
     50 H23       -38.3666    9.5525   32.0983 H         1 91Y         0.0293
     51 H24       -40.0646    9.0464   31.8030 H         1 91Y         0.0293
@<TRIPOS>BOND
     1    2    1 1  
     2    1   16 am 
     3    2   17 ar 
     4   19    2 ar 
     5    3    4 ar 
     6   17    3 ar 
     7    4   18 ar 
     8    6    5 am 
     9    5   19 1  
    10    5   20 2  
    11    7    6 1  
    12    7   11 1  
    13   21    7 1  
    14    8   10 ar 
    15    8   21 1  
    16    8   22 ar 
    17   22    9 ar 
    18    9   23 ar 
    19   10   11 1  
    20   10   24 ar 
    21   16   12 1  
    22   12   25 1  
    23   12   27 1  
    24   25   13 1  
    25   13   26 1  
    26   26   14 1  
    27   14   27 1  
    28   16   15 2  
    29   18   19 ar 
    30   23   24 ar 
    31    1   28 1  
    32    3   29 1  
    33    4   30 1  
    34    6   31 1  
    35    7   32 1  
    36    9   33 1  
    37   11   34 1  
    38   11   35 1  
    39   12   36 1  
    40   13   37 1  
    41   13   38 1  
    42   14   39 1  
    43   14   40 1  
    44   21   41 1  
    45   21   42 1  
    46   22   43 1  
    47   23   44 1  
    48   24   45 1  
    49   25   46 1  
    50   25   47 1  
    51   26   48 1  
    52   26   49 1  
    53   27   50 1  
    54   27   51 1  
@<TRIPOS>SUBSTRUCTURE
     1 91Y         1

