### 
### Created by X-TOOL on Wed Jan  1 15:39:37 2020
### 

@<TRIPOS>MOLECULE
5var_ligand
   42    44     1     0     0
SMALL
GAST_HUCK


@<TRIPOS>ATOM
      1 C4         22.5670  -11.8910    7.8120 C.ar      1 92Y        -0.0324
      2 C5         23.7830  -11.9880    7.0960 C.ar      1 92Y        -0.0340
      3 C6         24.0440  -11.0790    6.0620 C.ar      1 92Y        -0.0324
      4 C7         23.0940  -10.0740    5.7250 C.ar      1 92Y        -0.0392
      5 C8         21.8670   -9.9740    6.4270 C.ar      1 92Y        -0.0443
      6 C10        21.0190   -7.5610    6.7680 C.3       1 92Y         0.0466
      7 C13        19.3230   -8.0850    4.3390 C.3       1 92Y        -0.0572
      8 C15        19.3800   -9.2240    6.3770 C.3       1 92Y        -0.0653
      9 C17        19.3660   -4.2010    8.1570 C.3       1 92Y        -0.0433
     10 O1         22.0090   -6.7090    6.2280 O.3       1 92Y        -0.3994
     11 N2         20.2470   -4.5950    7.0200 N.4       1 92Y         0.2311
     12 C3         21.6270  -10.9030    7.4930 C.ar      1 92Y        -0.0392
     13 C9         20.8480   -8.9390    6.0310 C.3       1 92Y        -0.0099
     14 C11        19.6100   -6.9090    6.6000 C.3       1 92Y         0.0202
     15 C12        18.8230   -7.9310    5.7870 C.3       1 92Y        -0.0392
     16 C14        20.7190   -8.6750    4.5030 C.3       1 92Y        -0.0683
     17 C16        19.5870   -5.4810    6.0300 C.3       1 92Y        -0.0277
     18 C18        20.8030   -3.4060    6.3230 C.3       1 92Y        -0.0433
     19 H1         22.3606  -12.5884    8.6158 H         1 92Y         0.0698
     20 H2         24.5052  -12.7572    7.3445 H         1 92Y         0.0856
     21 H3         24.9773  -11.1417    5.5141 H         1 92Y         0.0698
     22 H4         23.3113   -9.3779    4.9230 H         1 92Y         0.0850
     23 H5         21.2490   -7.7320    7.8300 H         1 92Y         0.0505
     24 H6         19.3659   -7.1096    3.8324 H         1 92Y         0.0260
     25 H7         18.6733   -8.7658    3.7694 H         1 92Y         0.0260
     26 H8         19.2069   -9.3059    7.4602 H         1 92Y         0.0179
     27 H9         18.9916  -10.1222    5.8746 H         1 92Y         0.0179
     28 H10        19.9241   -3.5480    8.8441 H         1 92Y         0.0777
     29 H11        19.0360   -5.1022    8.6946 H         1 92Y         0.0777
     30 H12        18.4881   -3.6621    7.7710 H         1 92Y         0.0777
     31 H13        22.8533   -7.1430    6.2651 H         1 92Y         0.2087
     32 H14        21.0196   -5.1091    7.4136 H         1 92Y         0.2028
     33 H15        20.7051  -10.8396    8.0597 H         1 92Y         0.0850
     34 H16        19.1512   -6.8397    7.5973 H         1 92Y         0.0372
     35 H17        17.7340   -7.7934    5.8583 H         1 92Y         0.0298
     36 H18        21.4855   -7.9622    4.1647 H         1 92Y         0.0176
     37 H19        20.8147   -9.6128    3.9362 H         1 92Y         0.0176
     38 H20        20.1321   -5.4490    5.0751 H         1 92Y         0.0818
     39 H21        18.5480   -5.1572    5.8701 H         1 92Y         0.0818
     40 H22        21.2930   -2.7475    7.0554 H         1 92Y         0.0777
     41 H23        19.9889   -2.8589    5.8250 H         1 92Y         0.0777
     42 H24        21.5387   -3.7315    5.5728 H         1 92Y         0.0777
@<TRIPOS>BOND
     1    1    2 ar 
     2   12    1 ar 
     3    3    2 ar 
     4    4    3 ar 
     5    5    4 ar 
     6    5   12 ar 
     7   13    5 1  
     8    6   10 1  
     9    6   13 1  
    10   14    6 1  
    11   15    7 1  
    12    7   16 1  
    13    8   13 1  
    14   15    8 1  
    15   11    9 1  
    16   17   11 1  
    17   11   18 1  
    18   13   16 1  
    19   14   15 1  
    20   14   17 1  
    21    1   19 1  
    22    2   20 1  
    23    3   21 1  
    24    4   22 1  
    25    6   23 1  
    26    7   24 1  
    27    7   25 1  
    28    8   26 1  
    29    8   27 1  
    30    9   28 1  
    31    9   29 1  
    32    9   30 1  
    33   10   31 1  
    34   11   32 1  
    35   12   33 1  
    36   14   34 1  
    37   15   35 1  
    38   16   36 1  
    39   16   37 1  
    40   17   38 1  
    41   17   39 1  
    42   18   40 1  
    43   18   41 1  
    44   18   42 1  
@<TRIPOS>SUBSTRUCTURE
     1 92Y         1

