### 
### Created by X-TOOL on Mon Sep 10 21:13:32 2018
### 

@<TRIPOS>MOLECULE
5vb6_ligand
   73    76     1     0     0
SMALL
GAST_HUCK


@<TRIPOS>ATOM
      1 C4         -3.0310   24.0940   14.8250 C.3       1 927        -0.0276
      2 C5         -1.6200   24.4040   15.3280 C.3       1 927        -0.0365
      3 C6         -0.6050   24.1940   14.2040 C.3       1 927         0.0000
      4 C7         -0.9570   25.0970   13.0170 C.3       1 927        -0.0365
      5 C8         -2.3880   24.8260   12.5420 C.3       1 927        -0.0276
      6 C10         1.0990   25.7840   15.1690 C.ar      1 927        -0.0322
      7 N12         3.2950   25.0970   15.6270 N.ar      1 927        -0.3066
      8 C13         3.0340   23.8790   15.1980 C.ar      1 927         0.0031
      9 C15        -5.5270   25.9500   12.9580 C.2       1 927         0.2931
     10 C20        -8.6730   28.4230   14.5710 C.2       1 927        -0.0848
     11 C21        -9.9850   27.7220   14.3400 C.3       1 927        -0.0405
     12 C22        -8.5750   29.4760   15.6430 C.3       1 927        -0.0405
     13 C24        -6.6300   25.0850   15.4440 C.ar      1 927        -0.0563
     14 C26        -8.3850   23.8260   16.4450 C.ar      1 927        -0.0564
     15 O30       -10.8850   23.0570   13.0960 O.2       1 927        -0.3730
     16 C29       -11.1980   22.9710   14.2690 C.2       1 927         0.2321
     17 C31       -12.4800   22.3740   14.6890 C.ar      1 927         0.0560
     18 C36       -12.7030   21.0050   14.5480 C.ar      1 927        -0.0415
     19 C35       -13.8980   20.4630   14.9750 C.ar      1 927        -0.0562
     20 C34       -14.8750   21.2690   15.5300 C.ar      1 927        -0.0576
     21 C33       -14.6530   22.6270   15.6750 C.ar      1 927        -0.0562
     22 C32       -13.4600   23.1830   15.2630 C.ar      1 927        -0.0415
     23 N28       -10.4140   23.3500   15.3070 N.am      1 927        -0.2366
     24 C27        -9.1470   23.9430   15.2900 C.ar      1 927         0.0517
     25 C25        -7.1320   24.3900   16.5210 C.ar      1 927        -0.0883
     26 C37        -8.6480   24.6480   14.2040 C.ar      1 927        -0.0226
     27 C23        -7.3780   25.2090   14.2790 C.ar      1 927         0.0569
     28 N17        -6.8650   25.9300   13.1940 N.am      1 927        -0.2051
     29 C18        -7.6780   27.0760   12.7740 C.3       1 927         0.0625
     30 C19        -7.6180   28.1260   13.8530 C.2       1 927        -0.0821
     31 O16        -4.9780   27.0050   12.7190 O.2       1 927        -0.3900
     32 N2         -4.7590   24.8770   13.2480 N.am      1 927        -0.2540
     33 C1         -5.2390   23.5320   12.9340 C.3       1 927         0.0238
     34 C3         -3.3680   25.0650   13.6940 C.3       1 927         0.0460
     35 C9          0.7820   24.5150   14.7080 C.ar      1 927        -0.0201
     36 C14         1.7770   23.5480   14.7270 C.ar      1 927        -0.0322
     37 C11         2.3770   26.0400   15.6250 C.ar      1 927         0.0031
     38 H1         -3.7527   24.2163   15.6461 H         1 927         0.0289
     39 H2         -3.0727   23.0604   14.4511 H         1 927         0.0289
     40 H3         -1.3775   23.7353   16.1671 H         1 927         0.0293
     41 H4         -1.5760   25.4493   15.6676 H         1 927         0.0293
     42 H5         -0.6363   23.1435   13.8792 H         1 927         0.0487
     43 H6         -0.2579   24.8983   12.1913 H         1 927         0.0293
     44 H7         -0.8712   26.1495   13.3250 H         1 927         0.0293
     45 H8         -2.4694   23.7827   12.2032 H         1 927         0.0289
     46 H9         -2.6310   25.5021   11.7090 H         1 927         0.0289
     47 H10         0.3503   26.5679   15.1713 H         1 927         0.0651
     48 H11         3.8145   23.1270   15.2145 H         1 927         0.0803
     49 H12       -10.7378   28.1129   15.0403 H         1 927         0.0375
     50 H13        -9.8575   26.6418   14.5042 H         1 927         0.0375
     51 H14       -10.3184   27.8991   13.3068 H         1 927         0.0375
     52 H15        -7.5513   29.8776   15.6700 H         1 927         0.0375
     53 H16        -8.8198   29.0302   16.6184 H         1 927         0.0375
     54 H17        -9.2822   30.2894   15.4237 H         1 927         0.0375
     55 H18        -5.6469   25.5376   15.5047 H         1 927         0.0381
     56 H19        -8.7815   23.2844   17.2962 H         1 927         0.0381
     57 H20       -11.9430   20.3708   14.1061 H         1 927         0.0669
     58 H21       -14.0721   19.3978   14.8747 H         1 927         0.0629
     59 H22       -15.8155   20.8366   15.8517 H         1 927         0.0652
     60 H23       -15.4192   23.2559   16.1138 H         1 927         0.0629
     61 H24       -13.2847   24.2458   15.3850 H         1 927         0.0669
     62 H25       -10.7958   23.1817   16.2158 H         1 927         0.2249
     63 H26        -6.5428   24.2874   17.4251 H         1 927         0.0541
     64 H27        -9.2431   24.7604   13.3050 H         1 927         0.0375
     65 H28        -8.7200   26.7568   12.6245 H         1 927         0.0658
     66 H29        -7.2819   27.4872   11.8338 H         1 927         0.0658
     67 H30        -6.6805   28.6477   14.0395 H         1 927         0.0266
     68 H31        -6.2922   23.5825   12.6204 H         1 927         0.0484
     69 H32        -5.1522   22.8941   13.8260 H         1 927         0.0484
     70 H33        -4.6339   23.1076   12.1194 H         1 927         0.0484
     71 H34        -3.2513   26.0967   14.0573 H         1 927         0.0556
     72 H35         1.5708   22.5433   14.3761 H         1 927         0.0651
     73 H36         2.6275   27.0309   15.9861 H         1 927         0.0803
@<TRIPOS>BOND
     1    1    2 1  
     2   34    1 1  
     3    2    3 1  
     4    4    3 1  
     5    3   35 1  
     6    5    4 1  
     7   34    5 1  
     8   35    6 ar 
     9    6   37 ar 
    10    7    8 ar 
    11   37    7 ar 
    12    8   36 ar 
    13    9   28 am 
    14    9   31 2  
    15   32    9 am 
    16   10   11 1  
    17   10   12 1  
    18   30   10 2  
    19   13   25 ar 
    20   27   13 ar 
    21   24   14 ar 
    22   25   14 ar 
    23   16   15 2  
    24   16   17 1  
    25   23   16 am 
    26   17   18 ar 
    27   17   22 ar 
    28   18   19 ar 
    29   19   20 ar 
    30   21   20 ar 
    31   22   21 ar 
    32   24   23 1  
    33   26   24 ar 
    34   27   26 ar 
    35   28   27 1  
    36   28   29 1  
    37   29   30 1  
    38   32   33 1  
    39   32   34 1  
    40   35   36 ar 
    41    1   38 1  
    42    1   39 1  
    43    2   40 1  
    44    2   41 1  
    45    3   42 1  
    46    4   43 1  
    47    4   44 1  
    48    5   45 1  
    49    5   46 1  
    50    6   47 1  
    51    8   48 1  
    52   11   49 1  
    53   11   50 1  
    54   11   51 1  
    55   12   52 1  
    56   12   53 1  
    57   12   54 1  
    58   13   55 1  
    59   14   56 1  
    60   18   57 1  
    61   19   58 1  
    62   20   59 1  
    63   21   60 1  
    64   22   61 1  
    65   23   62 1  
    66   25   63 1  
    67   26   64 1  
    68   29   65 1  
    69   29   66 1  
    70   30   67 1  
    71   33   68 1  
    72   33   69 1  
    73   33   70 1  
    74   34   71 1  
    75   36   72 1  
    76   37   73 1  
@<TRIPOS>SUBSTRUCTURE
     1 927         1

