### 
### Created by X-TOOL on Mon Sep 10 21:13:32 2018
### 

@<TRIPOS>MOLECULE
5vb7_ligand
   70    73     1     0     0
SMALL
GAST_HUCK


@<TRIPOS>ATOM
      1 C5         -3.1270   24.5110   14.9560 C.3       1 921        -0.0276
      2 C6         -1.7190   24.8270   15.4160 C.3       1 921        -0.0365
      3 C7         -0.6940   24.4050   14.3660 C.3       1 921         0.0000
      4 C10        -2.4480   24.7660   12.5790 C.3       1 921        -0.0276
      5 C13         2.3520   26.1040   15.8170 C.ar      1 921         0.0031
      6 C15         2.9580   23.9910   15.2510 C.ar      1 921         0.0031
      7 C17        -5.6590   26.1360   13.4210 C.2       1 921         0.2933
      8 C20        -7.8970   26.9720   12.8790 C.3       1 921         0.0627
      9 C21        -7.9440   28.0520   13.9120 C.2       1 921        -0.0820
     10 C22        -8.9770   28.3760   14.6690 C.2       1 921        -0.0848
     11 C24        -8.9190   29.4820   15.6750 C.3       1 921        -0.0405
     12 C26        -7.1080   25.3090   15.7240 C.ar      1 921        -0.0515
     13 C28        -8.6940   23.6920   16.5230 C.ar      1 921        -0.0439
     14 C1         -5.3650   23.6970   13.3690 C.3       1 921         0.0238
     15 N2         -4.8480   25.0580   13.4530 N.am      1 921        -0.2540
     16 C3         -3.4010   25.2480   13.6560 C.3       1 921         0.0460
     17 C9         -1.0200   25.0730   13.0270 C.3       1 921        -0.0365
     18 C11         0.7160   24.6760   14.8420 C.ar      1 921        -0.0201
     19 C12         1.0600   25.9030   15.3810 C.ar      1 921        -0.0322
     20 N14         3.3040   25.1730   15.7610 N.ar      1 921        -0.3066
     21 C16         1.6920   23.6980   14.7870 C.ar      1 921        -0.0322
     22 O18        -5.2150   27.2590   13.5290 O.2       1 921        -0.3900
     23 N19        -7.0100   25.8990   13.3370 N.am      1 921        -0.2039
     24 C23       -10.2980   27.6770   14.5880 C.3       1 921        -0.0405
     25 C25        -7.5840   25.1500   14.4230 C.ar      1 921         0.0627
     26 C27        -7.6590   24.5750   16.7590 C.ar      1 921        -0.0829
     27 C29        -9.1700   23.5420   15.2350 C.ar      1 921         0.1025
     28 O30       -10.2060   22.6420   15.0240 O.3       1 921        -0.2619
     29 C31       -11.3890   23.0840   14.4520 C.ar      1 921         0.1157
     30 C32       -11.9910   24.2380   14.9160 C.ar      1 921        -0.0285
     31 C33       -13.1720   24.6630   14.3360 C.ar      1 921        -0.0697
     32 C34       -13.7450   23.9440   13.3130 C.ar      1 921        -0.0723
     33 C35       -13.1380   22.7970   12.8560 C.ar      1 921        -0.0697
     34 C36       -11.9560   22.3560   13.4220 C.ar      1 921        -0.0285
     35 C37        -8.6260   24.2570   14.1780 C.ar      1 921        -0.0093
     36 H1         -3.8466   24.8352   15.7222 H         1 921         0.0289
     37 H2         -3.2274   23.4277   14.7937 H         1 921         0.0289
     38 H3         -1.5170   24.2878   16.3532 H         1 921         0.0293
     39 H4         -1.6315   25.9097   15.5896 H         1 921         0.0293
     40 H5         -0.7851   23.3182   14.2229 H         1 921         0.0487
     41 H6         -2.6610   25.2870   11.6339 H         1 921         0.0289
     42 H7         -2.5674   23.6820   12.4351 H         1 921         0.0289
     43 H8          2.6081   27.0736   16.2285 H         1 921         0.0803
     44 H9          3.7141   23.2160   15.1978 H         1 921         0.0803
     45 H10        -7.5157   27.3848   11.9334 H         1 921         0.0658
     46 H11        -8.9088   26.5699   12.7220 H         1 921         0.0658
     47 H12        -7.0329   28.6311   14.0550 H         1 921         0.0266
     48 H13        -9.8912   29.5673   16.1826 H         1 921         0.0375
     49 H14        -8.6869   30.4290   15.1658 H         1 921         0.0375
     50 H15        -8.1364   29.2628   16.4162 H         1 921         0.0375
     51 H16        -6.3049   26.0089   15.9246 H         1 921         0.0417
     52 H17        -9.1274   23.1238   17.3381 H         1 921         0.0427
     53 H18        -6.4541   23.7272   13.2177 H         1 921         0.0484
     54 H19        -5.1392   23.1607   14.3025 H         1 921         0.0484
     55 H20        -4.8917   23.1765   12.5234 H         1 921         0.0484
     56 H21        -3.2138   26.3237   13.7894 H         1 921         0.0556
     57 H22        -0.3192   24.7038   12.2638 H         1 921         0.0293
     58 H23        -0.9056   26.1618   13.1339 H         1 921         0.0293
     59 H24         0.3239   26.6949   15.4593 H         1 921         0.0651
     60 H25         1.4661   22.7167   14.3857 H         1 921         0.0651
     61 H26       -10.2473   26.8843   13.8271 H         1 921         0.0375
     62 H27       -11.0794   28.4004   14.3122 H         1 921         0.0375
     63 H28       -10.5382   27.2325   15.5651 H         1 921         0.0375
     64 H29        -7.2744   24.6942   17.7654 H         1 921         0.0553
     65 H30       -11.5427   24.8033   15.7250 H         1 921         0.0552
     66 H31       -13.6497   25.5694   14.6901 H         1 921         0.0590
     67 H32       -14.6740   24.2807   12.8672 H         1 921         0.0528
     68 H33       -13.5896   22.2350   12.0465 H         1 921         0.0590
     69 H34       -11.4797   21.4509   13.0628 H         1 921         0.0552
     70 H35        -9.0072   24.1227   13.1721 H         1 921         0.0428
@<TRIPOS>BOND
     1    1    2 1  
     2   16    1 1  
     3    2    3 1  
     4   17    3 1  
     5    3   18 1  
     6   16    4 1  
     7    4   17 1  
     8   19    5 ar 
     9    5   20 ar 
    10    6   20 ar 
    11   21    6 ar 
    12    7   15 am 
    13    7   22 2  
    14   23    7 am 
    15    8    9 1  
    16   23    8 1  
    17    9   10 2  
    18   10   11 1  
    19   10   24 1  
    20   25   12 ar 
    21   12   26 ar 
    22   26   13 ar 
    23   13   27 ar 
    24   15   14 1  
    25   15   16 1  
    26   18   19 ar 
    27   18   21 ar 
    28   23   25 1  
    29   25   35 ar 
    30   27   28 1  
    31   27   35 ar 
    32   28   29 1  
    33   29   30 ar 
    34   29   34 ar 
    35   30   31 ar 
    36   31   32 ar 
    37   32   33 ar 
    38   33   34 ar 
    39    1   36 1  
    40    1   37 1  
    41    2   38 1  
    42    2   39 1  
    43    3   40 1  
    44    4   41 1  
    45    4   42 1  
    46    5   43 1  
    47    6   44 1  
    48    8   45 1  
    49    8   46 1  
    50    9   47 1  
    51   11   48 1  
    52   11   49 1  
    53   11   50 1  
    54   12   51 1  
    55   13   52 1  
    56   14   53 1  
    57   14   54 1  
    58   14   55 1  
    59   16   56 1  
    60   17   57 1  
    61   17   58 1  
    62   19   59 1  
    63   21   60 1  
    64   24   61 1  
    65   24   62 1  
    66   24   63 1  
    67   26   64 1  
    68   30   65 1  
    69   31   66 1  
    70   32   67 1  
    71   33   68 1  
    72   34   69 1  
    73   35   70 1  
@<TRIPOS>SUBSTRUCTURE
     1 921         1

