### 
### Created by X-TOOL on Mon Sep 10 21:13:33 2018
### 

@<TRIPOS>MOLECULE
5vc3_ligand
   67    70     1     0     0
SMALL
GAST_HUCK


@<TRIPOS>ATOM
      1 CAA        -4.3080    6.5080    7.7090 C.3       1 DB8         0.0581
      2 O02         1.8900    1.3030   10.4770 O.3       1 DB8        -0.3228
      3 CAC        -9.1860    8.9860    9.8210 C.3       1 DB8        -0.0290
      4 NAD        -2.0910    1.0240   14.0470 N.1       1 DB8        -0.3470
      5 CL1         1.2430   -1.5040   10.9970 Cl        1 DB8        -0.0883
      6 CL2        -3.8580    0.0970   11.3290 Cl        1 DB8        -0.0884
      7 CAG        -2.7270    1.8920   13.6470 C.1       1 DB8         0.0848
      8 CAH        -4.2850    3.4860   14.1470 C.ar      1 DB8         0.0167
      9 CAI        -1.2550   -0.5520   11.1310 C.ar      1 DB8        -0.0510
     10 CAJ        -0.4230    2.0860   10.6310 C.ar      1 DB8        -0.0078
     11 CAK        -5.9960    6.0940   12.2830 C.ar      1 DB8        -0.0186
     12 CAL        -4.4130    5.0170   10.2200 C.ar      1 DB8        -0.0192
     13 CAM        -8.4450    9.4620   11.0990 C.3       1 DB8         0.0154
     14 CAN        -7.6330    8.3290   11.7710 C.3       1 DB8         0.0758
     15 CAO       -13.0820   12.7040    7.7830 C.3       1 DB8        -0.0427
     16 CAP        -9.7440   10.8330    8.1880 C.3       1 DB8         0.0094
     17 CAQ       -11.5470    9.4200    9.0480 C.3       1 DB8         0.0094
     18 CAR       -10.7240   12.0110    7.9800 C.3       1 DB8         0.0092
     19 CAS       -12.5640   10.5780    8.9160 C.3       1 DB8         0.0092
     20 NAT        -5.0840    4.5160   13.8030 N.ar      1 DB8        -0.3220
     21 NAU        -2.6940    2.8410   10.7980 N.pl3     1 DB8        -0.2555
     22 OAV        -5.3820    6.6650    8.6830 O.3       1 DB8        -0.3205
     23 OAW        -6.9030    7.6830   10.7100 O.3       1 DB8        -0.3133
     24 CAX         0.5460    1.0630   10.6750 C.ar      1 DB8         0.0967
     25 CAY         0.1120   -0.2540   10.9260 C.ar      1 DB8         0.0570
     26 CAZ        -2.2150    0.4780   11.0760 C.ar      1 DB8         0.0530
     27 CBA        -3.4520    2.8780   13.1840 C.ar      1 DB8         0.1345
     28 CBB        -1.7950    1.8110   10.8340 C.ar      1 DB8         0.0731
     29 CBC        -5.2730    6.1020    9.9440 C.ar      1 DB8         0.1307
     30 CBD        -6.0690    6.6310   10.9880 C.ar      1 DB8         0.1315
     31 CBE        -3.4660    3.3640   11.8280 C.ar      1 DB8         0.1193
     32 CBF        -5.1350    5.0150   12.5500 C.ar      1 DB8         0.0210
     33 CBG        -4.3260    4.4590   11.5190 C.ar      1 DB8         0.0290
     34 NBH       -10.1930    9.9810    9.3300 N.4       1 DB8         0.2428
     35 NBI       -12.1440   11.5520    7.8620 N.4       1 DB8         0.2405
     36 C01         2.3240    2.5830    9.9560 C.3       1 DB8         0.0595
     37 H1         -4.5810    7.0228    6.7760 H         1 DB8         0.0575
     38 H2         -4.1512    5.4385    7.5052 H         1 DB8         0.0575
     39 H3         -3.3817    6.9443    8.1110 H         1 DB8         0.0575
     40 H4         -9.7049    8.0426   10.0462 H         1 DB8         0.0815
     41 H5         -8.4439    8.8159    9.0271 H         1 DB8         0.0815
     42 H6         -4.2825    3.1231   15.1685 H         1 DB8         0.0842
     43 H7         -1.5641   -1.5717   11.3302 H         1 DB8         0.0576
     44 H8         -0.1095    3.1054   10.4374 H         1 DB8         0.0462
     45 H9         -6.6038    6.5115   13.0776 H         1 DB8         0.0495
     46 H10        -3.8073    4.6028    9.4221 H         1 DB8         0.0544
     47 H11        -9.1879    9.8376   11.8181 H         1 DB8         0.0343
     48 H12        -7.7562   10.2747   10.8251 H         1 DB8         0.0343
     49 H13        -8.3089    7.6130   12.2614 H         1 DB8         0.0617
     50 H14        -6.9380    8.7458   12.5148 H         1 DB8         0.0617
     51 H15       -12.7442   13.3988    7.0000 H         1 DB8         0.0778
     52 H16       -13.1045   13.2256    8.7512 H         1 DB8         0.0778
     53 H17       -14.0908   12.3394    7.5393 H         1 DB8         0.0778
     54 H18        -8.7407   11.2292    8.4034 H         1 DB8         0.0868
     55 H19        -9.7091   10.2240    7.2727 H         1 DB8         0.0868
     56 H20       -11.5189    8.8471    8.1094 H         1 DB8         0.0868
     57 H21       -11.8493    8.7580    9.8728 H         1 DB8         0.0868
     58 H22       -10.4465   12.5441    7.0587 H         1 DB8         0.0868
     59 H23       -10.6430   12.6947    8.8379 H         1 DB8         0.0868
     60 H24       -12.6369   11.1026    9.8801 H         1 DB8         0.0868
     61 H25       -13.5471   10.1629    8.6491 H         1 DB8         0.0868
     62 H26        -2.8157    3.2916    9.8798 H         1 DB8         0.2218
     63 H27       -10.3197   10.6144   10.1038 H         1 DB8         0.2038
     64 H28       -12.2097   11.0622    6.9835 H         1 DB8         0.2035
     65 H29         3.4203    2.5897    9.8664 H         1 DB8         0.0578
     66 H30         2.0072    3.3839   10.6402 H         1 DB8         0.0578
     67 H31         1.8742    2.7474    8.9658 H         1 DB8         0.0578
@<TRIPOS>BOND
     1   22    1 1  
     2   24    2 1  
     3    2   36 1  
     4   13    3 1  
     5    3   34 1  
     6    7    4 3  
     7   25    5 1  
     8   26    6 1  
     9   27    7 1  
    10   20    8 ar 
    11    8   27 ar 
    12    9   25 ar 
    13   26    9 ar 
    14   10   24 ar 
    15   28   10 ar 
    16   30   11 ar 
    17   11   32 ar 
    18   29   12 ar 
    19   12   33 ar 
    20   14   13 1  
    21   23   14 1  
    22   35   15 1  
    23   16   18 1  
    24   34   16 1  
    25   17   19 1  
    26   34   17 1  
    27   18   35 1  
    28   19   35 1  
    29   32   20 ar 
    30   21   28 1  
    31   31   21 1  
    32   29   22 1  
    33   30   23 1  
    34   24   25 ar 
    35   28   26 ar 
    36   27   31 ar 
    37   29   30 ar 
    38   31   33 ar 
    39   32   33 ar 
    40    1   37 1  
    41    1   38 1  
    42    1   39 1  
    43    3   40 1  
    44    3   41 1  
    45    8   42 1  
    46    9   43 1  
    47   10   44 1  
    48   11   45 1  
    49   12   46 1  
    50   13   47 1  
    51   13   48 1  
    52   14   49 1  
    53   14   50 1  
    54   15   51 1  
    55   15   52 1  
    56   15   53 1  
    57   16   54 1  
    58   16   55 1  
    59   17   56 1  
    60   17   57 1  
    61   18   58 1  
    62   18   59 1  
    63   19   60 1  
    64   19   61 1  
    65   21   62 1  
    66   34   63 1  
    67   35   64 1  
    68   36   65 1  
    69   36   66 1  
    70   36   67 1  
@<TRIPOS>SUBSTRUCTURE
     1 DB8         1

