### 
### Created by X-TOOL on Mon Sep 10 21:13:33 2018
### 

@<TRIPOS>MOLECULE
5vc4_ligand
   67    70     1     0     0
SMALL
GAST_HUCK


@<TRIPOS>ATOM
      1 CAA        -4.1190    7.5390    9.2500 C.3       1 XZN         0.0581
      2 O02        -1.1650   -2.0110   11.3820 O.3       1 XZN        -0.3261
      3 CAC        -9.0110    9.8990   10.7140 C.3       1 XZN        -0.0290
      4 NAD        -2.6510    1.4260   15.0750 N.1       1 XZN        -0.3475
      5 CL1        -4.0530   -1.6740   12.1760 Cl        1 XZN        -0.0813
      6 CL2         0.9020    0.0850   10.8210 Cl        1 XZN        -0.0813
      7 CAG        -3.2470    2.3200   14.6710 C.1       1 XZN         0.0842
      8 CAH        -4.7960    3.9540   15.1120 C.ar      1 XZN         0.0161
      9 CAK        -6.3200    6.6290   13.2040 C.ar      1 XZN        -0.0188
     10 CAL        -4.6510    5.5410   11.2150 C.ar      1 XZN        -0.0194
     11 CAM        -8.9630    9.7670   12.2610 C.3       1 XZN         0.0154
     12 CAN        -7.9310    8.7200   12.7480 C.3       1 XZN         0.0757
     13 CAO       -10.6360   12.9340    7.5090 C.3       1 XZN        -0.0427
     14 CAQ       -10.2060   12.0860   10.3830 C.3       1 XZN         0.0094
     15 CAP       -10.5530   10.2020    8.7910 C.3       1 XZN         0.0094
     16 CAS       -11.4850   12.7620    9.8310 C.3       1 XZN         0.0092
     17 CAR       -11.8300   10.8980    8.2680 C.3       1 XZN         0.0092
     18 NAT        -5.5430    5.0110   14.7400 N.ar      1 XZN        -0.3226
     19 NAU        -2.9970    3.2570   11.9150 N.pl3     1 XZN        -0.2600
     20 OAV        -5.4520    7.1920    9.6670 O.3       1 XZN        -0.3206
     21 OAW        -7.1130    8.2740   11.6450 O.3       1 XZN        -0.3134
     22 CAX        -1.6020   -0.7150   11.5060 C.ar      1 XZN         0.1088
     23 CAY        -2.9360   -0.4340   11.8730 C.ar      1 XZN         0.0608
     24 CAZ        -1.1570    1.6900   11.3930 C.ar      1 XZN        -0.0307
     25 CBA        -3.9240    3.3330   14.1970 C.ar      1 XZN         0.1336
     26 CBB        -2.4900    1.9860   11.7620 C.ar      1 XZN         0.0585
     27 CBC        -5.4700    6.6520   10.9230 C.ar      1 XZN         0.1305
     28 CBD        -6.3090    7.1990   11.9200 C.ar      1 XZN         0.1313
     29 CBE        -3.8400    3.8290   12.8510 C.ar      1 XZN         0.1170
     30 CBF        -5.5010    5.5250   13.4910 C.ar      1 XZN         0.0204
     31 CBG        -4.6460    4.9540   12.5050 C.ar      1 XZN         0.0284
     32 NBH       -10.2350   10.5990   10.2020 N.4       1 XZN         0.2428
     33 CAJ        -3.3670    0.9010   11.9880 C.ar      1 XZN        -0.0307
     34 NBI       -11.6820   12.3750    8.4060 N.4       1 XZN         0.2405
     35 C01        -0.5600   -2.5380   12.5830 C.3       1 XZN         0.0576
     36 CAI        -0.7120    0.3590   11.2650 C.ar      1 XZN         0.0608
     37 H1         -4.1516    7.9683    8.2377 H         1 XZN         0.0575
     38 H2         -3.4896    6.6369    9.2456 H         1 XZN         0.0575
     39 H3         -3.6969    8.2772    9.9478 H         1 XZN         0.0575
     40 H4         -8.9821    8.8891   10.2790 H         1 XZN         0.0815
     41 H5         -8.1261   10.4647   10.3869 H         1 XZN         0.0815
     42 H6         -4.8666    3.5774   16.1260 H         1 XZN         0.0841
     43 H7         -6.9615    7.0419   13.9741 H         1 XZN         0.0494
     44 H8         -4.0149    5.1294   10.4397 H         1 XZN         0.0544
     45 H9         -9.9597    9.4690   12.6183 H         1 XZN         0.0343
     46 H10        -8.6977   10.7454   12.6881 H         1 XZN         0.0343
     47 H11        -8.4630    7.8582   13.1772 H         1 XZN         0.0617
     48 H12        -7.2881    9.1740   13.5165 H         1 XZN         0.0617
     49 H13       -10.5721   14.0225    7.6540 H         1 XZN         0.0778
     50 H14       -10.8969   12.7183    6.4624 H         1 XZN         0.0778
     51 H15        -9.6652   12.4748    7.7470 H         1 XZN         0.0778
     52 H16       -10.1199   12.3116   11.4562 H         1 XZN         0.0868
     53 H17        -9.3323   12.4915    9.8518 H         1 XZN         0.0868
     54 H18        -9.7072   10.4794    8.1448 H         1 XZN         0.0868
     55 H19       -10.7013    9.1127    8.7534 H         1 XZN         0.0868
     56 H20       -11.3809   13.8547    9.9021 H         1 XZN         0.0868
     57 H21       -12.3543   12.4373   10.4216 H         1 XZN         0.0868
     58 H22       -12.6979   10.5601    8.8533 H         1 XZN         0.0868
     59 H23       -11.9798   10.6418    7.2088 H         1 XZN         0.0868
     60 H24        -2.6860    3.9144   11.1856 H         1 XZN         0.2189
     61 H25        -0.4645    2.5025   11.2051 H         1 XZN         0.0525
     62 H26       -11.0007   10.2679   10.7678 H         1 XZN         0.2038
     63 H27        -4.3977    1.1020   12.2567 H         1 XZN         0.0525
     64 H28       -12.5560   12.7827    8.1128 H         1 XZN         0.2035
     65 H29        -0.2369   -3.5745   12.4063 H         1 XZN         0.0575
     66 H30        -1.2934   -2.5172   13.4026 H         1 XZN         0.0575
     67 H31         0.3111   -1.9237   12.8547 H         1 XZN         0.0575
@<TRIPOS>BOND
     1   20    1 1  
     2   22    2 1  
     3    2   35 1  
     4   11    3 1  
     5    3   32 1  
     6    7    4 3  
     7   23    5 1  
     8   36    6 1  
     9   25    7 1  
    10   18    8 ar 
    11    8   25 ar 
    12   28    9 ar 
    13    9   30 ar 
    14   27   10 ar 
    15   10   31 ar 
    16   12   11 1  
    17   21   12 1  
    18   34   13 1  
    19   14   16 1  
    20   32   14 1  
    21   15   17 1  
    22   32   15 1  
    23   16   34 1  
    24   17   34 1  
    25   30   18 ar 
    26   19   26 1  
    27   29   19 1  
    28   27   20 1  
    29   28   21 1  
    30   23   22 ar 
    31   36   22 ar 
    32   33   23 ar 
    33   26   24 ar 
    34   24   36 ar 
    35   25   29 ar 
    36   26   33 ar 
    37   27   28 ar 
    38   29   31 ar 
    39   30   31 ar 
    40    1   37 1  
    41    1   38 1  
    42    1   39 1  
    43    3   40 1  
    44    3   41 1  
    45    8   42 1  
    46    9   43 1  
    47   10   44 1  
    48   11   45 1  
    49   11   46 1  
    50   12   47 1  
    51   12   48 1  
    52   13   49 1  
    53   13   50 1  
    54   13   51 1  
    55   14   52 1  
    56   14   53 1  
    57   15   54 1  
    58   15   55 1  
    59   16   56 1  
    60   16   57 1  
    61   17   58 1  
    62   17   59 1  
    63   19   60 1  
    64   24   61 1  
    65   32   62 1  
    66   33   63 1  
    67   34   64 1  
    68   35   65 1  
    69   35   66 1  
    70   35   67 1  
@<TRIPOS>SUBSTRUCTURE
     1 XZN         1

