### 
### Created by X-TOOL on Mon Sep 10 21:13:31 2018
### 

@<TRIPOS>MOLECULE
5vc5_ligand
   63    66     1     0     0
SMALL
GAST_HUCK


@<TRIPOS>ATOM
      1 C01       -10.2680   11.3400    9.5910 C.3       1 96M        -0.0245
      2 C02       -10.0920   11.7360    8.0880 C.3       1 96M        -0.0347
      3 N03        -8.7230   11.5650    7.4360 N.4       1 96M         0.2367
      4 C04        -7.7640   12.7190    7.3120 C.3       1 96M        -0.0347
      5 C05        -6.4660   12.6990    8.1660 C.3       1 96M        -0.0245
      6 C06        -8.2080   10.2110    7.0020 C.3       1 96M        -0.0038
      7 C07        -7.1430    9.6000    7.9660 C.3       1 96M         0.1078
      8 O08        -7.4140   10.0560    9.3200 O.3       1 96M        -0.3197
      9 C09        -7.1440    9.1590   10.2940 C.ar      1 96M         0.0803
     10 C10        -7.9460    9.0770   11.4530 C.ar      1 96M        -0.0416
     11 C11        -7.6110    8.1620   12.4750 C.ar      1 96M        -0.0455
     12 C12        -6.4840    7.3100   12.3390 C.ar      1 96M         0.0565
     13 N13        -6.2190    6.4620   13.3920 N.pl3     1 96M        -0.2484
     14 C14        -5.5730    5.2860   13.4260 C.ar      1 96M         0.1954
     15 N15        -4.8390    4.8890   12.3670 N.ar      1 96M        -0.2316
     16 C16        -4.1740    3.7280   12.3000 C.ar      1 96M         0.1651
     17 C17        -4.2220    2.8840   13.4120 C.ar      1 96M         0.0512
     18 C18        -4.9450    3.3080   14.5290 C.ar      1 96M         0.0167
     19 N19        -5.5970    4.4890   14.5080 N.ar      1 96M        -0.2624
     20 C20        -3.5210    1.6620   13.3910 C.2       1 96M        -0.0308
     21 C21        -2.7960    1.2860   12.2490 C.2       1 96M         0.0551
     22 C22        -2.7790    2.1830   11.1530 C.2       1 96M         0.2278
     23 O23        -2.0890    1.8100   10.1810 O.2       1 96M        -0.3929
     24 N24        -3.4680    3.3810   11.1750 N.am      1 96M        -0.1972
     25 C25        -3.4890    4.3050   10.0520 C.3       1 96M         0.0547
     26 C26        -2.0920    0.0400   12.1970 C.ar      1 96M         0.0099
     27 C27        -2.7980   -1.1740   11.9700 C.ar      1 96M         0.0446
     28 CL28       -4.4790   -1.1650   11.8120 Cl        1 96M        -0.0721
     29 C29        -2.1320   -2.4260   11.9090 C.ar      1 96M        -0.0504
     30 C30        -0.7250   -2.4740   12.0290 C.ar      1 96M        -0.0636
     31 C31        -0.0100   -1.2850   12.2290 C.ar      1 96M        -0.0504
     32 C32        -0.6850   -0.0410   12.3130 C.ar      1 96M         0.0446
     33 CL33        0.2350    1.3570   12.5630 Cl        1 96M        -0.0721
     34 C34        -5.6980    7.4190   11.1810 C.ar      1 96M        -0.0455
     35 C35        -6.0110    8.3350   10.1710 C.ar      1 96M        -0.0416
     36 H1        -11.3075   11.5248    9.8995 H         1 96M         0.0281
     37 H2         -9.5888   11.9433   10.2111 H         1 96M         0.0281
     38 H3        -10.0316   10.2734    9.7193 H         1 96M         0.0281
     39 H4        -10.3606   12.7991    8.0006 H         1 96M         0.0812
     40 H5        -10.8035   11.1292    7.5088 H         1 96M         0.0812
     41 H6         -9.1151   11.7459    6.5252 H         1 96M         0.2034
     42 H7         -8.3165   13.6310    7.5823 H         1 96M         0.0812
     43 H8         -7.4577   12.7749    6.2570 H         1 96M         0.0812
     44 H9         -5.8783   13.6059    7.9610 H         1 96M         0.0281
     45 H10        -5.8710   11.8105    7.9081 H         1 96M         0.0281
     46 H11        -6.7298   12.6665    9.2334 H         1 96M         0.0281
     47 H12        -7.7533   10.3165    6.0059 H         1 96M         0.0841
     48 H13        -9.0606    9.5184    6.9444 H         1 96M         0.0841
     49 H14        -6.1382    9.9272    7.6607 H         1 96M         0.0663
     50 H15        -7.1982    8.5020    7.9286 H         1 96M         0.0663
     51 H16        -8.8164    9.7146   11.5580 H         1 96M         0.0517
     52 H17        -8.2194    8.1099   13.3706 H         1 96M         0.0515
     53 H18        -6.5754    6.7835   14.3033 H         1 96M         0.2171
     54 H19        -4.9825    2.6861   15.4160 H         1 96M         0.0898
     55 H20        -3.5416    1.0083   14.2617 H         1 96M         0.0728
     56 H21        -4.1014    5.1816   10.3099 H         1 96M         0.0583
     57 H22        -3.9188    3.8034    9.1724 H         1 96M         0.0583
     58 H23        -2.4627    4.6289    9.8244 H         1 96M         0.0583
     59 H24        -2.6992   -3.3394   11.7712 H         1 96M         0.0617
     60 H25        -0.2030   -3.4220   11.9669 H         1 96M         0.0594
     61 H26         1.0697   -1.3170   12.3203 H         1 96M         0.0617
     62 H27        -4.8300    6.7798   11.0670 H         1 96M         0.0515
     63 H28        -5.3797    8.4097    9.2929 H         1 96M         0.0517
@<TRIPOS>BOND
     1    1    2 1  
     2    2    3 1  
     3    3    4 1  
     4    3    6 1  
     5    4    5 1  
     6    6    7 1  
     7    7    8 1  
     8    8    9 1  
     9    9   10 ar 
    10    9   35 ar 
    11   10   11 ar 
    12   11   12 ar 
    13   12   13 1  
    14   12   34 ar 
    15   13   14 1  
    16   14   15 ar 
    17   14   19 ar 
    18   15   16 ar 
    19   16   17 ar 
    20   16   24 1  
    21   17   18 ar 
    22   17   20 1  
    23   18   19 ar 
    24   20   21 2  
    25   21   22 1  
    26   21   26 1  
    27   22   23 2  
    28   22   24 am 
    29   24   25 1  
    30   26   27 ar 
    31   26   32 ar 
    32   27   28 1  
    33   27   29 ar 
    34   29   30 ar 
    35   30   31 ar 
    36   31   32 ar 
    37   32   33 1  
    38   34   35 ar 
    39    1   36 1  
    40    1   37 1  
    41    1   38 1  
    42    2   39 1  
    43    2   40 1  
    44    3   41 1  
    45    4   42 1  
    46    4   43 1  
    47    5   44 1  
    48    5   45 1  
    49    5   46 1  
    50    6   47 1  
    51    6   48 1  
    52    7   49 1  
    53    7   50 1  
    54   10   51 1  
    55   11   52 1  
    56   13   53 1  
    57   18   54 1  
    58   20   55 1  
    59   25   56 1  
    60   25   57 1  
    61   25   58 1  
    62   29   59 1  
    63   30   60 1  
    64   31   61 1  
    65   34   62 1  
    66   35   63 1  
@<TRIPOS>SUBSTRUCTURE
     1 96M         1

