### 
### Created by X-TOOL on Mon Sep 10 21:13:34 2018
### 

@<TRIPOS>MOLECULE
5vc6_ligand
   67    71     1     0     0
SMALL
GAST_HUCK


@<TRIPOS>ATOM
      1 O1         50.3920    1.4710   11.0610 O.2       1 P48        -0.3813
      2 C2         49.7100    1.8550   10.1470 C.2       1 P48         0.2207
      3 N3         49.9680    1.5750    8.8750 N.am      1 P48        -0.2877
      4 C4         51.1760    0.8980    8.4380 C.3       1 P48         0.0192
      5 C5         48.5690    2.7120   10.4820 C.2       1 P48         0.1371
      6 N6         48.1360    3.6820    9.6940 N.2       1 P48        -0.1529
      7 N7         47.0690    4.3000   10.3010 N.pl3     1 P48        -0.1562
      8 C8         46.4750    5.4060    9.5300 C.3       1 P48         0.0733
      9 C9         46.7710    3.7370   11.4610 C.2       1 P48         0.1565
     10 C10        47.7460    2.6530   11.7210 C.2       1 P48         0.0012
     11 C11        45.7610    4.1140   12.4620 C.ar      1 P48         0.1218
     12 C12        45.5850    3.2570   13.5640 C.ar      1 P48         0.0128
     13 C13        46.3110    1.9300   13.7130 C.3       1 P48        -0.0386
     14 C14        47.6710    1.8090   13.0190 C.3       1 P48        -0.0500
     15 C15        48.7570    2.1060   14.0450 C.3       1 P48        -0.0955
     16 C16        47.7540    0.3820   12.5820 C.3       1 P48        -0.0955
     17 N17        45.0860    5.2950   12.3740 N.ar      1 P48        -0.2366
     18 C18        44.1880    5.6640   13.3220 C.ar      1 P48         0.2130
     19 N19        44.0000    4.8410   14.3920 N.ar      1 P48        -0.2451
     20 C20        44.6630    3.6630   14.5200 C.ar      1 P48         0.0300
     21 N21        43.4760    6.7980   13.2980 N.pl3     1 P48        -0.2499
     22 C22        43.2450    7.7430   12.3210 C.ar      1 P48         0.0519
     23 C23        42.0960    8.5940   12.3810 C.ar      1 P48        -0.0493
     24 C24        41.8510    9.5420   11.4040 C.ar      1 P48        -0.0530
     25 C25        42.7640    9.7060   10.3320 C.ar      1 P48         0.0295
     26 C26        43.9350    8.8710   10.2580 C.ar      1 P48        -0.0530
     27 C27        44.1750    7.9020   11.2540 C.ar      1 P48        -0.0493
     28 N28        42.5180   10.6740    9.3450 N.pl3     1 P48        -0.3046
     29 C29        42.2260   12.0550    9.7530 C.3       1 P48         0.0649
     30 C30        42.8180   12.9030    8.6290 C.3       1 P48        -0.0123
     31 N31        42.2730   12.3240    7.3950 N.4       1 P48         0.2358
     32 C32        41.1160   12.9240    6.7340 C.3       1 P48        -0.0430
     33 C33        42.7420   11.0130    6.9680 C.3       1 P48        -0.0123
     34 C34        42.0930   10.1320    8.0320 C.3       1 P48         0.0649
     35 H1         49.2972    1.8436    8.1837 H         1 P48         0.1843
     36 H2         51.1563    0.7825    7.3443 H         1 P48         0.0483
     37 H3         51.2318   -0.0938    8.9104 H         1 P48         0.0483
     38 H4         52.0549    1.4924    8.7282 H         1 P48         0.0483
     39 H5         45.6334    5.8352   10.0935 H         1 P48         0.0624
     40 H6         46.1131    5.0261    8.5632 H         1 P48         0.0624
     41 H7         47.2349    6.1825    9.3577 H         1 P48         0.0624
     42 H8         45.6575    1.1448   13.3051 H         1 P48         0.0329
     43 H9         46.4683    1.7547   14.7875 H         1 P48         0.0329
     44 H10        49.7446    2.0247   13.5675 H         1 P48         0.0095
     45 H11        48.6886    1.3829   14.8711 H         1 P48         0.0095
     46 H12        48.6221    3.1248   14.4372 H         1 P48         0.0095
     47 H13        46.9660    0.1788   11.8419 H         1 P48         0.0095
     48 H14        47.6180   -0.2766   13.4525 H         1 P48         0.0095
     49 H15        48.7389    0.1936   12.1299 H         1 P48         0.0095
     50 H16        44.4702    3.0312   15.3795 H         1 P48         0.0874
     51 H17        43.0056    7.0065   14.1903 H         1 P48         0.2129
     52 H18        41.4036    8.4936   13.2090 H         1 P48         0.0505
     53 H19        40.9614   10.1591   11.4580 H         1 P48         0.0489
     54 H20        44.6323    8.9874    9.4362 H         1 P48         0.0489
     55 H21        45.0626    7.2814   11.2078 H         1 P48         0.0505
     56 H22        42.7065   12.2890   10.7144 H         1 P48         0.0562
     57 H23        41.1413   12.2175    9.8361 H         1 P48         0.0562
     58 H24        43.9162   12.8408    8.6340 H         1 P48         0.0834
     59 H25        42.5098   13.9538    8.7329 H         1 P48         0.0834
     60 H26        42.9293   12.8158    6.8090 H         1 P48         0.2032
     61 H27        40.8671   12.3443    5.8329 H         1 P48         0.0778
     62 H28        41.3525   13.9600    6.4498 H         1 P48         0.0778
     63 H29        40.2575   12.9193    7.4217 H         1 P48         0.0778
     64 H30        43.8395   10.9441    6.9965 H         1 P48         0.0834
     65 H31        42.3849   10.7619    5.9584 H         1 P48         0.0834
     66 H32        40.9975   10.1715    7.9413 H         1 P48         0.0562
     67 H33        42.4327    9.0915    7.9225 H         1 P48         0.0562
@<TRIPOS>BOND
     1    1    2 2  
     2    2    3 am 
     3    2    5 1  
     4    3    4 1  
     5    5    6 2  
     6    5   10 1  
     7    6    7 1  
     8    7    8 1  
     9    7    9 1  
    10    9   10 2  
    11    9   11 1  
    12   10   14 1  
    13   11   12 ar 
    14   11   17 ar 
    15   12   13 1  
    16   12   20 ar 
    17   13   14 1  
    18   14   15 1  
    19   14   16 1  
    20   17   18 ar 
    21   18   19 ar 
    22   18   21 1  
    23   19   20 ar 
    24   21   22 1  
    25   22   23 ar 
    26   22   27 ar 
    27   23   24 ar 
    28   24   25 ar 
    29   25   26 ar 
    30   25   28 1  
    31   26   27 ar 
    32   28   29 1  
    33   28   34 1  
    34   29   30 1  
    35   30   31 1  
    36   31   32 1  
    37   31   33 1  
    38   33   34 1  
    39    3   35 1  
    40    4   36 1  
    41    4   37 1  
    42    4   38 1  
    43    8   39 1  
    44    8   40 1  
    45    8   41 1  
    46   13   42 1  
    47   13   43 1  
    48   15   44 1  
    49   15   45 1  
    50   15   46 1  
    51   16   47 1  
    52   16   48 1  
    53   16   49 1  
    54   20   50 1  
    55   21   51 1  
    56   23   52 1  
    57   24   53 1  
    58   26   54 1  
    59   27   55 1  
    60   29   56 1  
    61   29   57 1  
    62   30   58 1  
    63   30   59 1  
    64   31   60 1  
    65   32   61 1  
    66   32   62 1  
    67   32   63 1  
    68   33   64 1  
    69   33   65 1  
    70   34   66 1  
    71   34   67 1  
@<TRIPOS>SUBSTRUCTURE
     1 P48         1

