### 
### Created by X-TOOL on Mon Sep 10 21:13:31 2018
### 

@<TRIPOS>MOLECULE
5vcv_ligand
   60    63     1     0     0
SMALL
GAST_HUCK


@<TRIPOS>ATOM
      1 C1         29.4380    4.9570   -1.5400 C.2       1 1N1        -0.0104
      2 C2         28.5730    4.0770   -0.8910 C.2       1 1N1         0.1128
      3 C3         28.5960    2.6010   -0.8860 C.2       1 1N1         0.2261
      4 N6         24.1910   12.9770    3.5220 N.4       1 1N1         0.2397
      5 C7         30.0760   -2.1710   -1.6900 C.ar      1 1N1        -0.0834
      6 C8         30.7630   -1.5070   -0.6930 C.ar      1 1N1        -0.0735
      7 C9         30.6440   -0.1330   -0.6030 C.ar      1 1N1        -0.0235
      8 C10        31.4000    0.6480    0.4450 C.3       1 1N1        -0.0351
      9 C11        26.4310    7.8780    0.5360 C.ar      1 1N1         0.1348
     10 C12        26.0550    9.1770    0.9030 C.ar      1 1N1         0.0208
     11 C13        24.9270    9.3190    1.7120 C.ar      1 1N1         0.1091
     12 C14        24.6410    7.0170    1.7600 C.ar      1 1N1         0.0703
     13 C15        23.8510    5.8540    2.2230 C.3       1 1N1        -0.0028
     14 C16        23.8980   10.6280    3.4260 C.3       1 1N1         0.0716
     15 C19        25.3050   11.8090    1.7240 C.3       1 1N1         0.0716
     16 C20        25.2030   13.3320    4.5330 C.3       1 1N1        -0.0080
     17 C21        24.7540   14.6390    5.1390 C.3       1 1N1         0.0841
     18 N          27.6060    7.7400   -0.3020 N.pl3     1 1N1        -0.2165
     19 C          28.0740    6.4370   -0.6080 C.2       1 1N1         0.2125
     20 N1         29.1160    6.2290   -1.3510 N.2       1 1N1        -0.2981
     21 S          27.3470    4.9440   -0.0310 S.3       1 1N1         0.0354
     22 N2         29.7360    2.0010   -1.4660 N.am      1 1N1        -0.2384
     23 C4         29.8310    0.5490   -1.5170 C.ar      1 1N1         0.0817
     24 C5         29.1380   -0.1200   -2.5110 C.ar      1 1N1         0.0531
     25 C6         29.2590   -1.4900   -2.5960 C.ar      1 1N1        -0.0685
     26 CL         28.1540    0.7430   -3.6500 Cl        1 1N1        -0.0853
     27 O          27.6840    1.9530   -0.4030 O.2       1 1N1        -0.3859
     28 N3         24.2590    8.2340    2.1170 N.ar      1 1N1        -0.2701
     29 N4         25.7070    6.8310    0.9820 N.ar      1 1N1        -0.2662
     30 N5         24.5120   10.6550    2.1310 N.pl3     1 1N1        -0.2818
     31 C17        23.2300   11.9100    3.7060 C.3       1 1N1        -0.0108
     32 C18        24.5880   13.0860    2.1100 C.3       1 1N1        -0.0108
     33 O1         23.4860   14.5080    5.6810 O.3       1 1N1        -0.3898
     34 H1         30.2882    4.6337   -2.1388 H         1 1N1         0.0652
     35 H2         23.5862   13.7775    3.6188 H         1 1N1         0.2036
     36 H3         30.1730   -3.2476   -1.7718 H         1 1N1         0.0471
     37 H4         31.3847   -2.0538    0.0067 H         1 1N1         0.0515
     38 H5         31.9817   -0.0453    1.0703 H         1 1N1         0.0362
     39 H6         30.6877    1.2005    1.0754 H         1 1N1         0.0362
     40 H7         32.0814    1.3576   -0.0471 H         1 1N1         0.0362
     41 H8         26.6200   10.0403    0.5705 H         1 1N1         0.0519
     42 H9         23.0170    6.2033    2.8495 H         1 1N1         0.0460
     43 H10        24.4953    5.1836    2.8107 H         1 1N1         0.0460
     44 H11        23.4535    5.3109    1.3529 H         1 1N1         0.0460
     45 H12        24.6696   10.4475    4.1889 H         1 1N1         0.0577
     46 H13        23.1546    9.8179    3.4575 H         1 1N1         0.0577
     47 H14        25.4495   11.7866    0.6338 H         1 1N1         0.0577
     48 H15        26.2839   11.7743    2.2245 H         1 1N1         0.0577
     49 H16        26.1891   13.4501    4.0601 H         1 1N1         0.0837
     50 H17        25.2585   12.5523    5.3069 H         1 1N1         0.0837
     51 H18        24.7365   15.4137    4.3583 H         1 1N1         0.0610
     52 H19        25.4585   14.9325    5.9312 H         1 1N1         0.0610
     53 H20        28.0911    8.5718   -0.6677 H         1 1N1         0.2300
     54 H21        30.4708    2.5682   -1.8380 H         1 1N1         0.2226
     55 H22        28.7225   -2.0372   -3.3627 H         1 1N1         0.0526
     56 H23        22.3856   12.0474    3.0146 H         1 1N1         0.0835
     57 H24        22.8605   11.9176    4.7421 H         1 1N1         0.0835
     58 H25        25.2605   13.9462    1.9769 H         1 1N1         0.0835
     59 H26        23.6955   13.2175    1.4806 H         1 1N1         0.0835
     60 H27        23.2169   15.3373    6.0583 H         1 1N1         0.2096
@<TRIPOS>BOND
     1    2    1 2  
     2    1   20 1  
     3    3    2 1  
     4    2   21 1  
     5   22    3 am 
     6    3   27 2  
     7    4   16 1  
     8   31    4 1  
     9   32    4 1  
    10    6    5 ar 
    11    5   25 ar 
    12    7    6 ar 
    13    7    8 1  
    14   23    7 ar 
    15    9   10 ar 
    16   18    9 1  
    17    9   29 ar 
    18   10   11 ar 
    19   11   28 ar 
    20   11   30 1  
    21   12   13 1  
    22   12   28 ar 
    23   29   12 ar 
    24   30   14 1  
    25   14   31 1  
    26   30   15 1  
    27   15   32 1  
    28   16   17 1  
    29   17   33 1  
    30   19   18 1  
    31   19   20 2  
    32   21   19 1  
    33   22   23 1  
    34   23   24 ar 
    35   24   25 ar 
    36   24   26 1  
    37    1   34 1  
    38    4   35 1  
    39    5   36 1  
    40    6   37 1  
    41    8   38 1  
    42    8   39 1  
    43    8   40 1  
    44   10   41 1  
    45   13   42 1  
    46   13   43 1  
    47   13   44 1  
    48   14   45 1  
    49   14   46 1  
    50   15   47 1  
    51   15   48 1  
    52   16   49 1  
    53   16   50 1  
    54   17   51 1  
    55   17   52 1  
    56   18   53 1  
    57   22   54 1  
    58   25   55 1  
    59   31   56 1  
    60   31   57 1  
    61   32   58 1  
    62   32   59 1  
    63   33   60 1  
@<TRIPOS>SUBSTRUCTURE
     1 1N1         1

