### 
### Created by X-TOOL on Mon Sep 10 21:13:32 2018
### 

@<TRIPOS>MOLECULE
5vcw_ligand
   57    59     1     0     0
SMALL
GAST_HUCK


@<TRIPOS>ATOM
      1 C10        18.7640   14.0620    8.6840 C.ar      1 93J         0.0231
      2 C13        17.7060   11.4760    9.2110 C.ar      1 93J         0.1261
      3 C15        19.4650   13.1410    9.5220 C.ar      1 93J         0.0178
      4 C17        17.0670    8.1060   10.4360 C.3       1 93J        -0.0371
      5 C20        20.5200   17.0030    6.1090 C.ar      1 93J        -0.0246
      6 C21        21.1700   18.0280    5.3730 C.ar      1 93J         0.0648
      7 C22        20.5770   19.2940    5.2760 C.ar      1 93J         0.1347
      8 C24        18.6980   18.5230    6.6430 C.ar      1 93J        -0.0383
      9 C01        14.7280   12.7360    7.4620 C.2       1 93J         0.2028
     10 C02        13.4390   12.2300    7.5540 C.2       1 93J         0.0081
     11 C03        12.3950   12.7200    6.8570 C.2       1 93J        -0.0146
     12 C04        11.0470   12.1790    6.9680 C.3       1 93J         0.0051
     13 O01        14.9010   13.8930    7.0110 O.2       1 93J        -0.3903
     14 N01        15.7910   11.9650    7.8470 N.am      1 93J        -0.2372
     15 N02        10.1330   12.6170    5.8570 N.4       1 93J         0.2473
     16 C05        10.8100   12.8440    4.5380 C.3       1 93J        -0.0413
     17 C06         9.2500   13.7560    6.2540 C.3       1 93J        -0.0413
     18 N03        20.6520   13.4900   10.0750 N.ar      1 93J        -0.3244
     19 C07        21.1850   14.7290    9.8560 C.ar      1 93J         0.0147
     20 C08        20.5400   15.6960    9.0340 C.ar      1 93J         0.1323
     21 C09        19.2870   15.3790    8.4180 C.ar      1 93J         0.1159
     22 C11        17.5390   13.6350    8.1330 C.ar      1 93J        -0.0285
     23 C12        16.9890   12.3620    8.3820 C.ar      1 93J         0.1072
     24 C14        18.9400   11.8590    9.7740 C.ar      1 93J        -0.0210
     25 O02        17.2000   10.2330    9.4660 O.3       1 93J        -0.3149
     26 C16        17.8890    9.4050   10.4180 C.3       1 93J         0.0679
     27 C18        21.1860   16.8440    8.9350 C.1       1 93J         0.0841
     28 N04        21.7580   17.8440    8.8470 N.1       1 93J        -0.3473
     29 N05        18.6090   16.2740    7.5550 N.pl3     1 93J        -0.2572
     30 C19        19.2640   17.2240    6.7640 C.ar      1 93J         0.0641
     31 C23        19.3420   19.5400    5.9030 C.ar      1 93J        -0.0364
     32 F01        21.1820   20.2360    4.6050 F         1 93J        -0.1918
     33 CL1        22.6610   17.7680    4.6010 Cl        1 93J        -0.0749
     34 H1         17.5187    7.3961   11.1445 H         1 93J         0.0256
     35 H2         17.0583    7.6636    9.4289 H         1 93J         0.0256
     36 H3         16.0359    8.3288   10.7475 H         1 93J         0.0256
     37 H4         20.9859   16.0266    6.1777 H         1 93J         0.0538
     38 H5         17.7528   18.7374    7.1286 H         1 93J         0.0535
     39 H6         13.2616   11.3915    8.2259 H         1 93J         0.0480
     40 H7         12.5664   13.5567    6.1814 H         1 93J         0.0898
     41 H8         10.6163   12.5101    7.9245 H         1 93J         0.1045
     42 H9         11.1100   11.0809    6.9548 H         1 93J         0.1045
     43 H10        15.6787   10.9793    7.7211 H         1 93J         0.2232
     44 H11         9.5138   11.8366    5.7034 H         1 93J         0.2049
     45 H12        10.0649   13.1597    3.7930 H         1 93J         0.0778
     46 H13        11.2880   11.9107    4.2057 H         1 93J         0.0778
     47 H14        11.5736   13.6281    4.6479 H         1 93J         0.0778
     48 H15         8.7817   13.5358    7.2247 H         1 93J         0.0778
     49 H16         8.4681   13.8963    5.4931 H         1 93J         0.0778
     50 H17         9.8504   14.6740    6.3364 H         1 93J         0.0778
     51 H18        22.1294   14.9838   10.3232 H         1 93J         0.0826
     52 H19        16.9956   14.3167    7.4887 H         1 93J         0.0482
     53 H20        19.4862   11.1650   10.4025 H         1 93J         0.0487
     54 H21        18.9219    9.2108   10.0934 H         1 93J         0.0612
     55 H22        17.8994    9.8761   11.4120 H         1 93J         0.0612
     56 H23        17.5814   16.2229    7.5073 H         1 93J         0.2201
     57 H24        18.8808   20.5173    5.8178 H         1 93J         0.0577
@<TRIPOS>BOND
     1    1    3 ar 
     2   21    1 ar 
     3    1   22 ar 
     4   23    2 ar 
     5   24    2 ar 
     6    2   25 1  
     7    3   18 ar 
     8    3   24 ar 
     9   26    4 1  
    10    5    6 ar 
    11   30    5 ar 
    12    6    7 ar 
    13    6   33 1  
    14   31    7 ar 
    15    7   32 1  
    16   30    8 ar 
    17    8   31 ar 
    18    9   10 1  
    19    9   13 2  
    20   14    9 am 
    21   10   11 2  
    22   11   12 1  
    23   12   15 1  
    24   23   14 1  
    25   15   16 1  
    26   15   17 1  
    27   19   18 ar 
    28   20   19 ar 
    29   21   20 ar 
    30   20   27 1  
    31   29   21 1  
    32   22   23 ar 
    33   25   26 1  
    34   27   28 3  
    35   29   30 1  
    36    4   34 1  
    37    4   35 1  
    38    4   36 1  
    39    5   37 1  
    40    8   38 1  
    41   10   39 1  
    42   11   40 1  
    43   12   41 1  
    44   12   42 1  
    45   14   43 1  
    46   15   44 1  
    47   16   45 1  
    48   16   46 1  
    49   16   47 1  
    50   17   48 1  
    51   17   49 1  
    52   17   50 1  
    53   19   51 1  
    54   22   52 1  
    55   24   53 1  
    56   26   54 1  
    57   26   55 1  
    58   29   56 1  
    59   31   57 1  
@<TRIPOS>SUBSTRUCTURE
     1 93J         1

