### 
### Created by X-TOOL on Mon Sep 10 21:13:33 2018
### 

@<TRIPOS>MOLECULE
5vcx_ligand
   72    77     1     0     0
SMALL
GAST_HUCK


@<TRIPOS>ATOM
      1 C1         17.3790   11.7490    8.5980 C.3       1 H8H        -0.0427
      2 N2         18.2620   11.7700    7.3970 N.4       1 H8H         0.2405
      3 C3         17.6120   11.1520    6.2020 C.3       1 H8H         0.0092
      4 C4         18.5340   11.2520    4.9630 C.3       1 H8H         0.0095
      5 N5         19.8760   10.6620    5.2490 N.4       1 H8H         0.2446
      6 C6         20.7260   10.5550    4.0220 C.3       1 H8H        -0.0027
      7 C7         21.2550    9.1320    3.7420 C.3       1 H8H         0.1117
      8 O8         20.1520    8.2240    3.5260 O.3       1 H8H        -0.3113
      9 C9         20.5560    6.9860    3.1020 C.ar      1 H8H         0.0865
     10 C10        19.8950    5.8070    3.4810 C.ar      1 H8H         0.0045
     11 C11        20.3230    4.5030    3.0380 C.ar      1 H8H         0.1147
     12 O12        19.6570    3.3140    3.4070 O.3       1 H8H        -0.3068
     13 C13        18.3200    3.4870    4.0100 C.3       1 H8H         0.0886
     14 C14        17.3270    3.4760    2.8090 C.3       1 H8H         0.0020
     15 C15        16.2880    2.3380    2.9070 C.3       1 H8H         0.0504
     16 O16        16.9990    1.1130    3.1460 O.3       1 H8H        -0.3796
     17 C17        17.4920    1.0190    4.4950 C.3       1 H8H         0.0504
     18 C18        18.0270    2.3620    5.0630 C.3       1 H8H         0.0020
     19 C19        21.4600    4.4260    2.1770 C.ar      1 H8H         0.0830
     20 C20        22.0250    3.2270    1.6400 C.ar      1 H8H         0.1537
     21 N21        21.5460    1.9650    1.8790 N.pl3     1 H8H        -0.2519
     22 C22        22.0620    0.7750    1.4260 C.ar      1 H8H         0.1046
     23 C23        23.4280    0.3960    1.5490 C.ar      1 H8H         0.1483
     24 O24        24.4450    1.0900    2.1130 O.3       1 H8H        -0.2955
     25 C25        25.5630    0.1880    2.0050 C.3       1 H8H         0.1843
     26 O26        25.2130   -0.9940    1.2680 O.3       1 H8H        -0.2941
     27 C27        23.8950   -0.8190    1.0590 C.ar      1 H8H         0.1156
     28 C28        23.0300   -1.7210    0.4240 C.ar      1 H8H        -0.0509
     29 C29        21.6710   -1.3790    0.2860 C.ar      1 H8H        -0.0757
     30 C30        21.1870   -0.1430    0.7790 C.ar      1 H8H         0.0450
     31 CL3        19.5360    0.1960    0.5710 Cl        1 H8H        -0.0913
     32 N32        23.1180    3.3300    0.8340 N.ar      1 H8H        -0.2599
     33 C33        23.7110    4.4940    0.5060 C.ar      1 H8H         0.0532
     34 N34        23.2050    5.6400    0.9980 N.ar      1 H8H        -0.3053
     35 C35        22.1170    5.6410    1.8080 C.ar      1 H8H         0.0258
     36 C36        21.6700    6.8910    2.2610 C.ar      1 H8H        -0.0286
     37 C37        20.5340   11.2980    6.4310 C.3       1 H8H         0.0095
     38 C38        19.6200   11.2090    7.6740 C.3       1 H8H         0.0092
     39 H1         16.3970   12.1712    8.3385 H         1 H8H         0.0778
     40 H2         17.8356   12.3484    9.3994 H         1 H8H         0.0778
     41 H3         17.2528   10.7119    8.9423 H         1 H8H         0.0778
     42 H4         18.4023   12.7416    7.1683 H         1 H8H         0.2035
     43 H5         16.6682   11.6769    5.9927 H         1 H8H         0.0868
     44 H6         17.4036   10.0926    6.4121 H         1 H8H         0.0868
     45 H7         18.6567   12.3104    4.6897 H         1 H8H         0.0868
     46 H8         18.0725   10.7082    4.1256 H         1 H8H         0.0868
     47 H9         19.6999    9.7097    5.5286 H         1 H8H         0.2039
     48 H10        21.5889   11.2269    4.1402 H         1 H8H         0.0841
     49 H11        20.1265   10.8766    3.1576 H         1 H8H         0.0841
     50 H12        21.8458    8.7877    4.6036 H         1 H8H         0.0671
     51 H13        21.8914    9.1507    2.8450 H         1 H8H         0.0671
     52 H14        19.0305    5.8794    4.1310 H         1 H8H         0.0474
     53 H15        18.2643    4.4595    4.5209 H         1 H8H         0.0659
     54 H16        17.9006    3.3499    1.8789 H         1 H8H         0.0317
     55 H17        16.7942    4.4380    2.7837 H         1 H8H         0.0317
     56 H18        15.7231    2.2651    1.9660 H         1 H8H         0.0561
     57 H19        15.5938    2.5356    3.7371 H         1 H8H         0.0561
     58 H20        18.3101    0.2840    4.5146 H         1 H8H         0.0561
     59 H21        16.6717    0.6720    5.1405 H         1 H8H         0.0561
     60 H22        17.2791    2.7498    5.7702 H         1 H8H         0.0317
     61 H23        18.9639    2.1509    5.5992 H         1 H8H         0.0317
     62 H24        20.7019    1.9016    2.4659 H         1 H8H         0.2195
     63 H25        25.8871   -0.1029    3.0151 H         1 H8H         0.0969
     64 H26        26.3879    0.7006    1.4886 H         1 H8H         0.0969
     65 H27        23.4012   -2.6664    0.0453 H         1 H8H         0.0428
     66 H28        20.9901   -2.0673   -0.2014 H         1 H8H         0.0479
     67 H29        24.5797    4.5075   -0.1422 H         1 H8H         0.1046
     68 H30        22.1921    7.7910    1.9569 H         1 H8H         0.0394
     69 H31        20.7372   12.3555    6.2064 H         1 H8H         0.0868
     70 H32        21.4810   10.7791    6.6405 H         1 H8H         0.0868
     71 H33        19.5178   10.1539    7.9676 H         1 H8H         0.0868
     72 H34        20.0798   11.7758    8.4970 H         1 H8H         0.0868
@<TRIPOS>BOND
     1    1    2 1  
     2    2    3 1  
     3    2   38 1  
     4    3    4 1  
     5    4    5 1  
     6    5    6 1  
     7    5   37 1  
     8    6    7 1  
     9    7    8 1  
    10    8    9 1  
    11    9   10 ar 
    12    9   36 ar 
    13   10   11 ar 
    14   11   12 1  
    15   11   19 ar 
    16   12   13 1  
    17   13   14 1  
    18   13   18 1  
    19   14   15 1  
    20   15   16 1  
    21   16   17 1  
    22   17   18 1  
    23   19   20 ar 
    24   19   35 ar 
    25   20   21 1  
    26   20   32 ar 
    27   21   22 1  
    28   22   23 ar 
    29   22   30 ar 
    30   23   24 1  
    31   23   27 ar 
    32   24   25 1  
    33   25   26 1  
    34   26   27 1  
    35   27   28 ar 
    36   28   29 ar 
    37   29   30 ar 
    38   30   31 1  
    39   32   33 ar 
    40   33   34 ar 
    41   34   35 ar 
    42   35   36 ar 
    43   37   38 1  
    44    1   39 1  
    45    1   40 1  
    46    1   41 1  
    47    2   42 1  
    48    3   43 1  
    49    3   44 1  
    50    4   45 1  
    51    4   46 1  
    52    5   47 1  
    53    6   48 1  
    54    6   49 1  
    55    7   50 1  
    56    7   51 1  
    57   10   52 1  
    58   13   53 1  
    59   14   54 1  
    60   14   55 1  
    61   15   56 1  
    62   15   57 1  
    63   17   58 1  
    64   17   59 1  
    65   18   60 1  
    66   18   61 1  
    67   21   62 1  
    68   25   63 1  
    69   25   64 1  
    70   28   65 1  
    71   29   66 1  
    72   33   67 1  
    73   36   68 1  
    74   37   69 1  
    75   37   70 1  
    76   38   71 1  
    77   38   72 1  
@<TRIPOS>SUBSTRUCTURE
     1 H8H         1

