### 
### Created by X-TOOL on Mon Sep 10 21:13:30 2018
### 

@<TRIPOS>MOLECULE
5vcy_ligand
   67    70     1     0     0
SMALL
GAST_HUCK


@<TRIPOS>ATOM
      1 CAA       -14.9280   -5.9220   -1.6360 C.3       1 DB8         0.0581
      2 O02       -20.8190    0.2520   -5.2570 O.3       1 DB8        -0.3228
      3 CAC        -9.3770   -4.3760   -1.9880 C.3       1 DB8        -0.0290
      4 NAD       -19.5620    1.3350   -1.6620 N.1       1 DB8        -0.3470
      5 CL1       -23.3790   -0.1620   -3.8950 Cl        1 DB8        -0.0883
      6 CL2       -20.5270   -2.9280   -0.2990 Cl        1 DB8        -0.0884
      7 CAG       -18.6230    0.8760   -1.6400 C.1       1 DB8         0.0848
      8 CAH       -16.1230    0.9670   -1.6240 C.ar      1 DB8         0.0167
      9 CAI       -21.8020   -1.5220   -2.2100 C.ar      1 DB8        -0.0510
     10 CAJ       -19.4820   -1.0340   -3.6340 C.ar      1 DB8        -0.0078
     11 CAK       -13.2720   -1.3320   -1.5970 C.ar      1 DB8        -0.0186
     12 CAL       -15.4090   -3.1890   -1.8140 C.ar      1 DB8        -0.0192
     13 CAM        -9.4800   -3.2990   -0.9060 C.3       1 DB8         0.0154
     14 CAN       -10.6940   -2.4070   -1.1750 C.3       1 DB8         0.0758
     15 CAO        -5.0650   -8.0180   -1.5870 C.3       1 DB8        -0.0427
     16 CAP        -8.1280   -6.2400   -2.7810 C.3       1 DB8         0.0094
     17 CAQ        -7.5830   -5.3480   -0.6410 C.3       1 DB8         0.0094
     18 CAR        -6.8290   -7.0170   -2.8330 C.3       1 DB8         0.0092
     19 CAS        -6.2810   -6.1130   -0.7600 C.3       1 DB8         0.0092
     20 NAT       -14.8380    0.4790   -1.6120 N.ar      1 DB8        -0.3220
     21 NAU       -18.1700   -2.2410   -1.9090 N.pl3     1 DB8        -0.2555
     22 OAV       -13.8850   -5.0330   -1.7850 O.3       1 DB8        -0.3205
     23 OAW       -11.7030   -3.2480   -1.5870 O.3       1 DB8        -0.3133
     24 CAX       -20.7450   -0.4980   -4.1140 C.ar      1 DB8         0.0967
     25 CAY       -21.8730   -0.7690   -3.3780 C.ar      1 DB8         0.0570
     26 CAZ       -20.5920   -2.0290   -1.7480 C.ar      1 DB8         0.0530
     27 CBA       -17.2530    0.1610   -1.6940 C.ar      1 DB8         0.1345
     28 CBB       -19.4050   -1.7810   -2.4840 C.ar      1 DB8         0.0731
     29 CBC       -14.1070   -3.6440   -1.7600 C.ar      1 DB8         0.1307
     30 CBD       -13.0500   -2.7160   -1.6550 C.ar      1 DB8         0.1315
     31 CBE       -17.0590   -1.2460   -1.7690 C.ar      1 DB8         0.1193
     32 CBF       -14.6300   -0.8770   -1.6600 C.ar      1 DB8         0.0210
     33 CBG       -15.7060   -1.7730   -1.7630 C.ar      1 DB8         0.0290
     34 NBH        -8.0650   -5.0370   -1.9500 N.4       1 DB8         0.2428
     35 NBI        -6.3560   -7.3270   -1.5140 N.4       1 DB8         0.2405
     36 C01       -19.6340    0.6170   -5.9980 C.3       1 DB8         0.0595
     37 H1        -14.5425   -6.9511   -1.6853 H         1 DB8         0.0575
     38 H2        -15.6607   -5.7660   -2.4415 H         1 DB8         0.0575
     39 H3        -15.4130   -5.7584   -0.6623 H         1 DB8         0.0575
     40 H4         -9.5162   -3.9094   -2.9744 H         1 DB8         0.0815
     41 H5        -10.1632   -5.1275   -1.8235 H         1 DB8         0.0815
     42 H6        -16.2628    2.0409   -1.5762 H         1 DB8         0.0842
     43 H7        -22.7084   -1.7175   -1.6486 H         1 DB8         0.0576
     44 H8        -18.5773   -0.8391   -4.1984 H         1 DB8         0.0462
     45 H9        -12.4481   -0.6332   -1.5079 H         1 DB8         0.0495
     46 H10       -16.2211   -3.9024   -1.8958 H         1 DB8         0.0544
     47 H11        -8.5672   -2.6852   -0.9139 H         1 DB8         0.0343
     48 H12        -9.5906   -3.7791    0.0775 H         1 DB8         0.0343
     49 H13       -10.4624   -1.6746   -1.9623 H         1 DB8         0.0617
     50 H14       -10.9895   -1.8776   -0.2571 H         1 DB8         0.0617
     51 H15        -5.1760   -8.9412   -2.1748 H         1 DB8         0.0778
     52 H16        -4.7253   -8.2687   -0.5713 H         1 DB8         0.0778
     53 H17        -4.3251   -7.3627   -2.0698 H         1 DB8         0.0778
     54 H18        -8.9104   -6.8994   -2.3774 H         1 DB8         0.0868
     55 H19        -8.3937   -5.9400   -3.8054 H         1 DB8         0.0868
     56 H20        -7.4131   -4.4169   -0.0804 H         1 DB8         0.0868
     57 H21        -8.3251   -5.9642   -0.1122 H         1 DB8         0.0868
     58 H22        -6.0706   -6.4136   -3.3534 H         1 DB8         0.0868
     59 H23        -6.9935   -7.9544   -3.3846 H         1 DB8         0.0868
     60 H24        -5.9389   -6.3631    0.2551 H         1 DB8         0.0868
     61 H25        -5.5432   -5.4564   -1.2442 H         1 DB8         0.0868
     62 H26       -18.0536   -3.2181   -1.6047 H         1 DB8         0.2218
     63 H27        -7.3984   -4.4042   -2.3639 H         1 DB8         0.2038
     64 H28        -7.0170   -7.9419   -1.0656 H         1 DB8         0.2035
     65 H29       -19.9201    1.2154   -6.8755 H         1 DB8         0.0578
     66 H30       -19.1135   -0.2937   -6.3291 H         1 DB8         0.0578
     67 H31       -18.9660    1.2074   -5.3537 H         1 DB8         0.0578
@<TRIPOS>BOND
     1   22    1 1  
     2   24    2 1  
     3    2   36 1  
     4   13    3 1  
     5    3   34 1  
     6    7    4 3  
     7   25    5 1  
     8   26    6 1  
     9   27    7 1  
    10   20    8 ar 
    11    8   27 ar 
    12    9   25 ar 
    13   26    9 ar 
    14   10   24 ar 
    15   28   10 ar 
    16   30   11 ar 
    17   11   32 ar 
    18   29   12 ar 
    19   12   33 ar 
    20   14   13 1  
    21   23   14 1  
    22   35   15 1  
    23   16   18 1  
    24   34   16 1  
    25   17   19 1  
    26   34   17 1  
    27   18   35 1  
    28   19   35 1  
    29   32   20 ar 
    30   21   28 1  
    31   31   21 1  
    32   29   22 1  
    33   30   23 1  
    34   24   25 ar 
    35   28   26 ar 
    36   27   31 ar 
    37   29   30 ar 
    38   31   33 ar 
    39   32   33 ar 
    40    1   37 1  
    41    1   38 1  
    42    1   39 1  
    43    3   40 1  
    44    3   41 1  
    45    8   42 1  
    46    9   43 1  
    47   10   44 1  
    48   11   45 1  
    49   12   46 1  
    50   13   47 1  
    51   13   48 1  
    52   14   49 1  
    53   14   50 1  
    54   15   51 1  
    55   15   52 1  
    56   15   53 1  
    57   16   54 1  
    58   16   55 1  
    59   17   56 1  
    60   17   57 1  
    61   18   58 1  
    62   18   59 1  
    63   19   60 1  
    64   19   61 1  
    65   21   62 1  
    66   34   63 1  
    67   35   64 1  
    68   36   65 1  
    69   36   66 1  
    70   36   67 1  
@<TRIPOS>SUBSTRUCTURE
     1 DB8         1

