### 
### Created by X-TOOL on Mon Sep 10 21:13:30 2018
### 

@<TRIPOS>MOLECULE
5vcz_ligand
   67    70     1     0     0
SMALL
GAST_HUCK


@<TRIPOS>ATOM
      1 CAA         8.7300   -5.7280   -1.4580 C.3       1 XZN         0.0581
      2 O02         0.7660   -0.4320   -4.7380 O.3       1 XZN        -0.3261
      3 CAC        14.1400   -4.2100   -2.1030 C.3       1 XZN        -0.0290
      4 NAD         4.0190    1.1640   -1.5230 N.1       1 XZN        -0.3475
      5 CL1         0.3080   -2.1490   -2.4080 Cl        1 XZN        -0.0813
      6 CL2         3.2700    0.5410   -5.9620 Cl        1 XZN        -0.0813
      7 CAG         5.0870    0.7690   -1.6250 C.1       1 XZN         0.0842
      8 CAH         7.3650    1.1080   -1.6690 C.ar      1 XZN         0.0161
      9 CAK        10.1790   -1.1520   -1.5830 C.ar      1 XZN        -0.0188
     10 CAL         8.0830   -3.0220   -1.7740 C.ar      1 XZN        -0.0194
     11 CAM        13.9810   -3.0590   -1.0970 C.3       1 XZN         0.0154
     12 CAN        12.7590   -2.1830   -1.4340 C.3       1 XZN         0.0757
     13 CAO        17.6880   -8.6770   -1.6580 C.3       1 XZN        -0.0427
     14 CAQ        15.5610   -5.6960   -0.5280 C.3       1 XZN         0.0094
     15 CAP        15.0900   -6.2650   -2.7870 C.3       1 XZN         0.0094
     16 CAS        16.8220   -6.5940   -0.5990 C.3       1 XZN         0.0092
     17 CAR        16.3820   -7.0530   -2.9020 C.3       1 XZN         0.0092
     18 NAT         8.6110    0.6360   -1.6400 N.ar      1 XZN        -0.3226
     19 NAU         5.3740   -2.0010   -1.9980 N.pl3     1 XZN        -0.2600
     20 OAV         9.7670   -4.7570   -1.6520 O.3       1 XZN        -0.3206
     21 OAW        11.6370   -3.0630   -1.4660 O.3       1 XZN        -0.3134
     22 CAX         1.8910   -0.8170   -4.0880 C.ar      1 XZN         0.1088
     23 CAY         1.8190   -1.6220   -2.9690 C.ar      1 XZN         0.0608
     24 CAZ         4.2890   -0.8270   -3.9080 C.ar      1 XZN        -0.0307
     25 CBA         6.2750    0.2420   -1.7330 C.ar      1 XZN         0.1336
     26 CBB         4.2520   -1.6510   -2.7590 C.ar      1 XZN         0.0585
     27 CBC         9.3970   -3.4490   -1.6960 C.ar      1 XZN         0.1305
     28 CBD        10.4110   -2.5320   -1.5840 C.ar      1 XZN         0.1313
     29 CBE         6.4580   -1.1540   -1.8250 C.ar      1 XZN         0.1170
     30 CBF         8.8560   -0.7020   -1.6550 C.ar      1 XZN         0.0204
     31 CBG         7.7820   -1.6320   -1.7690 C.ar      1 XZN         0.0284
     32 NBH        15.3210   -5.1160   -1.8790 N.4       1 XZN         0.2428
     33 CAJ         2.9800   -2.0300   -2.3250 C.ar      1 XZN        -0.0307
     34 NBI        16.5850   -7.6740   -1.5950 N.4       1 XZN         0.2405
     35 C01         0.2490    0.8360   -4.2420 C.3       1 XZN         0.0576
     36 CAI         3.1330   -0.4120   -4.5570 C.ar      1 XZN         0.0608
     37 H1          9.1698   -6.7361   -1.4431 H         1 XZN         0.0575
     38 H2          8.0029   -5.6573   -2.2804 H         1 XZN         0.0575
     39 H3          8.2217   -5.5356   -0.5016 H         1 XZN         0.0575
     40 H4         14.2373   -3.7703   -3.1066 H         1 XZN         0.0815
     41 H5         13.2293   -4.8253   -2.0589 H         1 XZN         0.0815
     42 H6          7.1973    2.1786   -1.6425 H         1 XZN         0.0841
     43 H7         11.0029   -0.4497   -1.5279 H         1 XZN         0.0494
     44 H8          7.2812   -3.7487   -1.8391 H         1 XZN         0.0544
     45 H9         14.8864   -2.4348   -1.1212 H         1 XZN         0.0343
     46 H10        13.8526   -3.4799   -0.0889 H         1 XZN         0.0343
     47 H11        12.8937   -1.7007   -2.4134 H         1 XZN         0.0617
     48 H12        12.6175   -1.4122   -0.6621 H         1 XZN         0.0617
     49 H13        17.8259   -9.1331   -0.6666 H         1 XZN         0.0778
     50 H14        18.6194   -8.1789   -1.9652 H         1 XZN         0.0778
     51 H15        17.4318   -9.4584   -2.3886 H         1 XZN         0.0778
     52 H16        15.7211   -4.8874    0.2004 H         1 XZN         0.0868
     53 H17        14.6926   -6.2982   -0.2225 H         1 XZN         0.0868
     54 H18        14.2977   -6.9086   -2.3772 H         1 XZN         0.0868
     55 H19        14.7885   -5.8991   -3.7796 H         1 XZN         0.0868
     56 H20        17.0161   -7.0378    0.3886 H         1 XZN         0.0868
     57 H21        17.6888   -5.9908   -0.9068 H         1 XZN         0.0868
     58 H22        17.2201   -6.3822   -3.1420 H         1 XZN         0.0868
     59 H23        16.2933   -7.8229   -3.6826 H         1 XZN         0.0868
     60 H24         5.3950   -2.9271   -1.5476 H         1 XZN         0.2189
     61 H25         5.2505   -0.5090   -4.2947 H         1 XZN         0.0525
     62 H26        16.1523   -4.6126   -2.1465 H         1 XZN         0.2038
     63 H27         2.8955   -2.6670   -1.4520 H         1 XZN         0.0525
     64 H28        15.7423   -8.1617   -1.3342 H         1 XZN         0.2035
     65 H29        -0.6608    1.1041   -4.7991 H         1 XZN         0.0575
     66 H30         1.0078    1.6204   -4.3797 H         1 XZN         0.0575
     67 H31         0.0094    0.7412   -3.1726 H         1 XZN         0.0575
@<TRIPOS>BOND
     1   20    1 1  
     2   22    2 1  
     3    2   35 1  
     4   11    3 1  
     5    3   32 1  
     6    7    4 3  
     7   23    5 1  
     8   36    6 1  
     9   25    7 1  
    10   18    8 ar 
    11    8   25 ar 
    12   28    9 ar 
    13    9   30 ar 
    14   27   10 ar 
    15   10   31 ar 
    16   12   11 1  
    17   21   12 1  
    18   34   13 1  
    19   14   16 1  
    20   32   14 1  
    21   15   17 1  
    22   32   15 1  
    23   16   34 1  
    24   17   34 1  
    25   30   18 ar 
    26   19   26 1  
    27   29   19 1  
    28   27   20 1  
    29   28   21 1  
    30   23   22 ar 
    31   36   22 ar 
    32   33   23 ar 
    33   26   24 ar 
    34   24   36 ar 
    35   25   29 ar 
    36   26   33 ar 
    37   27   28 ar 
    38   29   31 ar 
    39   30   31 ar 
    40    1   37 1  
    41    1   38 1  
    42    1   39 1  
    43    3   40 1  
    44    3   41 1  
    45    8   42 1  
    46    9   43 1  
    47   10   44 1  
    48   11   45 1  
    49   11   46 1  
    50   12   47 1  
    51   12   48 1  
    52   13   49 1  
    53   13   50 1  
    54   13   51 1  
    55   14   52 1  
    56   14   53 1  
    57   15   54 1  
    58   15   55 1  
    59   16   56 1  
    60   16   57 1  
    61   17   58 1  
    62   17   59 1  
    63   19   60 1  
    64   24   61 1  
    65   32   62 1  
    66   33   63 1  
    67   34   64 1  
    68   35   65 1  
    69   35   66 1  
    70   35   67 1  
@<TRIPOS>SUBSTRUCTURE
     1 XZN         1

