### 
### Created by X-TOOL on Mon Sep 10 21:13:32 2018
### 

@<TRIPOS>MOLECULE
5vd0_ligand
   70    74     1     0     0
SMALL
GAST_HUCK


@<TRIPOS>ATOM
      1 C01        -9.1730    9.2520    3.4240 C.3       1 8X7        -0.0430
      2 N02        -9.4080    8.0460    2.5870 N.4       1 8X7         0.2358
      3 C03       -10.8420    7.8860    2.2150 C.3       1 8X7        -0.0123
      4 C04       -11.0010    6.6900    1.2460 C.3       1 8X7         0.0649
      5 N05       -10.4860    5.4740    1.8590 N.pl3     1 8X7        -0.3044
      6 C06        -9.0720    5.5960    2.1960 C.3       1 8X7         0.0649
      7 C07        -8.8420    6.7890    3.1670 C.3       1 8X7        -0.0123
      8 C08       -11.2120    4.2720    1.8980 C.ar      1 8X7         0.0299
      9 C09       -12.6250    4.2260    1.7400 C.ar      1 8X7        -0.0526
     10 C10       -13.3420    3.0240    1.7820 C.ar      1 8X7        -0.0485
     11 C11       -12.6880    1.7920    1.9860 C.ar      1 8X7         0.0541
     12 N12       -13.2810    0.5600    2.0490 N.pl3     1 8X7        -0.2490
     13 C13       -14.5970    0.2680    2.2370 C.ar      1 8X7         0.1982
     14 N14       -14.9630   -1.0390    2.2490 N.ar      1 8X7        -0.2614
     15 C15       -16.2500   -1.4420    2.4260 C.ar      1 8X7         0.0227
     16 C16       -17.2250   -0.4520    2.6040 C.ar      1 8X7         0.1146
     17 C17       -18.6260   -0.4730    2.8030 C.2       1 8X7         0.2326
     18 O18       -19.4550   -1.4430    2.8910 O.2       1 8X7        -0.3894
     19 N19       -19.0030    0.8350    2.8980 N.am      1 8X7        -0.1342
     20 C20       -20.3780    1.2140    3.1300 C.3       1 8X7         0.0910
     21 C21       -20.7070    0.7980    4.4800 C.2       1 8X7        -0.0645
     22 C22       -21.7510    0.0170    4.7820 C.2       1 8X7        -0.1155
     23 N23       -17.9480    1.6350    2.7920 N.pl3     1 8X7        -0.1018
     24 C24       -16.8570    0.8710    2.5980 C.ar      1 8X7         0.1876
     25 N25       -15.5650    1.2070    2.4150 N.ar      1 8X7        -0.2257
     26 C26       -17.8740    3.0010    2.7880 C.ar      1 8X7         0.1961
     27 N27       -18.9000    3.6540    2.2100 N.ar      1 8X7        -0.2558
     28 C28       -19.0120    4.9970    2.0740 C.ar      1 8X7         0.0358
     29 C29       -17.9610    5.7960    2.5710 C.ar      1 8X7        -0.0199
     30 C30       -16.8530    5.1730    3.1700 C.ar      1 8X7        -0.0186
     31 C31       -16.7930    3.7710    3.2730 C.ar      1 8X7         0.0240
     32 C32       -20.2380    5.5500    1.4320 C.3       1 8X7         0.0631
     33 C33       -21.4320    5.5650    2.4270 C.3       1 8X7        -0.0574
     34 C34       -20.6110    4.6780    0.1990 C.3       1 8X7        -0.0574
     35 O35       -20.0180    6.8910    0.9800 O.3       1 8X7        -0.4203
     36 C36       -11.2930    1.8130    2.1470 C.ar      1 8X7        -0.0485
     37 C37       -10.5770    3.0190    2.1030 C.ar      1 8X7        -0.0526
     38 H1         -9.6164   10.1310    2.9332 H         1 8X7         0.0778
     39 H2         -8.0911    9.4077    3.5472 H         1 8X7         0.0778
     40 H3         -9.6377    9.1097    4.4108 H         1 8X7         0.0778
     41 H4         -8.9081    8.2051    1.7263 H         1 8X7         0.2032
     42 H5        -11.1966    8.8040    1.7235 H         1 8X7         0.0834
     43 H6        -11.4365    7.7027    3.1222 H         1 8X7         0.0834
     44 H7        -10.4424    6.8952    0.3209 H         1 8X7         0.0562
     45 H8        -12.0664    6.5540    1.0085 H         1 8X7         0.0562
     46 H9         -8.4939    5.7627    1.2751 H         1 8X7         0.0562
     47 H10        -8.7337    4.6670    2.6782 H         1 8X7         0.0562
     48 H11        -9.3368    6.5769    4.1262 H         1 8X7         0.0834
     49 H12        -7.7624    6.9195    3.3323 H         1 8X7         0.0834
     50 H13       -13.1648    5.1526    1.5818 H         1 8X7         0.0490
     51 H14       -14.4185    3.0411    1.6555 H         1 8X7         0.0508
     52 H15       -12.6518   -0.2483    1.9404 H         1 8X7         0.2160
     53 H16       -16.5124   -2.4938    2.4292 H         1 8X7         0.0908
     54 H17       -21.0366    0.7096    2.4076 H         1 8X7         0.0730
     55 H18       -20.4920    2.3036    3.0315 H         1 8X7         0.0730
     56 H19       -20.0688    1.1403    5.2933 H         1 8X7         0.0693
     57 H20       -21.9428   -0.2592    5.8178 H         1 8X7         0.0290
     58 H21       -22.4087   -0.3423    3.9919 H         1 8X7         0.0290
     59 H22       -18.0075    6.8761    2.4919 H         1 8X7         0.0891
     60 H23       -16.0391    5.7765    3.5553 H         1 8X7         0.0789
     61 H24       -15.9302    3.2887    3.7179 H         1 8X7         0.0897
     62 H25       -22.3208    5.9771    1.9269 H         1 8X7         0.0167
     63 H26       -21.1775    6.1897    3.2958 H         1 8X7         0.0167
     64 H27       -21.6428    4.5388    2.7624 H         1 8X7         0.0167
     65 H28       -19.7689    4.6642   -0.5085 H         1 8X7         0.0167
     66 H29       -21.4979    5.1016   -0.2949 H         1 8X7         0.0167
     67 H30       -20.8299    3.6516    0.5285 H         1 8X7         0.0167
     68 H31       -19.8172    7.4460    1.7244 H         1 8X7         0.1970
     69 H32       -10.7607    0.8825    2.3079 H         1 8X7         0.0508
     70 H33        -9.5008    2.9929    2.2301 H         1 8X7         0.0490
@<TRIPOS>BOND
     1    1    2 1  
     2    2    3 1  
     3    2    7 1  
     4    3    4 1  
     5    4    5 1  
     6    5    6 1  
     7    5    8 1  
     8    6    7 1  
     9    8    9 ar 
    10    8   37 ar 
    11    9   10 ar 
    12   10   11 ar 
    13   11   12 1  
    14   11   36 ar 
    15   12   13 1  
    16   13   14 ar 
    17   13   25 ar 
    18   14   15 ar 
    19   15   16 ar 
    20   16   17 1  
    21   16   24 ar 
    22   17   18 2  
    23   17   19 am 
    24   19   20 1  
    25   19   23 1  
    26   20   21 1  
    27   21   22 2  
    28   23   24 1  
    29   23   26 1  
    30   24   25 ar 
    31   26   27 ar 
    32   26   31 ar 
    33   27   28 ar 
    34   28   29 ar 
    35   28   32 1  
    36   29   30 ar 
    37   30   31 ar 
    38   32   33 1  
    39   32   34 1  
    40   32   35 1  
    41   36   37 ar 
    42    1   38 1  
    43    1   39 1  
    44    1   40 1  
    45    2   41 1  
    46    3   42 1  
    47    3   43 1  
    48    4   44 1  
    49    4   45 1  
    50    6   46 1  
    51    6   47 1  
    52    7   48 1  
    53    7   49 1  
    54    9   50 1  
    55   10   51 1  
    56   12   52 1  
    57   15   53 1  
    58   20   54 1  
    59   20   55 1  
    60   21   56 1  
    61   22   57 1  
    62   22   58 1  
    63   29   59 1  
    64   30   60 1  
    65   31   61 1  
    66   33   62 1  
    67   33   63 1  
    68   33   64 1  
    69   34   65 1  
    70   34   66 1  
    71   34   67 1  
    72   35   68 1  
    73   36   69 1  
    74   37   70 1  
@<TRIPOS>SUBSTRUCTURE
     1 8X7         1

