### 
### Created by X-TOOL on Mon Sep 10 21:13:30 2018
### 

@<TRIPOS>MOLECULE
5vd1_ligand
   67    71     1     0     0
SMALL
GAST_HUCK


@<TRIPOS>ATOM
      1 O1          1.3760   -2.9480   -1.9210 O.2       1 P48        -0.3813
      2 C2          2.1020   -3.8350   -2.3480 C.2       1 P48         0.2207
      3 N3          1.6940   -5.0400   -2.6940 N.am      1 P48        -0.2877
      4 C4          0.3040   -5.4820   -2.6900 C.3       1 P48         0.0192
      5 C5          3.5340   -3.5950   -2.4070 C.2       1 P48         0.1371
      6 N6          4.4330   -4.5790   -2.4760 N.2       1 P48        -0.1529
      7 N7          5.6760   -4.0180   -2.5130 N.pl3     1 P48        -0.1562
      8 C8          6.7840   -4.9800   -2.6270 C.3       1 P48         0.0733
      9 C9          5.6260   -2.6860   -2.5080 C.2       1 P48         0.1565
     10 C10         4.2110   -2.2830   -2.4250 C.2       1 P48         0.0012
     11 C11         6.7170   -1.7010   -2.4320 C.ar      1 P48         0.1218
     12 C12         6.3720   -0.3440   -2.5530 C.ar      1 P48         0.0128
     13 C13         4.9460    0.0810   -2.9190 C.3       1 P48        -0.0386
     14 C14         3.8310   -0.7990   -2.3430 C.3       1 P48        -0.0500
     15 C15         3.5940   -0.4130   -0.8940 C.3       1 P48        -0.0955
     16 C16         2.6430   -0.4870   -3.2320 C.3       1 P48        -0.0955
     17 N17         7.9780   -2.0940   -2.1220 N.ar      1 P48        -0.2366
     18 C18         8.9670   -1.1870   -1.9690 C.ar      1 P48         0.2130
     19 N19         8.6520    0.1320   -2.1200 N.ar      1 P48        -0.2451
     20 C20         7.4060    0.5680   -2.3920 C.ar      1 P48         0.0300
     21 N21        10.2500   -1.5200   -1.6860 N.pl3     1 P48        -0.2499
     22 C22        10.8990   -2.7360   -1.6770 C.ar      1 P48         0.0519
     23 C23        12.3060   -2.7900   -1.7540 C.ar      1 P48        -0.0493
     24 C24        12.9940   -3.9880   -1.7460 C.ar      1 P48        -0.0530
     25 C25        12.3170   -5.2160   -1.6880 C.ar      1 P48         0.0295
     26 C26        10.8880   -5.1950   -1.6090 C.ar      1 P48        -0.0530
     27 C27        10.1850   -3.9660   -1.5910 C.ar      1 P48        -0.0493
     28 N28        13.0530   -6.4270   -1.6960 N.pl3     1 P48        -0.3046
     29 C29        12.3930   -7.7430   -1.7030 C.3       1 P48         0.0649
     30 C30        12.9110   -8.2950   -3.0140 C.3       1 P48        -0.0123
     31 N31        14.3310   -8.5670   -2.7730 N.4       1 P48         0.2358
     32 C32        14.8320   -9.9320   -2.8990 C.3       1 P48        -0.0430
     33 C33        15.1470   -7.6790   -1.9510 C.3       1 P48        -0.0123
     34 C34        14.4810   -6.3130   -2.0930 C.3       1 P48         0.0649
     35 H1          2.3889   -5.6997   -2.9803 H         1 P48         0.1843
     36 H2          0.2513   -6.5292   -3.0226 H         1 P48         0.0483
     37 H3         -0.2835   -4.8505   -3.3727 H         1 P48         0.0483
     38 H4         -0.1040   -5.3997   -1.6718 H         1 P48         0.0483
     39 H5          7.7403   -4.4369   -2.6493 H         1 P48         0.0624
     40 H6          6.6709   -5.5614   -3.5539 H         1 P48         0.0624
     41 H7          6.7690   -5.6607   -1.7630 H         1 P48         0.0624
     42 H8          4.8580    0.0663   -4.0154 H         1 P48         0.0329
     43 H9          4.7926    1.1067   -2.5525 H         1 P48         0.0329
     44 H10         2.7945   -1.0407   -0.4734 H         1 P48         0.0095
     45 H11         3.2964    0.6446   -0.8402 H         1 P48         0.0095
     46 H12         4.5193   -0.5633   -0.3184 H         1 P48         0.0095
     47 H13         2.8701   -0.7863   -4.2659 H         1 P48         0.0095
     48 H14         2.4347    0.5926   -3.2002 H         1 P48         0.0095
     49 H15         1.7623   -1.0410   -2.8750 H         1 P48         0.0095
     50 H16         7.2115    1.6303   -2.4850 H         1 P48         0.0874
     51 H17        10.8476   -0.7205   -1.4319 H         1 P48         0.2129
     52 H18        12.8646   -1.8635   -1.8215 H         1 P48         0.0505
     53 H19        14.0773   -3.9794   -1.7853 H         1 P48         0.0489
     54 H20        10.3389   -6.1285   -1.5625 H         1 P48         0.0489
     55 H21         9.1039   -3.9609   -1.5118 H         1 P48         0.0505
     56 H22        11.2970   -7.6492   -1.7051 H         1 P48         0.0562
     57 H23        12.7066   -8.3607   -0.8485 H         1 P48         0.0562
     58 H24        12.7897   -7.5563   -3.8200 H         1 P48         0.0834
     59 H25        12.3796   -9.2202   -3.2815 H         1 P48         0.0834
     60 H26        14.6546   -8.2318   -3.6668 H         1 P48         0.2032
     61 H27        15.9107   -9.9479   -2.6842 H         1 P48         0.0778
     62 H28        14.6567  -10.2939   -3.9228 H         1 P48         0.0778
     63 H29        14.3063  -10.5829   -2.1849 H         1 P48         0.0778
     64 H30        16.1824   -7.6477   -2.3212 H         1 P48         0.0834
     65 H31        15.1427   -8.0070   -0.9011 H         1 P48         0.0834
     66 H32        14.9880   -5.5861   -1.4415 H         1 P48         0.0562
     67 H33        14.5475   -5.9773   -3.1384 H         1 P48         0.0562
@<TRIPOS>BOND
     1    1    2 2  
     2    2    3 am 
     3    2    5 1  
     4    3    4 1  
     5    5    6 2  
     6    5   10 1  
     7    6    7 1  
     8    7    8 1  
     9    7    9 1  
    10    9   10 2  
    11    9   11 1  
    12   10   14 1  
    13   11   12 ar 
    14   11   17 ar 
    15   12   13 1  
    16   12   20 ar 
    17   13   14 1  
    18   14   15 1  
    19   14   16 1  
    20   17   18 ar 
    21   18   19 ar 
    22   18   21 1  
    23   19   20 ar 
    24   21   22 1  
    25   22   23 ar 
    26   22   27 ar 
    27   23   24 ar 
    28   24   25 ar 
    29   25   26 ar 
    30   25   28 1  
    31   26   27 ar 
    32   28   29 1  
    33   28   34 1  
    34   29   30 1  
    35   30   31 1  
    36   31   32 1  
    37   31   33 1  
    38   33   34 1  
    39    3   35 1  
    40    4   36 1  
    41    4   37 1  
    42    4   38 1  
    43    8   39 1  
    44    8   40 1  
    45    8   41 1  
    46   13   42 1  
    47   13   43 1  
    48   15   44 1  
    49   15   45 1  
    50   15   46 1  
    51   16   47 1  
    52   16   48 1  
    53   16   49 1  
    54   20   50 1  
    55   21   51 1  
    56   23   52 1  
    57   24   53 1  
    58   26   54 1  
    59   27   55 1  
    60   29   56 1  
    61   29   57 1  
    62   30   58 1  
    63   30   59 1  
    64   31   60 1  
    65   32   61 1  
    66   32   62 1  
    67   32   63 1  
    68   33   64 1  
    69   33   65 1  
    70   34   66 1  
    71   34   67 1  
@<TRIPOS>SUBSTRUCTURE
     1 P48         1

