### 
### Created by X-TOOL on Mon Sep 10 21:13:33 2018
### 

@<TRIPOS>MOLECULE
5vd2_ligand
   59    63     1     0     0
SMALL
GAST_HUCK


@<TRIPOS>ATOM
      1 C01       -14.4270   10.7960    7.2300 C.3       1 34W         0.0258
      2 C02       -13.2800   10.4370    8.0860 C.2       1 34W         0.1749
      3 O03       -13.5030    9.8290    9.1700 O.2       1 34W        -0.3972
      4 N04       -12.0090   10.7590    7.6990 N.am      1 34W        -0.2685
      5 C05       -10.9040   10.8070    8.6070 C.3       1 34W         0.1204
      6 C06        -9.6210   10.3030    8.0410 C.2       1 34W         0.2047
      7 O07        -9.5840    9.9580    6.8280 O.2       1 34W        -0.3943
      8 N08        -8.4730   10.2060    8.7970 N.am      1 34W        -0.2467
      9 C09        -7.1130   10.3410    8.3570 C.3       1 34W         0.0748
     10 C10        -6.6650   11.6840    9.0300 C.3       1 34W        -0.0180
     11 C11        -7.5730   11.7460   10.2890 C.3       1 34W        -0.0171
     12 C12        -8.3270   10.3800   10.2070 C.3       1 34W         0.0767
     13 C13        -7.4270    9.2080   10.3120 C.ar      1 34W        -0.0202
     14 C14        -6.6620    9.1850    9.1440 C.ar      1 34W        -0.0222
     15 C15        -5.6980    8.1980    8.9150 C.ar      1 34W        -0.0712
     16 C16        -5.5260    7.2160    9.9150 C.ar      1 34W        -0.0476
     17 C17        -6.2950    7.2110   11.1090 C.ar      1 34W         0.0620
     18 C18        -7.2580    8.2330   11.3060 C.ar      1 34W        -0.0372
     19 N19        -6.1040    6.2600   12.0690 N.pl3     1 34W        -0.2327
     20 C20        -5.3410    5.1320   12.1730 C.ar      1 34W         0.2271
     21 N21        -5.4120    4.3480   13.2730 N.ar      1 34W        -0.2275
     22 C22        -4.6880    3.2230   13.4220 C.ar      1 34W         0.0374
     23 C23        -3.7930    2.8070   12.4240 C.ar      1 34W         0.0980
     24 C24        -3.7230    3.6330   11.2730 C.ar      1 34W         0.1500
     25 N25        -4.4890    4.7510   11.1980 N.ar      1 34W        -0.2078
     26 N26        -2.8960    3.3370   10.2370 N.pl3     1 34W        -0.2820
     27 C27        -2.5470    4.3040    9.2440 C.3       1 34W         0.0478
     28 C28        -3.5400    4.3260    8.0660 C.3       1 34W        -0.0280
     29 C29        -2.3330    4.4450    7.1290 C.3       1 34W        -0.0485
     30 C30        -1.4990    3.7820    8.2380 C.3       1 34W        -0.0280
     31 C31        -3.0100    1.5540   12.6050 C.3       1 34W         0.3624
     32 F32        -1.6430    1.7340   12.5750 F         1 34W        -0.2410
     33 F33        -3.3350    0.6850   11.6120 F         1 34W        -0.2410
     34 F34        -3.2860    0.9420   13.7890 F         1 34W        -0.2410
     35 H1        -14.0649   11.3164    6.3311 H         1 34W         0.0467
     36 H2        -15.1076   11.4567    7.7870 H         1 34W         0.0467
     37 H3        -14.9635    9.8826    6.9337 H         1 34W         0.0467
     38 H4        -11.8436   10.9710    6.7358 H         1 34W         0.1880
     39 H5        -11.1550   10.1970    9.4872 H         1 34W         0.0763
     40 H6        -10.7570   11.8526    8.9153 H         1 34W         0.0763
     41 H7         -6.9158   10.2935    7.2759 H         1 34W         0.0692
     42 H8         -6.8467   12.5418    8.3659 H         1 34W         0.0309
     43 H9         -5.6011   11.6543    9.3079 H         1 34W         0.0309
     44 H10        -8.2725   12.5933   10.2370 H         1 34W         0.0310
     45 H11        -6.9761   11.8193   11.2101 H         1 34W         0.0310
     46 H12        -9.2322   10.3388   10.8307 H         1 34W         0.0707
     47 H13        -5.1067    8.1873    8.0065 H         1 34W         0.0518
     48 H14        -4.7829    6.4408    9.7665 H         1 34W         0.0482
     49 H15        -7.8543    8.2603   12.2108 H         1 34W         0.0474
     50 H16        -6.6676    6.4337   12.9134 H         1 34W         0.2285
     51 H17        -4.7975    2.6312   14.3236 H         1 34W         0.1102
     52 H18        -2.5081    2.3856   10.1647 H         1 34W         0.1982
     53 H19        -2.3257    5.2778    9.7053 H         1 34W         0.0579
     54 H20        -4.2164    5.1934    8.0536 H         1 34W         0.0289
     55 H21        -4.1253    3.4028    7.9434 H         1 34W         0.0289
     56 H22        -2.0387    5.4770    6.8874 H         1 34W         0.0267
     57 H23        -2.4120    3.8595    6.2012 H         1 34W         0.0267
     58 H24        -1.4341    2.6860    8.1702 H         1 34W         0.0289
     59 H25        -0.4905    4.2018    8.3667 H         1 34W         0.0289
@<TRIPOS>BOND
     1    1    2 1  
     2    2    3 2  
     3    2    4 am 
     4    4    5 1  
     5    5    6 1  
     6    6    7 2  
     7    6    8 am 
     8    8    9 1  
     9    8   12 1  
    10    9   10 1  
    11    9   14 1  
    12   10   11 1  
    13   11   12 1  
    14   12   13 1  
    15   13   14 ar 
    16   13   18 ar 
    17   14   15 ar 
    18   15   16 ar 
    19   16   17 ar 
    20   17   18 ar 
    21   17   19 1  
    22   19   20 1  
    23   20   21 ar 
    24   20   25 ar 
    25   21   22 ar 
    26   22   23 ar 
    27   23   24 ar 
    28   23   31 1  
    29   24   25 ar 
    30   24   26 1  
    31   26   27 1  
    32   27   28 1  
    33   27   30 1  
    34   28   29 1  
    35   29   30 1  
    36   31   32 1  
    37   31   33 1  
    38   31   34 1  
    39    1   35 1  
    40    1   36 1  
    41    1   37 1  
    42    4   38 1  
    43    5   39 1  
    44    5   40 1  
    45    9   41 1  
    46   10   42 1  
    47   10   43 1  
    48   11   44 1  
    49   11   45 1  
    50   12   46 1  
    51   15   47 1  
    52   16   48 1  
    53   18   49 1  
    54   19   50 1  
    55   22   51 1  
    56   26   52 1  
    57   27   53 1  
    58   28   54 1  
    59   28   55 1  
    60   29   56 1  
    61   29   57 1  
    62   30   58 1  
    63   30   59 1  
@<TRIPOS>SUBSTRUCTURE
     1 34W         1

