### 
### Created by X-TOOL on Mon Sep 10 21:13:31 2018
### 

@<TRIPOS>MOLECULE
5vd3_ligand
   72    77     1     0     0
SMALL
GAST_HUCK


@<TRIPOS>ATOM
      1 C1         -6.7590    6.9640    3.7240 C.3       1 H8H        -0.0427
      2 N2         -7.5020    6.1430    2.7440 N.4       1 H8H         0.2405
      3 C3         -6.7440    4.8780    2.5490 C.3       1 H8H         0.0092
      4 C4         -7.5530    3.9360    1.6320 C.3       1 H8H         0.0095
      5 N5         -8.9070    3.6740    2.1780 N.4       1 H8H         0.2446
      6 C6         -9.5820    2.9290    1.1240 C.3       1 H8H        -0.0027
      7 C7        -10.8670    2.2730    1.5910 C.3       1 H8H         0.1117
      8 O8        -11.8950    3.2480    1.5910 O.3       1 H8H        -0.3113
      9 C9        -13.1380    2.7470    1.8620 C.ar      1 H8H         0.0865
     10 C10       -14.1490    3.7000    1.9780 C.ar      1 H8H         0.0045
     11 C11       -15.4580    3.3330    2.2480 C.ar      1 H8H         0.1147
     12 O12       -16.4860    4.2230    2.3690 O.3       1 H8H        -0.3068
     13 C13       -16.2560    5.5860    2.0130 C.3       1 H8H         0.0886
     14 C14       -16.2790    5.5790    0.4760 C.3       1 H8H         0.0020
     15 C15       -17.1630    6.6500   -0.1660 C.3       1 H8H         0.0504
     16 O16       -18.3700    6.8080    0.5750 O.3       1 H8H        -0.3796
     17 C17       -18.1760    7.3090    1.8900 C.3       1 H8H         0.0504
     18 C18       -17.4250    6.2610    2.7300 C.3       1 H8H         0.0020
     19 C19       -15.7840    1.9650    2.4160 C.ar      1 H8H         0.0830
     20 C20       -17.1160    1.4770    2.6940 C.ar      1 H8H         0.1537
     21 N21       -18.2220    2.3310    2.8370 N.pl3     1 H8H        -0.2519
     22 C22       -19.5440    1.8800    3.1410 C.ar      1 H8H         0.1046
     23 C23       -19.8210    1.0460    4.2290 C.ar      1 H8H         0.1483
     24 O24       -19.0050    0.4890    5.1950 O.3       1 H8H        -0.2955
     25 C25       -19.7870   -0.3600    6.0460 C.3       1 H8H         0.1843
     26 O26       -21.1310   -0.1680    5.5880 O.3       1 H8H        -0.2941
     27 C27       -21.1330    0.6320    4.4740 C.ar      1 H8H         0.1156
     28 C28       -22.1720    1.0420    3.6560 C.ar      1 H8H        -0.0509
     29 C29       -21.9190    1.8700    2.5760 C.ar      1 H8H        -0.0757
     30 C30       -20.6180    2.2770    2.3280 C.ar      1 H8H         0.0450
     31 CL3       -20.3220    3.3170    0.9690 Cl        1 H8H        -0.0913
     32 N32       -17.2840    0.1530    2.8260 N.ar      1 H8H        -0.2599
     33 C33       -16.2900   -0.6800    2.7060 C.ar      1 H8H         0.0532
     34 N34       -15.0530   -0.2860    2.4490 N.ar      1 H8H        -0.3053
     35 C35       -14.7440    1.0010    2.2980 C.ar      1 H8H         0.0258
     36 C36       -13.4360    1.3960    2.0210 C.ar      1 H8H        -0.0286
     37 C37        -9.6220    4.9660    2.3460 C.3       1 H8H         0.0095
     38 C38        -8.8540    5.8780    3.3150 C.3       1 H8H         0.0092
     39 H1         -5.7532    7.1794    3.3342 H         1 H8H         0.0778
     40 H2         -6.6744    6.4148    4.6733 H         1 H8H         0.0778
     41 H3         -7.2966    7.9086    3.8935 H         1 H8H         0.0778
     42 H4         -7.5892    6.6298    1.8657 H         1 H8H         0.2035
     43 H5         -6.5815    4.3929    3.5228 H         1 H8H         0.0868
     44 H6         -5.7725    5.0996    2.0831 H         1 H8H         0.0868
     45 H7         -7.0152    2.9811    1.5373 H         1 H8H         0.0868
     46 H8         -7.6518    4.4012    0.6401 H         1 H8H         0.0868
     47 H9         -8.8708    3.1608    3.0448 H         1 H8H         0.2039
     48 H10        -8.9019    2.1459    0.7577 H         1 H8H         0.0841
     49 H11        -9.8203    3.6212    0.3030 H         1 H8H         0.0841
     50 H12       -10.7325    1.8756    2.6078 H         1 H8H         0.0671
     51 H13       -11.1339    1.4524    0.9089 H         1 H8H         0.0671
     52 H14       -13.9064    4.7493    1.8545 H         1 H8H         0.0474
     53 H15       -15.2953    5.9807    2.3753 H         1 H8H         0.0659
     54 H16       -16.6421    4.5947    0.1453 H         1 H8H         0.0317
     55 H17       -15.2493    5.7288    0.1193 H         1 H8H         0.0317
     56 H18       -17.4067    6.3494   -1.1957 H         1 H8H         0.0561
     57 H19       -16.6198    7.6064   -0.1820 H         1 H8H         0.0561
     58 H20       -19.1526    7.5177    2.3511 H         1 H8H         0.0561
     59 H21       -17.5855    8.2360    1.8463 H         1 H8H         0.0561
     60 H22       -17.0338    6.7592    3.6293 H         1 H8H         0.0317
     61 H23       -18.1421    5.4810    3.0255 H         1 H8H         0.0317
     62 H24       -18.0715    3.3427    2.7156 H         1 H8H         0.2195
     63 H25       -19.6860   -0.0579    7.0989 H         1 H8H         0.0969
     64 H26       -19.4828   -1.4113    5.9353 H         1 H8H         0.0969
     65 H27       -23.1846    0.7143    3.8615 H         1 H8H         0.0428
     66 H28       -22.7283    2.1958    1.9326 H         1 H8H         0.0479
     67 H29       -16.4840   -1.7402    2.8214 H         1 H8H         0.1046
     68 H30       -12.6523    0.6527    1.9295 H         1 H8H         0.0394
     69 H31       -10.6279    4.7746    2.7480 H         1 H8H         0.0868
     70 H32        -9.7063    5.4639    1.3688 H         1 H8H         0.0868
     71 H33        -9.3964    6.8267    3.4403 H         1 H8H         0.0868
     72 H34        -8.7537    5.3813    4.2913 H         1 H8H         0.0868
@<TRIPOS>BOND
     1    1    2 1  
     2    2    3 1  
     3    2   38 1  
     4    3    4 1  
     5    4    5 1  
     6    5    6 1  
     7    5   37 1  
     8    6    7 1  
     9    7    8 1  
    10    8    9 1  
    11    9   10 ar 
    12    9   36 ar 
    13   10   11 ar 
    14   11   12 1  
    15   11   19 ar 
    16   12   13 1  
    17   13   14 1  
    18   13   18 1  
    19   14   15 1  
    20   15   16 1  
    21   16   17 1  
    22   17   18 1  
    23   19   20 ar 
    24   19   35 ar 
    25   20   21 1  
    26   20   32 ar 
    27   21   22 1  
    28   22   23 ar 
    29   22   30 ar 
    30   23   24 1  
    31   23   27 ar 
    32   24   25 1  
    33   25   26 1  
    34   26   27 1  
    35   27   28 ar 
    36   28   29 ar 
    37   29   30 ar 
    38   30   31 1  
    39   32   33 ar 
    40   33   34 ar 
    41   34   35 ar 
    42   35   36 ar 
    43   37   38 1  
    44    1   39 1  
    45    1   40 1  
    46    1   41 1  
    47    2   42 1  
    48    3   43 1  
    49    3   44 1  
    50    4   45 1  
    51    4   46 1  
    52    5   47 1  
    53    6   48 1  
    54    6   49 1  
    55    7   50 1  
    56    7   51 1  
    57   10   52 1  
    58   13   53 1  
    59   14   54 1  
    60   14   55 1  
    61   15   56 1  
    62   15   57 1  
    63   17   58 1  
    64   17   59 1  
    65   18   60 1  
    66   18   61 1  
    67   21   62 1  
    68   25   63 1  
    69   25   64 1  
    70   28   65 1  
    71   29   66 1  
    72   33   67 1  
    73   36   68 1  
    74   37   69 1  
    75   37   70 1  
    76   38   71 1  
    77   38   72 1  
@<TRIPOS>SUBSTRUCTURE
     1 H8H         1

