### 
### Created by X-TOOL on Mon Sep 10 21:13:34 2018
### 

@<TRIPOS>MOLECULE
5vdk_ligand
   70    74     1     0     0
SMALL
GAST_HUCK


@<TRIPOS>ATOM
      1 C01       -11.9880  -23.0000  -23.3730 C.3       1 8X7        -0.0430
      2 N02       -12.4490  -23.2270  -21.9740 N.4       1 8X7         0.2358
      3 C03       -11.6130  -22.5400  -20.9470 C.3       1 8X7        -0.0123
      4 C04       -12.2430  -22.6760  -19.5340 C.3       1 8X7         0.0649
      5 N05       -12.6290  -24.0450  -19.2050 N.pl3     1 8X7        -0.3044
      6 C06       -13.4150  -24.6940  -20.2470 C.3       1 8X7         0.0649
      7 C07       -12.6710  -24.6580  -21.6080 C.3       1 8X7        -0.0123
      8 C08       -12.7510  -24.4340  -17.8680 C.ar      1 8X7         0.0299
      9 C09       -12.2480  -23.6500  -16.7950 C.ar      1 8X7        -0.0526
     10 C10       -12.3770  -24.0470  -15.4520 C.ar      1 8X7        -0.0485
     11 C11       -13.0200  -25.2630  -15.1130 C.ar      1 8X7         0.0541
     12 N12       -13.2170  -25.7700  -13.8500 N.pl3     1 8X7        -0.2490
     13 C13       -12.4090  -25.7430  -12.7460 C.ar      1 8X7         0.1982
     14 N14       -12.8020  -26.3970  -11.6170 N.ar      1 8X7        -0.2614
     15 C15       -12.0420  -26.4070  -10.4820 C.ar      1 8X7         0.0227
     16 C16       -10.8150  -25.7200  -10.4820 C.ar      1 8X7         0.1146
     17 C17        -9.7900  -25.5110   -9.5220 C.2       1 8X7         0.2326
     18 O18        -9.6910  -25.9210   -8.3140 O.2       1 8X7        -0.3894
     19 N19        -8.8340  -24.7510  -10.1480 N.am      1 8X7        -0.1342
     20 C20        -7.6070  -24.2820   -9.5020 C.3       1 8X7         0.0910
     21 C21        -6.8710  -25.2280   -8.6670 C.2       1 8X7        -0.0645
     22 C22        -6.6750  -26.4940   -9.0420 C.2       1 8X7        -0.1155
     23 N23        -9.2200  -24.4790  -11.4000 N.pl3     1 8X7        -0.1018
     24 C24       -10.4190  -25.0610  -11.6180 C.ar      1 8X7         0.1876
     25 N25       -11.2190  -25.0880  -12.7110 N.ar      1 8X7        -0.2257
     26 C26        -8.6020  -23.7390  -12.3850 C.ar      1 8X7         0.1961
     27 N27        -7.8060  -22.7140  -12.0150 N.ar      1 8X7        -0.2558
     28 C28        -7.1290  -21.8860  -12.8430 C.ar      1 8X7         0.0358
     29 C29        -7.2630  -22.0840  -14.2360 C.ar      1 8X7        -0.0199
     30 C30        -8.0870  -23.1260  -14.6940 C.ar      1 8X7        -0.0186
     31 C31        -8.7560  -23.9560  -13.7770 C.ar      1 8X7         0.0240
     32 C32        -6.2920  -20.8300  -12.2090 C.3       1 8X7         0.0631
     33 C33        -5.8430  -19.7110  -13.1900 C.3       1 8X7        -0.0574
     34 C34        -5.0840  -21.5170  -11.5130 C.3       1 8X7        -0.0574
     35 O35        -7.0460  -20.1900  -11.1740 O.3       1 8X7        -0.4203
     36 C36       -13.5250  -26.0440  -16.1700 C.ar      1 8X7        -0.0485
     37 C37       -13.3960  -25.6450  -17.5100 C.ar      1 8X7        -0.0526
     38 H1        -11.8539  -21.9218  -23.5444 H         1 8X7         0.0778
     39 H2        -12.7389  -23.3922  -24.0747 H         1 8X7         0.0778
     40 H3        -11.0310  -23.5184  -23.5324 H         1 8X7         0.0778
     41 H4        -13.3568  -22.7916  -21.9247 H         1 8X7         0.2032
     42 H5        -11.5324  -21.4734  -21.2036 H         1 8X7         0.0834
     43 H6        -10.6102  -22.9919  -20.9386 H         1 8X7         0.0834
     44 H7        -13.1391  -22.0397  -19.4882 H         1 8X7         0.0562
     45 H8        -11.5100  -22.3312  -18.7898 H         1 8X7         0.0562
     46 H9        -14.3777  -24.1718  -20.3494 H         1 8X7         0.0562
     47 H10       -13.5944  -25.7414  -19.9627 H         1 8X7         0.0562
     48 H11       -11.7042  -25.1750  -21.5188 H         1 8X7         0.0834
     49 H12       -13.2805  -25.1507  -22.3799 H         1 8X7         0.0834
     50 H13       -11.7481  -22.7146  -17.0191 H         1 8X7         0.0490
     51 H14       -11.9795  -23.4146  -14.6664 H         1 8X7         0.0508
     52 H15       -14.1192  -26.2476  -13.7127 H         1 8X7         0.2160
     53 H16       -12.3787  -26.9350   -9.5972 H         1 8X7         0.0908
     54 H17        -7.8776  -23.4257   -8.8668 H         1 8X7         0.0730
     55 H18        -6.9250  -23.9474  -10.2975 H         1 8X7         0.0730
     56 H19        -6.4710  -24.8910   -7.7118 H         1 8X7         0.0693
     57 H20        -6.1217  -27.1739   -8.3958 H         1 8X7         0.0290
     58 H21        -7.0684  -26.8470   -9.9941 H         1 8X7         0.0290
     59 H22        -6.7401  -21.4442  -14.9377 H         1 8X7         0.0891
     60 H23        -8.2074  -23.2907  -15.7586 H         1 8X7         0.0789
     61 H24        -9.3885  -24.7606  -14.1343 H         1 8X7         0.0897
     62 H25        -5.2322  -18.9729  -12.6495 H         1 8X7         0.0167
     63 H26        -6.7299  -19.2150  -13.6112 H         1 8X7         0.0167
     64 H27        -5.2491  -20.1531  -14.0035 H         1 8X7         0.0167
     65 H28        -5.4498  -22.2987  -10.8310 H         1 8X7         0.0167
     66 H29        -4.5157  -20.7684  -10.9415 H         1 8X7         0.0167
     67 H30        -4.4316  -21.9702  -12.2739 H         1 8X7         0.0167
     68 H31        -7.3412  -20.8420  -10.5494 H         1 8X7         0.1970
     69 H32       -14.0266  -26.9779  -15.9433 H         1 8X7         0.0508
     70 H33       -13.7999  -26.2791  -18.2910 H         1 8X7         0.0490
@<TRIPOS>BOND
     1    1    2 1  
     2    2    3 1  
     3    2    7 1  
     4    3    4 1  
     5    4    5 1  
     6    5    6 1  
     7    5    8 1  
     8    6    7 1  
     9    8    9 ar 
    10    8   37 ar 
    11    9   10 ar 
    12   10   11 ar 
    13   11   12 1  
    14   11   36 ar 
    15   12   13 1  
    16   13   14 ar 
    17   13   25 ar 
    18   14   15 ar 
    19   15   16 ar 
    20   16   17 1  
    21   16   24 ar 
    22   17   18 2  
    23   17   19 am 
    24   19   20 1  
    25   19   23 1  
    26   20   21 1  
    27   21   22 2  
    28   23   24 1  
    29   23   26 1  
    30   24   25 ar 
    31   26   27 ar 
    32   26   31 ar 
    33   27   28 ar 
    34   28   29 ar 
    35   28   32 1  
    36   29   30 ar 
    37   30   31 ar 
    38   32   33 1  
    39   32   34 1  
    40   32   35 1  
    41   36   37 ar 
    42    1   38 1  
    43    1   39 1  
    44    1   40 1  
    45    2   41 1  
    46    3   42 1  
    47    3   43 1  
    48    4   44 1  
    49    4   45 1  
    50    6   46 1  
    51    6   47 1  
    52    7   48 1  
    53    7   49 1  
    54    9   50 1  
    55   10   51 1  
    56   12   52 1  
    57   15   53 1  
    58   20   54 1  
    59   20   55 1  
    60   21   56 1  
    61   22   57 1  
    62   22   58 1  
    63   29   59 1  
    64   30   60 1  
    65   31   61 1  
    66   33   62 1  
    67   33   63 1  
    68   33   64 1  
    69   34   65 1  
    70   34   66 1  
    71   34   67 1  
    72   35   68 1  
    73   36   69 1  
    74   37   70 1  
@<TRIPOS>SUBSTRUCTURE
     1 8X7         1

