### 
### Created by X-TOOL on Mon Sep 10 21:13:34 2018
### 

@<TRIPOS>MOLECULE
5vdu_ligand
   19    20     1     0     0
SMALL
GAST_HUCK


@<TRIPOS>ATOM
      1 N3        -30.6570   18.8680  -24.3650 N.ar      1 9BS        -0.2549
      2 C4        -30.2750   16.5340  -23.8920 C.ar      1 9BS         0.0930
      3 N2        -31.2580   17.2240  -25.9840 N.ar      1 9BS        -0.2549
      4 C7        -31.6930   18.2090  -26.7810 C.ar      1 9BS         0.0300
      5 C6        -30.7580   17.6070  -24.8030 C.ar      1 9BS         0.1467
      6 C9        -31.1070   19.8140  -25.2020 C.ar      1 9BS         0.0300
      7 C8        -31.6410   19.5390  -26.4380 C.ar      1 9BS        -0.0080
      8 C1        -29.8360   14.2430  -23.4100 C.ar      1 9BS        -0.0381
      9 C2        -29.3950   14.6170  -22.1620 C.ar      1 9BS        -0.0308
     10 C3        -29.4170   15.9570  -21.8410 C.ar      1 9BS         0.0147
     11 N1        -29.8450   16.9170  -22.6770 N.ar      1 9BS        -0.2824
     12 C5        -30.2830   15.2060  -24.2940 C.ar      1 9BS        -0.0189
     13 H1        -32.1076   17.9433  -27.7467 H         1 9BS         0.0943
     14 H2        -31.0464   20.8495  -24.8873 H         1 9BS         0.0943
     15 H3        -31.9980   20.3201  -27.0994 H         1 9BS         0.0783
     16 H4        -29.8328   13.1981  -23.6984 H         1 9BS         0.0745
     17 H5        -29.0404   13.8791  -21.4515 H         1 9BS         0.0734
     18 H6        -29.0691   16.2530  -20.8579 H         1 9BS         0.0838
     19 H7        -30.6330   14.9296  -25.2820 H         1 9BS         0.0750
@<TRIPOS>BOND
     1    5    1 ar 
     2    1    6 ar 
     3    2    5 1  
     4    2   11 ar 
     5   12    2 ar 
     6    3    4 ar 
     7    5    3 ar 
     8    4    7 ar 
     9    6    7 ar 
    10    8    9 ar 
    11    8   12 ar 
    12    9   10 ar 
    13   10   11 ar 
    14    4   13 1  
    15    6   14 1  
    16    7   15 1  
    17    8   16 1  
    18    9   17 1  
    19   10   18 1  
    20   12   19 1  
@<TRIPOS>SUBSTRUCTURE
     1 9BS         1

