### 
### Created by X-TOOL on Mon Sep 10 21:13:33 2018
### 

@<TRIPOS>MOLECULE
5vdv_ligand
   19    21     1     0     0
SMALL
GAST_HUCK


@<TRIPOS>ATOM
      1 C4        -30.1140   18.6760  -24.0880 C.2       1 9BV         0.0235
      2 C7        -29.0420   16.7220  -23.0470 C.2       1 9BV         0.3342
      3 C6        -29.8800   16.6220  -25.3730 C.2       1 9BV        -0.0405
      4 C9        -29.3770   18.8790  -21.9300 C.2       1 9BV         0.2285
      5 C1        -30.4880   17.2170  -26.4390 C.2       1 9BV        -0.0613
      6 C2        -30.9170   18.5290  -26.3620 C.2       1 9BV        -0.0638
      7 C3        -30.7400   19.2560  -25.2190 C.2       1 9BV        -0.0487
      8 C5        -29.6720   17.3290  -24.1640 C.2       1 9BV         0.1068
      9 N8        -28.8990   17.5040  -21.9350 N.pl3     1 9BV        -0.0227
     10 N10       -29.9610   19.4440  -22.9650 N.2       1 9BV        -0.3027
     11 N11       -29.0490   19.3100  -20.6500 N.2       1 9BV        -0.2358
     12 N12       -28.4460   18.3320  -19.9480 N.2       1 9BV        -0.1577
     13 N13       -28.3460   17.2480  -20.6920 N.2       1 9BV        -0.0494
     14 O14       -28.6380   15.4880  -23.1160 O.3       1 9BV        -0.2421
     15 H1        -29.5495   15.5874  -25.4529 H         1 9BV         0.0707
     16 H2        -30.6369   16.6536  -27.3590 H         1 9BV         0.0535
     17 H3        -31.4016   18.9882  -27.2224 H         1 9BV         0.0678
     18 H4        -31.0826   20.2889  -25.1769 H         1 9BV         0.0535
     19 H5        -29.0822   14.9730  -22.4528 H         1 9BV         0.2862
@<TRIPOS>BOND
     1    1    7 1  
     2    8    1 1  
     3    1   10 2  
     4    8    2 2  
     5    2    9 1  
     6    2   14 1  
     7    3    5 2  
     8    3    8 1  
     9    9    4 1  
    10    4   10 1  
    11    4   11 2  
    12    5    6 1  
    13    6    7 2  
    14    9   13 1  
    15   11   12 1  
    16   12   13 2  
    17    3   15 1  
    18    5   16 1  
    19    6   17 1  
    20    7   18 1  
    21   14   19 1  
@<TRIPOS>SUBSTRUCTURE
     1 9BV         1

