### 
### Created by X-TOOL on Mon Sep 10 21:13:34 2018
### 

@<TRIPOS>MOLECULE
5vdw_ligand
   26    28     1     0     0
SMALL
GAST_HUCK


@<TRIPOS>ATOM
      1 N3        -30.9620   16.4800  -25.3140 N.2       1 9BY        -0.2944
      2 C4        -30.0040   19.6220  -22.3450 C.ar      1 9BY         0.0841
      3 N2        -30.1770   18.4220  -23.0350 N.pl3     1 9BY        -0.2244
      4 C7        -30.7530   18.7570  -24.2440 C.2       1 9BY         0.1426
      5 C6        -30.4720   21.9410  -22.7830 C.ar      1 9BY        -0.0628
      6 C9        -28.4750   17.0320  -21.8650 C.2       1 9BY         0.0638
      7 C8        -29.8320   17.1020  -22.5240 C.3       1 9BY         0.1071
      8 C1        -29.9580   22.2420  -21.5300 C.ar      1 9BY        -0.0771
      9 C2        -29.4720   21.2410  -20.6950 C.ar      1 9BY        -0.0753
     10 C3        -29.4880   19.9110  -21.0920 C.ar      1 9BY        -0.0402
     11 C5        -30.4930   20.6100  -23.1910 C.ar      1 9BY         0.0279
     12 N1        -30.9590   20.0510  -24.3800 N.2       1 9BY        -0.3128
     13 O1        -28.3200   16.5720  -20.7510 O.co2     1 9BY        -0.5663
     14 O2        -27.5010   17.5130  -22.5940 O.co2     1 9BY        -0.5663
     15 C10       -31.1430   17.8570  -25.3400 C.2       1 9BY         0.0864
     16 C11       -31.7120   18.3280  -26.4800 C.2       1 9BY         0.0406
     17 S1        -32.0500   17.0710  -27.5780 S.3       1 9BY         0.0084
     18 C12       -31.3950   15.9660  -26.4220 C.2       1 9BY         0.0809
     19 H1        -30.8489   22.7248  -23.4301 H         1 9BY         0.0545
     20 H2        -29.8452   16.3919  -23.3640 H         1 9BY         0.0769
     21 H3        -30.5911   16.8087  -21.7839 H         1 9BY         0.0769
     22 H4        -29.9347   23.2731  -21.1964 H         1 9BY         0.0521
     23 H5        -29.0753   21.5033  -19.7209 H         1 9BY         0.0538
     24 H6        -29.1106   19.1271  -20.4454 H         1 9BY         0.0543
     25 H7        -31.9255   19.3791  -26.6684 H         1 9BY         0.0905
     26 H8        -31.3486   14.8951  -26.6143 H         1 9BY         0.1186
@<TRIPOS>BOND
     1   15    1 1  
     2    1   18 2  
     3    2    3 1  
     4    2   10 ar 
     5   11    2 ar 
     6    3    4 1  
     7    3    7 1  
     8    4   12 2  
     9    4   15 1  
    10    5    8 ar 
    11    5   11 ar 
    12    7    6 1  
    13    6   13 ar 
    14    6   14 ar 
    15    8    9 ar 
    16    9   10 ar 
    17   11   12 1  
    18   15   16 2  
    19   16   17 1  
    20   17   18 1  
    21    5   19 1  
    22    7   20 1  
    23    7   21 1  
    24    8   22 1  
    25    9   23 1  
    26   10   24 1  
    27   16   25 1  
    28   18   26 1  
@<TRIPOS>SUBSTRUCTURE
     1 9BY         1

