### 
### Created by X-TOOL on Mon Sep 10 21:13:34 2018
### 

@<TRIPOS>MOLECULE
5vee_ligand
   61    65     1     0     0
SMALL
GAST_HUCK


@<TRIPOS>ATOM
      1 CAB       -25.6430   13.9270  -17.2170 C.ar      1 981         0.0398
      2 CAC       -26.6720   13.8190  -18.1090 C.ar      1 981        -0.0347
      3 CAD       -27.9270   13.4860  -17.6890 C.ar      1 981         0.0474
      4 CAG       -39.9840   12.8330  -10.6020 C.3       1 981         0.0642
      5 CAH       -40.6620   13.6170   -9.4630 C.3       1 981        -0.0140
      6 CAJ       -25.8470   13.6900  -15.8680 C.ar      1 981        -0.0485
      7 CAK       -27.1030   13.3440  -15.4110 C.ar      1 981        -0.0545
      8 CAL       -28.1120   13.2320  -16.3280 C.ar      1 981        -0.0033
      9 CAM       -29.4810   12.8570  -15.8390 C.2       1 981         0.0118
     10 CAN       -30.0660   11.6460  -16.2890 C.2       1 981        -0.0545
     11 CAO       -31.4130   11.3990  -15.7910 C.ar      1 981         0.0238
     12 CAP       -32.0150   10.2460  -16.2170 C.ar      1 981         0.0044
     13 CAR       -35.6190   12.2070  -12.7710 C.ar      1 981        -0.0153
     14 CAS       -36.5130   12.9230  -11.9880 C.ar      1 981         0.1403
     15 CAT       -37.8900   12.6990  -12.0320 C.ar      1 981         0.0641
     16 CAV       -38.8690   14.9320  -11.3360 C.3       1 981         0.0642
     17 CAW       -38.9730   15.4450   -9.9030 C.3       1 981        -0.0140
     18 CAX       -30.2070   13.8070  -14.8890 C.3       1 981         0.1755
     19 CAZ       -32.0760   12.2600  -14.9270 C.ar      1 981         0.1282
     20 CBB       -33.9050   10.7700  -14.9330 C.ar      1 981         0.1901
     21 CBD       -36.0990   11.2520  -13.6400 C.ar      1 981         0.0512
     22 CBE       -37.4760   11.0090  -13.6740 C.ar      1 981        -0.0528
     23 CBF       -38.3800   11.7320  -12.8730 C.ar      1 981        -0.0542
     24 CBH       -32.3230   14.3000  -13.4640 C.3       1 981         0.0348
     25 CBI       -32.1280   15.8250  -13.5120 C.3       1 981        -0.0439
     26 FAF       -35.9480   13.8360  -11.1750 F         1 981        -0.1953
     27 NAI       -40.2210   14.9970   -9.2890 N.4       1 981         0.2297
     28 NAQ       -33.2650    9.9340  -15.7940 N.ar      1 981        -0.2722
     29 NAU       -38.8180   13.4720  -11.2000 N.pl3     1 981        -0.3044
     30 NAY       -31.5160   13.4860  -14.4420 N.pl3     1 981        -0.2513
     31 NBA       -33.2810   11.8980  -14.5280 N.ar      1 981        -0.2394
     32 NBC       -35.2360   10.4250  -14.4820 N.pl3     1 981        -0.2534
     33 OBG       -29.5450   14.9590  -14.4870 O.3       1 981        -0.3573
     34 CLAA      -24.0880   14.3810  -17.9640 Cl        1 981        -0.0712
     35 CLAE      -29.1200   13.3890  -19.0090 Cl        1 981        -0.0700
     36 H1        -26.4896   13.9998  -19.1621 H         1 981         0.0626
     37 H2        -40.7291   12.6777  -11.3961 H         1 981         0.0561
     38 H3        -39.6674   11.8590  -10.2006 H         1 981         0.0561
     39 H4        -40.4685   13.0802   -8.5226 H         1 981         0.0833
     40 H5        -41.7439   13.6314   -9.6611 H         1 981         0.0833
     41 H6        -25.0210   13.7761  -15.1713 H         1 981         0.0621
     42 H7        -27.2842   13.1664  -14.3571 H         1 981         0.0615
     43 H8        -29.5495   10.9554  -16.9540 H         1 981         0.0467
     44 H9        -31.4914    9.5808  -16.8940 H         1 981         0.0816
     45 H10       -34.5542   12.3971  -12.6997 H         1 981         0.0492
     46 H11       -37.9558   15.3097  -11.8190 H         1 981         0.0561
     47 H12       -39.7476   15.2374  -11.9232 H         1 981         0.0561
     48 H13       -38.9469   16.5447   -9.9092 H         1 981         0.0833
     49 H14       -38.1238   15.0614   -9.3185 H         1 981         0.0833
     50 H15       -30.6374   14.3512  -15.7426 H         1 981         0.1044
     51 H16       -37.8584   10.2412  -14.3368 H         1 981         0.0474
     52 H17       -39.4437   11.5285  -12.9198 H         1 981         0.0478
     53 H18       -33.3863   14.0932  -13.6551 H         1 981         0.0529
     54 H19       -32.0599   13.9615  -12.4510 H         1 981         0.0529
     55 H20       -32.7684   16.3005  -12.7545 H         1 981         0.0250
     56 H21       -32.4013   16.1984  -14.5099 H         1 981         0.0250
     57 H22       -31.0749   16.0667  -13.3058 H         1 981         0.0250
     58 H23       -40.1296   15.1510   -8.2971 H         1 981         0.2015
     59 H24       -40.9533   15.5854   -9.6544 H         1 981         0.2015
     60 H25       -35.6097    9.5132  -14.7817 H         1 981         0.2146
     61 H26       -28.6874   14.9886  -14.8945 H         1 981         0.2156
@<TRIPOS>BOND
     1    2    1 ar 
     2    6    1 ar 
     3    1   34 1  
     4    3    2 ar 
     5    8    3 ar 
     6    3   35 1  
     7    4    5 1  
     8   29    4 1  
     9    5   27 1  
    10    7    6 ar 
    11    8    7 ar 
    12    9    8 1  
    13    9   10 2  
    14   18    9 1  
    15   11   10 1  
    16   11   12 ar 
    17   19   11 ar 
    18   12   28 ar 
    19   13   14 ar 
    20   21   13 ar 
    21   14   15 ar 
    22   14   26 1  
    23   23   15 ar 
    24   15   29 1  
    25   16   17 1  
    26   29   16 1  
    27   17   27 1  
    28   30   18 1  
    29   18   33 1  
    30   30   19 1  
    31   19   31 ar 
    32   20   28 ar 
    33   31   20 ar 
    34   20   32 1  
    35   21   22 ar 
    36   32   21 1  
    37   22   23 ar 
    38   24   25 1  
    39   24   30 1  
    40    2   36 1  
    41    4   37 1  
    42    4   38 1  
    43    5   39 1  
    44    5   40 1  
    45    6   41 1  
    46    7   42 1  
    47   10   43 1  
    48   12   44 1  
    49   13   45 1  
    50   16   46 1  
    51   16   47 1  
    52   17   48 1  
    53   17   49 1  
    54   18   50 1  
    55   22   51 1  
    56   23   52 1  
    57   24   53 1  
    58   24   54 1  
    59   25   55 1  
    60   25   56 1  
    61   25   57 1  
    62   27   58 1  
    63   27   59 1  
    64   32   60 1  
    65   33   61 1  
@<TRIPOS>SUBSTRUCTURE
     1 981         1

