### 
### Created by X-TOOL on Mon Sep 10 21:13:34 2018
### 

@<TRIPOS>MOLECULE
5vew_ligand
   64    67     1     0     0
SMALL
GAST_HUCK


@<TRIPOS>ATOM
      1 C13        22.0530   32.3510   30.4030 C.3       1 97Y         0.0746
      2 C15        22.8030   32.6810   32.7920 C.3       1 97Y        -0.0410
      3 C17        21.0420   32.9710   29.4010 C.ar      1 97Y        -0.0136
      4 C20        22.1450   29.9500   29.3900 C.ar      1 97Y         0.0638
      5 C21        22.2790   23.6820   24.9200 C.3       1 97Y         0.3571
      6 C22        22.1730   25.7830   26.4490 C.2       1 97Y         0.1187
      7 C24        22.9830   29.3340   27.2400 C.ar      1 97Y        -0.0043
      8 C26        19.6650   32.8230   29.5950 C.ar      1 97Y        -0.0522
      9 C28        22.8440   30.3090   28.2320 C.ar      1 97Y        -0.0254
     10 F01        22.2220   23.5350   23.5590 F         1 97Y        -0.2452
     11 F02        23.2940   22.9040   25.3940 F         1 97Y        -0.2452
     12 F03        21.1020   23.2960   25.5090 F         1 97Y        -0.2452
     13 O04        18.6300   35.4830   25.7590 O.2       1 97Y        -0.3878
     14 O05        13.1990   34.2410   26.7400 O.co2     1 97Y        -0.5689
     15 O06        12.8210   34.0950   24.5940 O.co2     1 97Y        -0.5689
     16 N07        22.6190   27.0260   26.3800 N.pl3     1 97Y        -0.1501
     17 N08        21.9140   30.8820   30.4900 N.pl3     1 97Y        -0.3040
     18 N09        23.2180   26.0270   24.5580 N.2       1 97Y        -0.2946
     19 N10        21.8360   27.7440   28.5520 N.ar      1 97Y        -0.2755
     20 N11        16.8020   34.7940   26.9710 N.am      1 97Y        -0.2855
     21 C12        21.7560   32.9210   31.7380 C.3       1 97Y        -0.0070
     22 C14        22.6880   34.1390   33.1910 C.3       1 97Y        -0.0339
     23 C16        22.0270   34.4040   31.8630 C.3       1 97Y        -0.0410
     24 C18        22.5590   25.1400   25.2830 C.2       1 97Y         0.0994
     25 C19        22.4540   28.0500   27.4140 C.ar      1 97Y         0.1796
     26 C23        23.2580   27.1650   25.2260 C.2       1 97Y         0.1429
     27 C25        21.5140   33.7690   28.3570 C.ar      1 97Y        -0.0522
     28 C27        21.6690   28.6450   29.5130 C.ar      1 97Y         0.0251
     29 C29        21.7580   34.4020   34.3870 C.3       1 97Y        -0.0598
     30 C30        24.0510   34.8130   33.3200 C.3       1 97Y        -0.0598
     31 C31        19.2320   34.1980   27.6580 C.ar      1 97Y         0.0427
     32 C32        20.6110   34.3750   27.4830 C.ar      1 97Y        -0.0484
     33 C33        18.7630   33.4300   28.7260 C.ar      1 97Y        -0.0484
     34 C34        18.2330   34.8770   26.7050 C.2       1 97Y         0.2000
     35 C35        15.8290   35.4410   26.1070 C.3       1 97Y         0.0417
     36 C36        15.1190   34.4120   25.2400 C.3       1 97Y         0.0203
     37 C37        13.6270   34.2470   25.5500 C.2       1 97Y         0.0367
     38 H1         23.0788   32.6047   30.0973 H         1 97Y         0.0726
     39 H2         23.7886   32.3952   32.3960 H         1 97Y         0.0275
     40 H3         22.5029   31.9707   33.5765 H         1 97Y         0.0275
     41 H4         21.6071   25.3453   27.2700 H         1 97Y         0.1510
     42 H5         23.5080   29.5758   26.3229 H         1 97Y         0.0667
     43 H6         19.2982   32.2324   30.4266 H         1 97Y         0.0570
     44 H7         23.2605   31.3023   28.1093 H         1 97Y         0.0627
     45 H8         21.6321   30.4847   31.3976 H         1 97Y         0.1798
     46 H9         16.4824   34.2797   27.7668 H         1 97Y         0.1844
     47 H10        20.7414   32.6210   32.0389 H         1 97Y         0.0346
     48 H11        21.1225   35.0271   31.9227 H         1 97Y         0.0275
     49 H12        22.7009   34.8086   31.0935 H         1 97Y         0.0275
     50 H13        23.7416   28.0781   24.8822 H         1 97Y         0.1398
     51 H14        22.5798   33.9174   28.2258 H         1 97Y         0.0570
     52 H15        21.1477   28.3579   30.4191 H         1 97Y         0.0709
     53 H16        22.2960   34.1915   35.3231 H         1 97Y         0.0235
     54 H17        20.8759   33.7486   34.3162 H         1 97Y         0.0235
     55 H18        21.4368   35.4540   34.3774 H         1 97Y         0.0235
     56 H19        24.6595   34.5822   32.4332 H         1 97Y         0.0235
     57 H20        24.5603   34.4408   34.2211 H         1 97Y         0.0235
     58 H21        23.9157   35.9018   33.3986 H         1 97Y         0.0235
     59 H22        20.9776   34.9851   26.6654 H         1 97Y         0.0652
     60 H23        17.6968   33.3067   28.8781 H         1 97Y         0.0652
     61 H24        16.3448   36.1656   25.4598 H         1 97Y         0.0537
     62 H25        15.0871   35.9660   26.7267 H         1 97Y         0.0537
     63 H26        15.6109   33.4392   25.3873 H         1 97Y         0.0450
     64 H27        15.2204   34.7187   24.1885 H         1 97Y         0.0450
@<TRIPOS>BOND
     1    3    1 1  
     2    1   17 1  
     3    1   21 1  
     4   21    2 1  
     5    2   22 1  
     6    8    3 ar 
     7   27    3 ar 
     8    4    9 ar 
     9   17    4 1  
    10    4   28 ar 
    11    5   10 1  
    12    5   11 1  
    13    5   12 1  
    14   24    5 1  
    15   16    6 1  
    16    6   24 2  
    17    9    7 ar 
    18    7   25 ar 
    19   33    8 ar 
    20   34   13 2  
    21   37   14 ar 
    22   37   15 ar 
    23   25   16 1  
    24   16   26 1  
    25   18   24 1  
    26   26   18 2  
    27   19   25 ar 
    28   28   19 ar 
    29   20   34 am 
    30   35   20 1  
    31   21   23 1  
    32   23   22 1  
    33   22   29 1  
    34   22   30 1  
    35   32   27 ar 
    36   31   32 ar 
    37   31   33 ar 
    38   34   31 1  
    39   36   35 1  
    40   36   37 1  
    41    1   38 1  
    42    2   39 1  
    43    2   40 1  
    44    6   41 1  
    45    7   42 1  
    46    8   43 1  
    47    9   44 1  
    48   17   45 1  
    49   20   46 1  
    50   21   47 1  
    51   23   48 1  
    52   23   49 1  
    53   26   50 1  
    54   27   51 1  
    55   28   52 1  
    56   29   53 1  
    57   29   54 1  
    58   29   55 1  
    59   30   56 1  
    60   30   57 1  
    61   30   58 1  
    62   32   59 1  
    63   33   60 1  
    64   35   61 1  
    65   35   62 1  
    66   36   63 1  
    67   36   64 1  
@<TRIPOS>SUBSTRUCTURE
     1 97Y         1

