### 
### Created by X-TOOL on Mon Sep 10 21:13:34 2018
### 

@<TRIPOS>MOLECULE
5vex_ligand
   72    76     1     0     0
SMALL
GAST_HUCK


@<TRIPOS>ATOM
      1 CAA        23.5040  -20.2240  -27.2760 C.3       1 97V         0.0593
      2 CAE        22.1090  -22.0640  -29.1600 C.ar      1 97V         0.0743
      3 CAF        21.6600  -21.0710  -30.0290 C.ar      1 97V        -0.0526
      4 CAG        21.4450  -21.3620  -31.3730 C.ar      1 97V        -0.0739
      5 CAH        21.6760  -22.6520  -31.8530 C.ar      1 97V        -0.0414
      6 CAI        22.1020  -23.6680  -30.9970 C.ar      1 97V         0.0689
      7 CAK        22.5940  -26.2310  -30.8190 C.2       1 97V         0.3198
      8 CAN        23.1230  -28.7210  -30.7370 C.3       1 97V         0.0910
      9 CAO        21.9090  -29.1350  -29.9120 C.ar      1 97V        -0.0110
     10 CAP        20.6500  -29.2330  -30.5020 C.ar      1 97V        -0.0520
     11 CAQ        19.5610  -29.6030  -29.7240 C.ar      1 97V        -0.0478
     12 CAR        19.7400  -29.8680  -28.3650 C.ar      1 97V         0.0504
     13 CAS        18.5380  -30.2640  -27.5120 C.2       1 97V         0.2371
     14 CAV        16.0100  -30.1290  -27.2030 C.2       1 97V         0.2803
     15 NAJ        22.3650  -24.9970  -31.5750 N.am      1 97V        -0.2143
     16 NAM        22.8660  -27.5100  -31.5120 N.am      1 97V        -0.1920
     17 NAU        17.2200  -29.8110  -27.9310 N.am      1 97V        -0.1822
     18 NAW        15.9040  -30.8020  -26.0220 N.pl3     1 97V        -0.1360
     19 NAX        14.5980  -30.8720  -25.7130 N.2       1 97V        -0.0836
     20 NAY        13.8980  -30.2740  -26.6500 N.2       1 97V        -0.1670
     21 NAZ        14.7450  -29.8050  -27.5840 N.2       1 97V        -0.2198
     22 OAC        23.1200  -22.9590  -26.6560 O.2       1 97V        -0.1699
     23 OAD        20.9720  -21.3250  -26.6400 O.2       1 97V        -0.1699
     24 OAL        22.5500  -26.2060  -29.6310 O.2       1 97V        -0.3807
     25 OAT        18.6910  -30.9200  -26.5310 O.2       1 97V        -0.3727
     26 SAB        22.4010  -21.6660  -27.4000 S.o2      1 97V        -0.0093
     27 CBA        21.0000  -29.7640  -27.7810 C.ar      1 97V        -0.0478
     28 CBB        22.0880  -29.3890  -28.5560 C.ar      1 97V        -0.0520
     29 CBC        22.9730  -27.6420  -32.9680 C.ar      1 97V         0.0656
     30 CBD        22.1700  -28.5710  -33.6460 C.ar      1 97V        -0.0472
     31 CBE        22.3210  -28.7670  -35.0210 C.ar      1 97V        -0.0731
     32 CBF        23.3030  -28.0660  -35.7360 C.ar      1 97V        -0.0546
     33 CBG        23.4620  -28.2630  -37.2760 C.3       1 97V        -0.0143
     34 CBH        24.9500  -28.2350  -37.6950 C.3       1 97V        -0.0424
     35 CBI        25.1700  -28.5140  -39.1910 C.3       1 97V        -0.0513
     36 CBJ        24.4360  -29.7700  -39.6980 C.3       1 97V        -0.0528
     37 CBK        22.9570  -29.8290  -39.2650 C.3       1 97V        -0.0513
     38 CBL        22.7460  -29.5410  -37.7680 C.3       1 97V        -0.0424
     39 CBM        24.1170  -27.1520  -35.0470 C.ar      1 97V        -0.0731
     40 CBN        23.9820  -26.9720  -33.6670 C.ar      1 97V        -0.0472
     41 CBO        22.3490  -23.3560  -29.6510 C.ar      1 97V        -0.0168
     42 H1         23.6786  -19.9860  -26.2163 H         1 97V         0.0468
     43 H2         23.0369  -19.3612  -27.7734 H         1 97V         0.0468
     44 H3         24.4633  -20.4531  -27.7632 H         1 97V         0.0468
     45 H4         21.4777  -20.0693  -29.6570 H         1 97V         0.0505
     46 H5         21.0982  -20.5869  -32.0468 H         1 97V         0.0577
     47 H6         21.5225  -22.8673  -32.9043 H         1 97V         0.0501
     48 H7         23.3792  -29.5378  -31.4278 H         1 97V         0.0756
     49 H8         23.9685  -28.5362  -30.0580 H         1 97V         0.0756
     50 H9         20.5223  -29.0225  -31.5577 H         1 97V         0.0571
     51 H10        18.5764  -29.6857  -30.1698 H         1 97V         0.0652
     52 H11        22.3894  -25.0630  -32.5725 H         1 97V         0.2262
     53 H12        17.1470  -29.2551  -28.7590 H         1 97V         0.2377
     54 H13        16.6825  -31.1865  -25.4679 H         1 97V         0.2663
     55 H14        21.1301  -29.9751  -26.7257 H         1 97V         0.0652
     56 H15        23.0706  -29.2946  -28.1081 H         1 97V         0.0571
     57 H16        21.4272  -29.1407  -33.0994 H         1 97V         0.0486
     58 H17        21.6744  -29.4660  -35.5390 H         1 97V         0.0520
     59 H18        22.9708  -27.4092  -37.7656 H         1 97V         0.0433
     60 H19        25.4897  -28.9983  -37.1152 H         1 97V         0.0287
     61 H20        25.3589  -27.2407  -37.4623 H         1 97V         0.0287
     62 H21        26.2479  -28.6470  -39.3652 H         1 97V         0.0267
     63 H22        24.8103  -27.6462  -39.7633 H         1 97V         0.0267
     64 H23        24.9509  -30.6584  -39.3035 H         1 97V         0.0265
     65 H24        24.4785  -29.7794  -40.7971 H         1 97V         0.0265
     66 H25        22.5694  -30.8348  -39.4845 H         1 97V         0.0267
     67 H26        22.3937  -29.0840  -39.8460 H         1 97V         0.0267
     68 H27        21.6674  -29.4276  -37.5846 H         1 97V         0.0287
     69 H28        23.1279  -30.3969  -37.1922 H         1 97V         0.0287
     70 H29        24.8588  -26.5792  -35.5917 H         1 97V         0.0520
     71 H30        24.6604  -26.3122  -33.1383 H         1 97V         0.0486
     72 H31        22.7291  -24.1213  -28.9840 H         1 97V         0.0520
@<TRIPOS>BOND
     1   26    1 1  
     2    2    3 ar 
     3    2   26 1  
     4   41    2 ar 
     5    4    3 ar 
     6    5    4 ar 
     7    6    5 ar 
     8   15    6 1  
     9    6   41 ar 
    10    7   15 am 
    11   16    7 am 
    12    7   24 2  
    13    8    9 1  
    14    8   16 1  
    15    9   10 ar 
    16    9   28 ar 
    17   10   11 ar 
    18   11   12 ar 
    19   12   13 1  
    20   12   27 ar 
    21   13   17 am 
    22   13   25 2  
    23   17   14 1  
    24   14   18 1  
    25   14   21 2  
    26   16   29 1  
    27   18   19 1  
    28   19   20 2  
    29   20   21 1  
    30   26   22 2  
    31   26   23 2  
    32   27   28 ar 
    33   29   30 ar 
    34   29   40 ar 
    35   30   31 ar 
    36   31   32 ar 
    37   32   33 1  
    38   32   39 ar 
    39   33   34 1  
    40   33   38 1  
    41   34   35 1  
    42   35   36 1  
    43   36   37 1  
    44   37   38 1  
    45   39   40 ar 
    46    1   42 1  
    47    1   43 1  
    48    1   44 1  
    49    3   45 1  
    50    4   46 1  
    51    5   47 1  
    52    8   48 1  
    53    8   49 1  
    54   10   50 1  
    55   11   51 1  
    56   15   52 1  
    57   17   53 1  
    58   18   54 1  
    59   27   55 1  
    60   28   56 1  
    61   30   57 1  
    62   31   58 1  
    63   33   59 1  
    64   34   60 1  
    65   34   61 1  
    66   35   62 1  
    67   35   63 1  
    68   36   64 1  
    69   36   65 1  
    70   37   66 1  
    71   37   67 1  
    72   38   68 1  
    73   38   69 1  
    74   39   70 1  
    75   40   71 1  
    76   41   72 1  
@<TRIPOS>SUBSTRUCTURE
     1 97V         1

