### 
### Created by X-TOOL on Mon Sep 10 21:13:30 2018
### 

@<TRIPOS>MOLECULE
5vfc_ligand
   86    87     1     0     0
SMALL
GAST_HUCK


@<TRIPOS>ATOM
      1 C15        25.0350   -2.6430   18.6930 C.3       1 9BA         0.0514
      2 N4         24.1640   -3.6890   19.2120 N.pl3     1 9BA        -0.2749
      3 C14        23.1120   -3.3490   20.0950 C.cat     1 9BA         0.2901
      4 N5         23.1060   -2.2180   20.7370 N.pl3     1 9BA        -0.2848
      5 N3         22.0910   -4.3030   20.1820 N.pl3     1 9BA        -0.2722
      6 C13        20.9440   -4.1810   21.0320 C.3       1 9BA         0.0627
      7 C12        21.2170   -4.6730   22.4500 C.3       1 9BA        -0.0156
      8 C11        21.4650   -6.1660   22.4350 C.3       1 9BA        -0.0091
      9 C10        21.4860   -6.6940   23.8720 C.3       1 9BA         0.1312
     10 C27        20.1230   -6.4910   24.5490 C.2       1 9BA         0.2041
     11 O3         19.8620   -5.4540   25.1690 O.2       1 9BA        -0.3944
     12 N2         21.9300   -8.0820   23.8780 N.am      1 9BA        -0.2629
     13 N7         19.2160   -7.4770   24.4170 N.am      1 9BA        -0.2637
     14 C24        17.8630   -7.3490   24.9860 C.3       1 9BA         0.1309
     15 C23        17.8500   -7.8580   26.4320 C.2       1 9BA         0.2056
     16 O4         16.7550   -7.8980   27.0240 O.2       1 9BA        -0.3942
     17 C25        16.9330   -8.2400   24.1360 C.3       1 9BA        -0.0152
     18 C26        16.9520   -7.7970   22.6590 C.3       1 9BA        -0.0610
     19 O1         19.8790  -10.2740   24.5100 O.2       1 9BA        -0.3969
     20 C6         19.1080  -12.8170   23.4190 C.3       1 9BA        -0.0456
     21 C7         19.4690  -10.9890   21.7030 C.3       1 9BA        -0.0456
     22 C9         22.1370   -8.7000   25.0730 C.2       1 9BA         0.2264
     23 C8         24.1410   -9.9660   24.5380 C.3       1 9BA        -0.0319
     24 N1         22.0040  -10.9200   23.9840 N.am      1 9BA        -0.2759
     25 C5         20.1220  -11.8560   22.7520 C.3       1 9BA         0.0428
     26 C4         20.6410  -10.9480   23.8270 C.2       1 9BA         0.1778
     27 C3         22.7010  -10.1490   24.9940 C.3       1 9BA         0.1320
     28 C2         22.7760  -10.8380   26.3810 C.3       1 9BA         0.0001
     29 C1         21.4910  -11.4470   26.9620 C.3       1 9BA         0.0326
     30 O2         21.8880   -8.1210   26.1230 O.2       1 9BA        -0.3419
     31 N          20.4540  -10.4440   27.1580 N.am      1 9BA        -0.2835
     32 N6         19.0440   -8.1850   27.0470 N.am      1 9BA        -0.2531
     33 C16        19.1220   -8.7460   28.3740 C.3       1 9BA         0.1643
     34 C17        19.5370   -7.6500   29.3590 C.ar      1 9BA         0.0010
     35 C18        18.8800   -7.5610   30.5740 C.ar      1 9BA        -0.0557
     36 C19        19.2100   -6.5650   31.4660 C.ar      1 9BA        -0.0681
     37 C20        20.1970   -5.6560   31.1680 C.ar      1 9BA        -0.0684
     38 C21        20.8540   -5.7030   29.9600 C.ar      1 9BA        -0.0681
     39 C22        20.5320   -6.7100   29.0370 C.ar      1 9BA        -0.0557
     40 C          20.1900   -9.8520   28.3700 C.2       1 9BA         0.2135
     41 O          20.7160  -10.2110   29.4070 O.2       1 9BA        -0.3915
     42 H1         25.7886   -3.0899   18.0279 H         1 9BA         0.0652
     43 H2         25.5385   -2.1365   19.5296 H         1 9BA         0.0652
     44 H3         24.4356   -1.9128   18.1295 H         1 9BA         0.0652
     45 H4         24.3131   -4.6706   18.9377 H         1 9BA         0.2639
     46 H5         22.3294   -1.9919   21.3748 H         1 9BA         0.2615
     47 H6         23.8778   -1.5483   20.6077 H         1 9BA         0.2615
     48 H7         22.1695   -5.1472   19.5971 H         1 9BA         0.2642
     49 H8         20.1224   -4.7742   20.6042 H         1 9BA         0.0689
     50 H9         20.6478   -3.1226   21.0761 H         1 9BA         0.0689
     51 H10        20.3472   -4.4536   23.0866 H         1 9BA         0.0301
     52 H11        22.1035   -4.1595   22.8506 H         1 9BA         0.0301
     53 H12        22.4327   -6.3722   21.9544 H         1 9BA         0.0314
     54 H13        20.6624   -6.6655   21.8725 H         1 9BA         0.0314
     55 H14        22.2238   -6.1075   24.4392 H         1 9BA         0.0802
     56 H15        22.0800   -8.5719   23.0192 H         1 9BA         0.1889
     57 H16        19.4649   -8.3108   23.9242 H         1 9BA         0.1883
     58 H17        17.5314   -6.3007   24.9534 H         1 9BA         0.0800
     59 H18        15.9062   -8.1623   24.5228 H         1 9BA         0.0310
     60 H19        17.2724   -9.2841   24.2039 H         1 9BA         0.0310
     61 H20        16.2833   -8.4449   22.0733 H         1 9BA         0.0232
     62 H21        17.9762   -7.8760   22.2656 H         1 9BA         0.0232
     63 H22        16.6100   -6.7542   22.5845 H         1 9BA         0.0232
     64 H23        18.7011  -13.5036   22.6621 H         1 9BA         0.0257
     65 H24        18.2881  -12.2339   23.8636 H         1 9BA         0.0257
     66 H25        19.6143  -13.3963   24.2051 H         1 9BA         0.0257
     67 H26        20.2226  -10.3238   21.2561 H         1 9BA         0.0257
     68 H27        18.6763  -10.3847   22.1682 H         1 9BA         0.0257
     69 H28        19.0323  -11.6266   20.9202 H         1 9BA         0.0257
     70 H29        24.6264  -10.9494   24.4528 H         1 9BA         0.0242
     71 H30        24.6830   -9.3521   25.2724 H         1 9BA         0.0242
     72 H31        24.1547   -9.4643   23.5592 H         1 9BA         0.0242
     73 H32        22.5553  -11.4706   23.3571 H         1 9BA         0.1838
     74 H33        20.9420  -12.4332   22.3000 H         1 9BA         0.0532
     75 H34        23.1336  -10.0857   27.0995 H         1 9BA         0.0297
     76 H35        23.5142  -11.6497   26.3020 H         1 9BA         0.0297
     77 H36        21.7244  -11.9110   27.9316 H         1 9BA         0.0519
     78 H37        21.1165  -12.2146   26.2688 H         1 9BA         0.0519
     79 H38        19.9043  -10.1712   26.3684 H         1 9BA         0.1853
     80 H39        19.8955   -8.0249   26.5477 H         1 9BA         0.1909
     81 H40        18.1470   -9.1632   28.6660 H         1 9BA         0.0960
     82 H41        18.1047   -8.2762   30.8238 H         1 9BA         0.0562
     83 H42        18.6861   -6.4972   32.4126 H         1 9BA         0.0600
     84 H43        20.4606   -4.8939   31.8925 H         1 9BA         0.0561
     85 H44        21.6145   -4.9678   29.7230 H         1 9BA         0.0600
     86 H45        21.0459   -6.7627   28.0840 H         1 9BA         0.0562
@<TRIPOS>BOND
     1    2    1 1  
     2    3    2 ar 
     3    3    4 ar 
     4    5    3 ar 
     5    6    5 1  
     6    7    6 1  
     7    8    7 1  
     8    9    8 1  
     9    9   10 1  
    10   12    9 1  
    11   10   11 2  
    12   10   13 am 
    13   22   12 am 
    14   13   14 1  
    15   14   15 1  
    16   14   17 1  
    17   15   16 2  
    18   15   32 am 
    19   17   18 1  
    20   26   19 2  
    21   25   20 1  
    22   25   21 1  
    23   27   22 1  
    24   22   30 2  
    25   27   23 1  
    26   26   24 am 
    27   24   27 1  
    28   25   26 1  
    29   27   28 1  
    30   28   29 1  
    31   29   31 1  
    32   31   40 am 
    33   32   33 1  
    34   33   34 1  
    35   33   40 1  
    36   34   35 ar 
    37   34   39 ar 
    38   35   36 ar 
    39   36   37 ar 
    40   37   38 ar 
    41   38   39 ar 
    42   40   41 2  
    43    1   42 1  
    44    1   43 1  
    45    1   44 1  
    46    2   45 1  
    47    4   46 1  
    48    4   47 1  
    49    5   48 1  
    50    6   49 1  
    51    6   50 1  
    52    7   51 1  
    53    7   52 1  
    54    8   53 1  
    55    8   54 1  
    56    9   55 1  
    57   12   56 1  
    58   13   57 1  
    59   14   58 1  
    60   17   59 1  
    61   17   60 1  
    62   18   61 1  
    63   18   62 1  
    64   18   63 1  
    65   20   64 1  
    66   20   65 1  
    67   20   66 1  
    68   21   67 1  
    69   21   68 1  
    70   21   69 1  
    71   23   70 1  
    72   23   71 1  
    73   23   72 1  
    74   24   73 1  
    75   25   74 1  
    76   28   75 1  
    77   28   76 1  
    78   29   77 1  
    79   29   78 1  
    80   31   79 1  
    81   32   80 1  
    82   33   81 1  
    83   35   82 1  
    84   36   83 1  
    85   37   84 1  
    86   38   85 1  
    87   39   86 1  
@<TRIPOS>SUBSTRUCTURE
     1 9BA         1

