### 
### Created by X-TOOL on Mon Jan  6 15:52:12 2020
### 

@<TRIPOS>MOLECULE
5vfd_ligand
   28    29     1     0     0
SMALL
GAST_HUCK


@<TRIPOS>ATOM
      1 C1        -37.0730    1.3850   15.0920 C.2       1 9CM        -0.0496
      2 C2        -35.9030    0.7810   15.2940 C.2       1 9CM        -0.0630
      3 C3        -34.6220    1.5350   15.0540 C.3       1 9CM         0.1405
      4 C4        -36.0170    3.0670   13.8400 C.3       1 9CM         0.0725
      5 C5        -37.2710    2.8210   14.6610 C.3       1 9CM         0.1219
      6 C6        -35.3830    3.8500   15.7650 C.2       1 9CM         0.2942
      7 C7        -33.7230    0.8610   13.9860 C.2       1 9CM         0.2030
      8 O5        -33.5130    1.3820   12.8890 O.2       1 9CM        -0.3932
      9 N2        -33.2230   -0.3170   14.3340 N.am      1 9CM        -0.2981
     10 N         -35.0100    2.8890   14.8710 N.am      1 9CM        -0.2281
     11 O         -34.6750    4.3510   16.6160 O.2       1 9CM        -0.4003
     12 N1        -36.7990    3.7440   15.7570 N.am      1 9CM        -0.0950
     13 O1        -37.5130    4.4230   16.7900 O.3       1 9CM        -0.1256
     14 S         -38.5590    5.6020   16.3030 S.o2      1 9CM        -0.0451
     15 O3        -39.3320    5.2470   15.1780 O.co2     1 9CM        -0.4593
     16 O4        -39.5230    5.5810   17.5130 O.co2     1 9CM        -0.4593
     17 O2        -37.7970    6.7760   16.4160 O.co2     1 9CM        -0.4593
     18 C         -38.3980    0.7120   15.3160 C.3       1 9CM        -0.0373
     19 H1        -35.8731   -0.2540   15.6314 H         1 9CM         0.0285
     20 H2        -34.0351    1.5025   15.9837 H         1 9CM         0.0869
     21 H3        -35.9963    4.0829   13.4186 H         1 9CM         0.0568
     22 H4        -35.9075    2.3315   13.0295 H         1 9CM         0.0568
     23 H5        -38.2503    3.0417   14.2112 H         1 9CM         0.0755
     24 H6        -32.6328   -0.8167   13.7000 H         1 9CM         0.1815
     25 H7        -33.4362   -0.7056   15.2304 H         1 9CM         0.1815
     26 H8        -38.2320   -0.3296   15.6283 H         1 9CM         0.0379
     27 H9        -38.9792    0.7266   14.3822 H         1 9CM         0.0379
     28 H10       -38.9525    1.2463   16.1015 H         1 9CM         0.0379
@<TRIPOS>BOND
     1    1    2 2  
     2    1    5 1  
     3    1   18 1  
     4    2    3 1  
     5    3    7 1  
     6    3   10 1  
     7    5    4 1  
     8    4   10 1  
     9    5   12 1  
    10   10    6 am 
    11    6   11 2  
    12    6   12 am 
    13    7    8 2  
    14    7    9 am 
    15   12   13 1  
    16   13   14 1  
    17   14   15 2  
    18   14   16 2  
    19   14   17 2  
    20    2   19 1  
    21    3   20 1  
    22    4   21 1  
    23    4   22 1  
    24    5   23 1  
    25    9   24 1  
    26    9   25 1  
    27   18   26 1  
    28   18   27 1  
    29   18   28 1  
@<TRIPOS>SUBSTRUCTURE
     1 9CM         1

