### 
### Created by X-TOOL on Mon Sep 10 21:13:33 2018
### 

@<TRIPOS>MOLECULE
5vfj_ligand
   20    20     1     0     0
SMALL
GAST_HUCK


@<TRIPOS>ATOM
      1 C1         -5.5180    4.9440   56.1150 C.2       1 DHC         0.0477
      2 O1         -6.2330    4.1210   55.5340 O.co2     1 DHC        -0.5654
      3 C2         -4.0800    5.0850   55.7740 C.2       1 DHC        -0.0344
      4 C3         -3.5630    6.2940   55.9440 C.2       1 DHC        -0.0564
      5 C1'        -2.1070    6.4860   55.6550 C.ar      1 DHC        -0.0377
      6 C2'        -1.2680    5.4420   56.0400 C.ar      1 DHC        -0.0308
      7 C3'         0.0600    5.5980   55.7820 C.ar      1 DHC         0.1202
      8 C4'         0.4700    6.7530   55.2080 C.ar      1 DHC         0.1215
      9 C5'        -0.3370    7.8020   54.8210 C.ar      1 DHC        -0.0360
     10 C6'        -1.6910    7.6800   55.0630 C.ar      1 DHC        -0.0694
     11 O4'         1.8160    6.8630   54.9660 O.3       1 DHC        -0.3332
     12 O3'         0.9550    4.6010   56.1370 O.3       1 DHC        -0.3360
     13 O2         -5.9620    5.6580   57.0090 O.co2     1 DHC        -0.5654
     14 H1         -3.4872    4.2482   55.4074 H         1 DHC         0.0577
     15 H2         -4.1804    7.1240   56.2843 H         1 DHC         0.0678
     16 H3         -1.6533    4.5502   56.5209 H         1 DHC         0.0530
     17 H4          0.0744    8.6856   54.3466 H         1 DHC         0.0526
     18 H5         -2.3914    8.4669   54.8077 H         1 DHC         0.0533
     19 H6          2.2574    6.0814   55.2769 H         1 DHC         0.2466
     20 H7          0.4807    3.8739   56.5227 H         1 DHC         0.2443
@<TRIPOS>BOND
     1    1    2 ar 
     2    1    3 1  
     3    1   13 ar 
     4    3    4 2  
     5    4    5 1  
     6    5    6 ar 
     7    5   10 ar 
     8    6    7 ar 
     9    7    8 ar 
    10    7   12 1  
    11    8    9 ar 
    12    8   11 1  
    13    9   10 ar 
    14    3   14 1  
    15    4   15 1  
    16    6   16 1  
    17    9   17 1  
    18   10   18 1  
    19   11   19 1  
    20   12   20 1  
@<TRIPOS>SUBSTRUCTURE
     1 DHC         1

