### 
### Created by X-TOOL on Mon Sep 10 21:13:31 2018
### 

@<TRIPOS>MOLECULE
5vfm_ligand
   19    19     1     0     0
SMALL
GAST_HUCK


@<TRIPOS>ATOM
      1 C1        -13.0750    6.7900  113.9200 C.2       1 HC4         0.0476
      2 O1        -11.9790    6.3640  113.4880 O.co2     1 HC4        -0.5654
      3 O2        -13.1710    7.7220  114.7630 O.co2     1 HC4        -0.5654
      4 C2        -14.3740    6.2060  113.4780 C.2       1 HC4        -0.0342
      5 C3        -14.6770    5.3090  112.5360 C.2       1 HC4        -0.0536
      6 C1'       -16.1600    4.9760  112.4140 C.ar      1 HC4        -0.0283
      7 C2'       -17.1280    5.8860  112.8620 C.ar      1 HC4        -0.0587
      8 C3'       -18.4610    5.5680  112.7400 C.ar      1 HC4        -0.0286
      9 C4'       -18.7870    4.3600  112.1650 C.ar      1 HC4         0.0925
     10 C5'       -17.8560    3.4200  111.7040 C.ar      1 HC4        -0.0286
     11 C6'       -16.5070    3.7450  111.8380 C.ar      1 HC4        -0.0587
     12 O4'       -20.1280    4.0400  112.0470 O.3       1 HC4        -0.3299
     13 H1        -15.2371    6.5812  114.0259 H         1 HC4         0.0576
     14 H2        -13.9206    4.8492  111.9017 H         1 HC4         0.0681
     15 H3        -16.8289    6.8312  113.3004 H         1 HC4         0.0620
     16 H4        -19.2312    6.2478  113.0860 H         1 HC4         0.0557
     17 H5        -18.1708    2.4813  111.2626 H         1 HC4         0.0557
     18 H6        -15.7388    3.0577  111.5026 H         1 HC4         0.0620
     19 H7        -20.6538    4.7520  112.3920 H         1 HC4         0.2502
@<TRIPOS>BOND
     1    1    2 ar 
     2    1    3 ar 
     3    1    4 1  
     4    4    5 2  
     5    5    6 1  
     6    6    7 ar 
     7    6   11 ar 
     8    7    8 ar 
     9    8    9 ar 
    10    9   10 ar 
    11    9   12 1  
    12   10   11 ar 
    13    4   13 1  
    14    5   14 1  
    15    7   15 1  
    16    8   16 1  
    17   10   17 1  
    18   11   18 1  
    19   12   19 1  
@<TRIPOS>SUBSTRUCTURE
     1 HC4         1

