### 
### Created by X-TOOL on Mon Sep 10 21:13:34 2018
### 

@<TRIPOS>MOLECULE
5vfn_ligand
   18    18     1     0     0
SMALL
GAST_HUCK


@<TRIPOS>ATOM
      1 C1         35.1350    1.9610  113.2350 C.2       1 HCI         0.0524
      2 O1         34.2060    1.2430  112.8200 O.co2     1 HCI        -0.5634
      3 O2         34.8660    2.9140  114.0020 O.co2     1 HCI        -0.5634
      4 C2         36.5600    1.6820  112.8170 C.2       1 HCI        -0.0276
      5 C3         37.3360    2.7690  112.9150 C.2       1 HCI        -0.0453
      6 C1'        38.7930    2.9450  112.6270 C.ar      1 HCI        -0.0189
      7 C2'        39.7430    1.9290  112.9000 C.ar      1 HCI        -0.0520
      8 C3'        41.1100    2.1450  112.6160 C.ar      1 HCI        -0.0593
      9 C4'        41.5290    3.3870  112.0760 C.ar      1 HCI        -0.0601
     10 C5'        40.5760    4.4100  111.8250 C.ar      1 HCI        -0.0593
     11 C6'        39.2150    4.1830  112.1020 C.ar      1 HCI        -0.0520
     12 H1         36.9145    0.7105  112.4759 H         1 HCI         0.0637
     13 H2         36.8252    3.6672  113.2589 H         1 HCI         0.0697
     14 H3         39.4206    0.9861  113.3268 H         1 HCI         0.0639
     15 H4         41.8359    1.3638  112.8103 H         1 HCI         0.0622
     16 H5         42.5766    3.5560  111.8546 H         1 HCI         0.0631
     17 H6         40.8964    5.3635  111.4210 H         1 HCI         0.0622
     18 H7         38.4879    4.9639  111.9107 H         1 HCI         0.0639
@<TRIPOS>BOND
     1    1    2 ar 
     2    1    3 ar 
     3    1    4 1  
     4    4    5 2  
     5    5    6 1  
     6    6    7 ar 
     7    6   11 ar 
     8    7    8 ar 
     9    8    9 ar 
    10    9   10 ar 
    11   10   11 ar 
    12    4   12 1  
    13    5   13 1  
    14    7   14 1  
    15    8   15 1  
    16    9   16 1  
    17   10   17 1  
    18   11   18 1  
@<TRIPOS>SUBSTRUCTURE
     1 HCI         1

