### 
### Created by X-TOOL on Mon Sep 10 21:13:32 2018
### 

@<TRIPOS>MOLECULE
5vgi_ligand
   53    56     1     0     0
SMALL
GAST_HUCK


@<TRIPOS>ATOM
      1 C5        -14.4100    0.5100   53.2700 C.ar      1 9DJ         0.0009
      2 C6        -13.5860    1.6200   53.2690 C.ar      1 9DJ        -0.0317
      3 C7        -13.1510    4.0650   52.7760 C.2       1 9DJ         0.0650
      4 C13       -16.6650    6.6910   51.4350 C.3       1 9DJ        -0.0395
      5 C15       -18.8300    7.9950   51.9640 C.3       1 9DJ        -0.0240
      6 C17       -18.8450    5.9800   50.2020 C.ar      1 9DJ        -0.0477
      7 C20       -20.9780    5.7040   48.9800 C.ar      1 9DJ        -0.0529
      8 C21       -19.6310    5.2890   49.2220 C.ar      1 9DJ        -0.0762
      9 C24       -23.8320    7.0520   48.3990 C.ar      1 9DJ         0.0588
     10 C26       -24.8860    5.4950   46.7910 C.ar      1 9DJ        -0.0725
     11 C28       -25.4070    7.9330   46.6620 C.ar      1 9DJ        -0.0725
     12 O9        -13.6530    5.2230   52.6810 O.co2     1 9DJ        -0.5618
     13 O8        -11.9340    3.8450   52.8950 O.co2     1 9DJ        -0.5618
     14 C1        -14.0300    2.8320   52.7170 C.ar      1 9DJ         0.0470
     15 N4        -15.6230    0.5470   52.7040 N.ar      1 9DJ        -0.3075
     16 C3        -16.1450    1.7080   52.1340 C.ar      1 9DJ         0.0322
     17 C2        -15.4060    2.9230   52.1300 C.ar      1 9DJ         0.0815
     18 N10       -15.8380    4.1340   51.5970 N.pl3     1 9DJ        -0.3119
     19 C11       -17.2440    4.3910   51.2820 C.3       1 9DJ         0.0360
     20 C12       -17.3860    5.6780   50.5160 C.3       1 9DJ         0.0047
     21 C19       -21.5960    6.8040   49.6630 C.ar      1 9DJ         0.0469
     22 C18       -20.8170    7.4820   50.5940 C.ar      1 9DJ        -0.0446
     23 C16       -19.5200    7.1420   50.9040 C.ar      1 9DJ        -0.0505
     24 C14       -17.3300    8.0490   51.7020 C.3       1 9DJ        -0.0427
     25 N22       -22.9660    7.3130   49.5350 N.pl3     1 9DJ        -0.2691
     26 C23       -23.5220    8.1420   50.6650 C.3       1 9DJ         0.0322
     27 C29       -24.5400    8.1420   47.7670 C.ar      1 9DJ        -0.0401
     28 C27       -25.5570    6.6030   46.1940 C.ar      1 9DJ        -0.0743
     29 C25       -24.0320    5.7200   47.8970 C.ar      1 9DJ        -0.0401
     30 H1        -14.0682   -0.4065   53.7372 H         1 9DJ         0.0716
     31 H2        -12.5921    1.5542   53.6966 H         1 9DJ         0.0707
     32 H3        -15.6827    6.8949   50.9840 H         1 9DJ         0.0288
     33 H4        -16.5262    6.2014   52.4102 H         1 9DJ         0.0288
     34 H5        -19.0098    7.5566   52.9567 H         1 9DJ         0.0410
     35 H6        -19.2410    9.0149   51.9337 H         1 9DJ         0.0410
     36 H7        -21.5605    5.1609   48.2446 H         1 9DJ         0.0456
     37 H8        -19.2076    4.4585   48.6688 H         1 9DJ         0.0509
     38 H9        -25.0283    4.4931   46.4025 H         1 9DJ         0.0585
     39 H10       -25.9333    8.7575   46.1948 H         1 9DJ         0.0585
     40 H11       -17.1318    1.6838   51.6860 H         1 9DJ         0.0732
     41 H12       -15.1447    4.8744   51.4182 H         1 9DJ         0.1795
     42 H13       -17.8175    4.4618   52.2180 H         1 9DJ         0.0537
     43 H14       -17.6359    3.5626   50.6736 H         1 9DJ         0.0537
     44 H15       -16.8486    5.6114   49.5585 H         1 9DJ         0.0444
     45 H16       -21.2578    8.3294   51.1065 H         1 9DJ         0.0450
     46 H17       -17.1605    8.6897   50.8241 H         1 9DJ         0.0287
     47 H18       -16.8465    8.4978   52.5823 H         1 9DJ         0.0287
     48 H19       -24.5507    8.4478   50.4237 H         1 9DJ         0.0525
     49 H20       -22.8972    9.0363   50.8056 H         1 9DJ         0.0525
     50 H21       -23.5239    7.5468   51.5900 H         1 9DJ         0.0525
     51 H22       -24.4053    9.1481   48.1475 H         1 9DJ         0.0527
     52 H23       -26.2088    6.4207   45.3472 H         1 9DJ         0.0511
     53 H24       -23.5266    4.8843   48.3675 H         1 9DJ         0.0527
@<TRIPOS>BOND
     1    2    1 ar 
     2   15    1 ar 
     3   14    2 ar 
     4    3   12 ar 
     5    3   13 ar 
     6   14    3 1  
     7   20    4 1  
     8    4   24 1  
     9   23    5 1  
    10    5   24 1  
    11    8    6 ar 
    12    6   20 1  
    13    6   23 ar 
    14    7    8 ar 
    15   21    7 ar 
    16   25    9 1  
    17    9   27 ar 
    18    9   29 ar 
    19   10   28 ar 
    20   29   10 ar 
    21   27   11 ar 
    22   11   28 ar 
    23   17   14 ar 
    24   16   15 ar 
    25   17   16 ar 
    26   18   17 1  
    27   19   18 1  
    28   20   19 1  
    29   21   22 ar 
    30   21   25 1  
    31   22   23 ar 
    32   25   26 1  
    33    1   30 1  
    34    2   31 1  
    35    4   32 1  
    36    4   33 1  
    37    5   34 1  
    38    5   35 1  
    39    7   36 1  
    40    8   37 1  
    41   10   38 1  
    42   11   39 1  
    43   16   40 1  
    44   18   41 1  
    45   19   42 1  
    46   19   43 1  
    47   20   44 1  
    48   22   45 1  
    49   24   46 1  
    50   24   47 1  
    51   26   48 1  
    52   26   49 1  
    53   26   50 1  
    54   27   51 1  
    55   28   52 1  
    56   29   53 1  
@<TRIPOS>SUBSTRUCTURE
     1 9DJ         1

