### 
### Created by X-TOOL on Mon Sep 10 21:13:31 2018
### 

@<TRIPOS>MOLECULE
5vgo_ligand
   69    74     1     0     0
SMALL
GAST_HUCK


@<TRIPOS>ATOM
      1 C4        -41.4900   26.5890   -2.4720 C.2       1 9B1        -0.0436
      2 C14       -40.9160   25.6190   -4.8240 C.3       1 9B1        -0.0023
      3 C5        -41.2650   26.7230   -3.8460 C.2       1 9B1        -0.0412
      4 C6        -41.3970   28.0200   -4.2830 C.2       1 9B1         0.0861
      5 C8        -41.7590   27.7370   -1.8380 C.2       1 9B1         0.0168
      6 C9        -41.9990   27.5520   -0.3490 C.3       1 9B1        -0.0024
      7 C10       -41.0950   28.4260   -5.6410 C.2       1 9B1         0.2137
      8 C13       -41.2040   26.0520   -6.2630 C.3       1 9B1         0.0602
      9 C3        -41.5090   25.4370   -1.4680 C.3       1 9B1        -0.0278
     10 C1        -43.4110   25.5560    0.1610 C.3       1 9B1        -0.0567
     11 C2        -41.9940   26.0310   -0.1290 C.3       1 9B1        -0.0198
     12 S7        -41.7380   29.0490   -2.9360 S.3       1 9B1        -0.0451
     13 O11       -40.8610   29.6200   -5.8500 O.2       1 9B1        -0.3952
     14 N12       -40.9390   27.4640   -6.5620 N.am      1 9B1        -0.2273
     15 C15       -40.5310   27.8260   -7.8550 C.ar      1 9B1         0.0699
     16 C16       -41.4490   28.1540   -8.8390 C.ar      1 9B1        -0.0502
     17 C17       -41.0120   28.5090  -10.1030 C.ar      1 9B1        -0.0849
     18 C18       -39.6520   28.5410  -10.3850 C.ar      1 9B1        -0.0802
     19 C19       -38.7060   28.2030   -9.4120 C.ar      1 9B1        -0.0373
     20 C20       -39.1500   27.8610   -8.1210 C.ar      1 9B1         0.0081
     21 C21       -38.1440   27.4550   -7.0500 C.3       1 9B1         0.0740
     22 O22       -37.8020   28.4460   -6.0870 O.3       1 9B1        -0.3850
     23 C23       -37.2680   28.3040   -9.8130 C.2       1 9B1        -0.0313
     24 C24       -36.8060   27.7880  -11.0430 C.2       1 9B1        -0.0407
     25 C25       -35.4820   27.9450  -11.3910 C.3       1 9B1         0.1503
     26 C26       -34.5920   28.6050  -10.5280 C.2       1 9B1         0.2153
     27 O27       -33.4080   28.7210  -10.8650 O.2       1 9B1        -0.3912
     28 N28       -35.0500   29.0780   -9.3580 N.am      1 9B1        -0.2647
     29 C29       -36.3620   28.9470   -9.0050 C.3       1 9B1         0.0578
     30 C30       -34.0840   29.7590   -8.4780 C.3       1 9B1         0.0245
     31 N31       -34.8930   27.4810  -12.5730 N.pl3     1 9B1        -0.2706
     32 C32       -35.5420   27.0260  -13.7020 C.ar      1 9B1         0.1336
     33 C33       -34.7790   26.7940  -14.8550 C.ar      1 9B1         0.0083
     34 C34       -35.4170   26.3180  -15.9830 C.ar      1 9B1         0.0141
     35 N35       -36.7330   26.1080  -15.9340 N.ar      1 9B1        -0.2826
     36 C36       -37.4210   26.3350  -14.8330 C.ar      1 9B1         0.0725
     37 N37       -36.8460   26.7780  -13.7310 N.ar      1 9B1        -0.2505
     38 C38       -41.0410   25.6490    1.0120 C.3       1 9B1        -0.0567
     39 H1        -41.5160   24.7274   -4.5895 H         1 9B1         0.0428
     40 H2        -39.8472   25.3775   -4.7279 H         1 9B1         0.0428
     41 H3        -42.9691   27.9811   -0.0579 H         1 9B1         0.0454
     42 H4        -41.1973   28.0291    0.2337 H         1 9B1         0.0454
     43 H5        -42.2662   25.8552   -6.4702 H         1 9B1         0.0602
     44 H6        -40.5805   25.4410   -6.9322 H         1 9B1         0.0602
     45 H7        -40.4992   25.0160   -1.3534 H         1 9B1         0.0352
     46 H8        -42.1984   24.6494   -1.8062 H         1 9B1         0.0352
     47 H9        -43.7522   25.9819    1.1161 H         1 9B1         0.0238
     48 H10       -43.4240   24.4579    0.2238 H         1 9B1         0.0238
     49 H11       -44.0807   25.8851   -0.6472 H         1 9B1         0.0238
     50 H12       -42.5102   28.1326   -8.6188 H         1 9B1         0.0457
     51 H13       -41.7311   28.7623  -10.8736 H         1 9B1         0.0516
     52 H14       -39.3189   28.8325  -11.3745 H         1 9B1         0.0447
     53 H15       -37.2177   27.1520   -7.5601 H         1 9B1         0.0691
     54 H16       -38.5627   26.5941   -6.5083 H         1 9B1         0.0691
     55 H17       -37.1726   28.0857   -5.4733 H         1 9B1         0.2122
     56 H18       -37.4911   27.2695  -11.7121 H         1 9B1         0.0547
     57 H19       -35.7439   28.8915  -11.8864 H         1 9B1         0.0945
     58 H20       -36.3713   28.4123   -8.0437 H         1 9B1         0.0645
     59 H21       -36.7464   29.9675   -8.8607 H         1 9B1         0.0645
     60 H22       -33.0905   29.7532   -8.9501 H         1 9B1         0.0488
     61 H23       -34.0342   29.2342   -7.5125 H         1 9B1         0.0488
     62 H24       -34.4061   30.7980   -8.3144 H         1 9B1         0.0488
     63 H25       -33.8634   27.4791  -12.6030 H         1 9B1         0.1903
     64 H26       -33.7118   26.9841  -14.8607 H         1 9B1         0.0678
     65 H27       -34.8591   26.1188  -16.8908 H         1 9B1         0.0885
     66 H28       -38.4895   26.1526  -14.8327 H         1 9B1         0.1084
     67 H29       -40.0266   26.0036    0.7767 H         1 9B1         0.0238
     68 H30       -41.0291   24.5553    1.1292 H         1 9B1         0.0238
     69 H31       -41.3842   26.1144    1.9477 H         1 9B1         0.0238
@<TRIPOS>BOND
     1    1    3 1  
     2    1    5 2  
     3    1    9 1  
     4    3    2 1  
     5    2    8 1  
     6    3    4 2  
     7    4    7 1  
     8    4   12 1  
     9    5    6 1  
    10    5   12 1  
    11    6   11 1  
    12    7   13 2  
    13    7   14 am 
    14    8   14 1  
    15    9   11 1  
    16   11   10 1  
    17   11   38 1  
    18   14   15 1  
    19   15   16 ar 
    20   15   20 ar 
    21   16   17 ar 
    22   17   18 ar 
    23   18   19 ar 
    24   19   20 ar 
    25   19   23 1  
    26   20   21 1  
    27   21   22 1  
    28   23   24 2  
    29   23   29 1  
    30   24   25 1  
    31   25   26 1  
    32   25   31 1  
    33   26   27 2  
    34   26   28 am 
    35   28   29 1  
    36   28   30 1  
    37   31   32 1  
    38   32   33 ar 
    39   32   37 ar 
    40   33   34 ar 
    41   34   35 ar 
    42   35   36 ar 
    43   36   37 ar 
    44    2   39 1  
    45    2   40 1  
    46    6   41 1  
    47    6   42 1  
    48    8   43 1  
    49    8   44 1  
    50    9   45 1  
    51    9   46 1  
    52   10   47 1  
    53   10   48 1  
    54   10   49 1  
    55   16   50 1  
    56   17   51 1  
    57   18   52 1  
    58   21   53 1  
    59   21   54 1  
    60   22   55 1  
    61   24   56 1  
    62   25   57 1  
    63   29   58 1  
    64   29   59 1  
    65   30   60 1  
    66   30   61 1  
    67   30   62 1  
    68   31   63 1  
    69   33   64 1  
    70   34   65 1  
    71   36   66 1  
    72   38   67 1  
    73   38   68 1  
    74   38   69 1  
@<TRIPOS>SUBSTRUCTURE
     1 9B1         1

