### 
### Created by X-TOOL on Mon Sep 10 21:13:30 2018
### 

@<TRIPOS>MOLECULE
5vgy_ligand
   33    34     1     0     0
SMALL
GAST_HUCK


@<TRIPOS>ATOM
      1 C5          1.1890    4.9920   83.5930 C.ar      1 9AA        -0.0771
      2 C4          1.4910    6.3520   83.7040 C.ar      1 9AA        -0.0509
      3 C8         -0.6570    6.7960   84.6080 C.ar      1 9AA        -0.0114
      4 C6         -0.0580    4.5640   83.9860 C.ar      1 9AA        -0.0204
      5 C3          0.5810    7.2270   84.2000 C.ar      1 9AA         0.0751
      6 C7         -0.9970    5.4850   84.4650 C.ar      1 9AA         0.0843
      7 C13        -0.8790    0.8990   84.7990 C.2       1 9AA         0.2911
      8 C16        -2.2970    1.7000   86.2680 C.2       1 9AA         0.1662
      9 C12        -0.4460    2.2650   85.0710 C.3       1 9AA         0.2540
     10 C1          2.0890    9.1220   84.2770 C.3       1 9AA         0.0577
     11 C10        -3.1730    5.8520   85.3040 C.3       1 9AA         0.0576
     12 C11        -0.4220    3.0900   83.8460 C.3       1 9AA         0.0353
     13 N15        -2.0030    0.5550   85.5400 N.am      1 9AA        -0.1917
     14 N18        -1.2110    2.5800   86.1550 N.am      1 9AA        -0.2440
     15 O14        -0.4040    0.0910   83.9900 O.2       1 9AA        -0.3241
     16 O19         0.8980    2.2440   85.6590 O.3       1 9AA        -0.3626
     17 O2          0.7590    8.5980   84.4300 O.3       1 9AA        -0.3284
     18 O9         -2.1960    4.9350   84.8250 O.3       1 9AA        -0.3275
     19 S17        -3.7240    2.0140   87.0590 S.2       1 9AA        -0.2959
     20 H1          1.9199    4.2910   83.2064 H         1 9AA         0.0500
     21 H2          2.4641    6.7119   83.3900 H         1 9AA         0.0433
     22 H3         -1.3611    7.4965   85.0423 H         1 9AA         0.0445
     23 H4          2.0839   10.2020   84.4859 H         1 9AA         0.0575
     24 H5          2.4349    8.9494   83.2472 H         1 9AA         0.0575
     25 H6          2.7659    8.6156   84.9809 H         1 9AA         0.0575
     26 H7         -4.0922    5.3062   85.5631 H         1 9AA         0.0574
     27 H8         -3.3948    6.5932   84.5221 H         1 9AA         0.0574
     28 H9         -2.7873    6.3654   86.1971 H         1 9AA         0.0574
     29 H10         0.3078    2.6360   83.1595 H         1 9AA         0.0421
     30 H11        -1.4257    3.0414   83.3986 H         1 9AA         0.0421
     31 H12        -2.4895   -0.3186   85.5473 H         1 9AA         0.2366
     32 H13        -1.0233    3.3350   86.7832 H         1 9AA         0.1992
     33 H14         1.5336    2.0309   84.9859 H         1 9AA         0.2103
@<TRIPOS>BOND
     1    1    2 ar 
     2    4    1 ar 
     3    2    5 ar 
     4    3    5 ar 
     5    6    3 ar 
     6    4    6 ar 
     7   12    4 1  
     8    5   17 1  
     9    6   18 1  
    10    9    7 1  
    11    7   13 am 
    12    7   15 2  
    13   13    8 am 
    14    8   14 am 
    15    8   19 2  
    16    9   12 1  
    17    9   14 1  
    18    9   16 1  
    19   17   10 1  
    20   18   11 1  
    21    1   20 1  
    22    2   21 1  
    23    3   22 1  
    24   10   23 1  
    25   10   24 1  
    26   10   25 1  
    27   11   26 1  
    28   11   27 1  
    29   11   28 1  
    30   12   29 1  
    31   12   30 1  
    32   13   31 1  
    33   14   32 1  
    34   16   33 1  
@<TRIPOS>SUBSTRUCTURE
     1 9AA         1

