### 
### Created by X-TOOL on Mon Aug  2 16:12:15 2021
### 

@<TRIPOS>MOLECULE
5vh0_ligand
   26    29     1     0     0
SMALL
GAST_HUCK


@<TRIPOS>ATOM
      1 C01        35.2200   46.3830   -3.4770 C.ar      1 MOL        -0.0606
      2 C02        36.3780   46.3830   -2.7300 C.ar      1 MOL        -0.0540
      3 C03        36.3240   46.3830   -1.3570 C.ar      1 MOL        -0.0167
      4 C04        37.5000   46.3840   -0.5290 C.ar      1 MOL        -0.0534
      5 C05        37.4180   46.3860    0.8160 C.ar      1 MOL        -0.0534
      6 C06        36.1530   46.3830    1.4980 C.ar      1 MOL        -0.0167
      7 C07        36.0490   46.3820    2.8700 C.ar      1 MOL        -0.0540
      8 C08        34.8080   46.3830    3.4770 C.ar      1 MOL        -0.0606
      9 C09        33.6630   46.3790    2.7230 C.ar      1 MOL        -0.0540
     10 C10        33.7360   46.3780    1.3510 C.ar      1 MOL        -0.0167
     11 C11        34.9870   46.3800    0.7130 C.ar      1 MOL        -0.0025
     12 C12        35.0740   46.3790   -0.7120 C.ar      1 MOL        -0.0025
     13 C13        33.9030   46.3780   -1.4870 C.ar      1 MOL        -0.0167
     14 C14        33.9910   46.3770   -2.8590 C.ar      1 MOL        -0.0540
     15 C15        32.6380   46.3770   -0.8090 C.ar      1 MOL        -0.0534
     16 C16        32.5580   46.3750    0.5350 C.ar      1 MOL        -0.0534
     17 H1         35.2779   46.3878   -4.5594 H         1 MOL         0.0618
     18 H2         37.3399   46.3830   -3.2299 H         1 MOL         0.0624
     19 H3         38.4769   46.3831   -0.9988 H         1 MOL         0.0624
     20 H4         38.3314   46.3900    1.3997 H         1 MOL         0.0624
     21 H5         36.9462   46.3804    3.4783 H         1 MOL         0.0624
     22 H6         34.7390   46.3870    4.5588 H         1 MOL         0.0618
     23 H7         32.6954   46.3766    3.2117 H         1 MOL         0.0624
     24 H8         33.0869   46.3715   -3.4571 H         1 MOL         0.0624
     25 H9         31.7249   46.3779   -1.3932 H         1 MOL         0.0624
     26 H10        31.5832   46.3710    1.0092 H         1 MOL         0.0624
@<TRIPOS>BOND
     1    1    2 ar 
     2    1   14 ar 
     3    2    3 ar 
     4    3    4 ar 
     5    3   12 ar 
     6    4    5 ar 
     7    5    6 ar 
     8    6    7 ar 
     9    6   11 ar 
    10    7    8 ar 
    11    8    9 ar 
    12    9   10 ar 
    13   10   11 ar 
    14   10   16 ar 
    15   11   12 ar 
    16   12   13 ar 
    17   13   14 ar 
    18   13   15 ar 
    19   15   16 ar 
    20    1   17 1  
    21    2   18 1  
    22    4   19 1  
    23    5   20 1  
    24    7   21 1  
    25    8   22 1  
    26    9   23 1  
    27   14   24 1  
    28   15   25 1  
    29   16   26 1  
@<TRIPOS>SUBSTRUCTURE
     1 MOL         1

