### 
### Created by X-TOOL on Mon Sep 10 21:13:30 2018
### 

@<TRIPOS>MOLECULE
5vi6_ligand
   89    93     1     0     0
SMALL
GAST_HUCK


@<TRIPOS>ATOM
      1 N           4.8440   -4.9490  -32.7030 N.am      1 PHE        -0.2619
      2 CA          4.4720   -3.9170  -33.6070 C.3       1 PHE         0.1404
      3 C           4.5110   -4.6110  -34.9950 C.2       1 PHE         0.2061
      4 O           3.5680   -4.5280  -35.7740 O.2       1 PHE        -0.3942
      5 CB          5.4120   -2.7090  -33.6510 C.3       1 PHE         0.0214
      6 CG          5.0800   -1.7120  -34.7340 C.ar      1 PHE        -0.0386
      7 CD1         5.8180   -1.6420  -35.9150 C.ar      1 PHE        -0.0601
      8 CD2         3.9300   -0.9270  -34.6600 C.ar      1 PHE        -0.0601
      9 CE1         5.4730   -0.7600  -36.9340 C.ar      1 PHE        -0.0686
     10 CE2         3.5890   -0.0440  -35.6730 C.ar      1 PHE        -0.0686
     11 CZ          4.3590    0.0530  -36.8100 C.ar      1 PHE        -0.0687
     12 N           5.6180   -5.3260  -35.3710 N.am      1 PHE        -0.2618
     13 CA          5.7740   -5.9300  -36.6770 C.3       1 PHE         0.1406
     14 C           5.0040   -7.2230  -36.9060 C.2       1 PHE         0.2085
     15 O           4.4070   -7.3200  -37.9640 O.2       1 PHE        -0.3940
     16 CB          7.2570   -6.1180  -36.9790 C.3       1 PHE         0.0214
     17 CG          7.9530   -4.8730  -37.3910 C.ar      1 PHE        -0.0386
     18 CD1         8.6340   -4.0990  -36.4530 C.ar      1 PHE        -0.0601
     19 CD2         7.9260   -4.4230  -38.6960 C.ar      1 PHE        -0.0601
     20 CE1         9.2460   -2.9130  -36.8080 C.ar      1 PHE        -0.0686
     21 CE2         8.5490   -3.2360  -39.0510 C.ar      1 PHE        -0.0686
     22 CZ          9.2220   -2.4810  -38.1130 C.ar      1 PHE        -0.0687
     23 N           5.0060   -8.3360  -36.0400 N.am      1 CPI        -0.2497
     24 CE          4.1660   -9.4910  -36.4050 C.3       1 CPI         0.0367
     25 CD          4.7290  -10.8390  -35.9800 C.3       1 CPI        -0.0321
     26 CG          5.2330  -10.8040  -34.5660 C.3       1 CPI        -0.0470
     27 CB          6.2320   -9.6850  -34.3870 C.3       1 CPI        -0.0121
     28 CA          5.6660   -8.3140  -34.7460 C.3       1 CPI         0.1337
     29 C           4.6900   -7.7740  -33.6880 C.2       1 CPI         0.2041
     30 O           3.5150   -7.5230  -33.9320 O.2       1 CPI        -0.3944
     31 O01         4.0750   -4.3960  -23.8870 O.3       1 5OM        -0.3626
     32 C02         5.1240   -5.3520  -23.9510 C.3       1 5OM         0.1936
     33 C03         5.7420   -5.3270  -25.3460 C.3       1 5OM         0.0037
     34 C04         4.7740   -5.6370  -26.4720 C.3       1 5OM        -0.0481
     35 C05         5.4840   -6.0690  -27.7430 C.3       1 5OM        -0.0527
     36 C06         4.5720   -6.1750  -28.9310 C.3       1 5OM        -0.0488
     37 C07         5.2870   -6.7640  -30.1250 C.3       1 5OM        -0.0124
     38 C08         4.4210   -6.9180  -31.3400 C.3       1 5OM         0.1310
     39 N09         5.1790   -7.5850  -32.4200 N.am      1 5OM        -0.2637
     40 C27         3.9360   -5.6150  -31.9260 C.2       1 5OM         0.2040
     41 O28         2.7980   -5.2000  -31.7240 O.2       1 5OM        -0.3944
     42 O02         4.5310   -6.5840  -23.6710 O.3       1 5OM        -0.3626
     43 C30         6.1100   -5.0420  -22.8110 C.3       1 5OM         0.1352
     44 C31         7.4030   -4.3380  -23.0190 C.3       1 5OM         0.0796
     45 O32         7.3620   -5.7670  -22.8850 O.3       1 5OM        -0.3662
     46 H1          5.8097   -5.1986  -32.6320 H         1 PHE         0.1885
     47 H2          3.4572   -3.5661  -33.3681 H         1 PHE         0.0823
     48 H3          6.4362   -3.0736  -33.8187 H         1 PHE         0.0474
     49 H4          5.3602   -2.1949  -32.6799 H         1 PHE         0.0474
     50 H5          6.6788   -2.2885  -36.0418 H         1 PHE         0.0557
     51 H6          3.2879   -1.0090  -33.7905 H         1 PHE         0.0557
     52 H7          6.0800   -0.7089  -37.8306 H         1 PHE         0.0599
     53 H8          2.7065    0.5767  -35.5686 H         1 PHE         0.0599
     54 H9          4.0977    0.7537  -37.5947 H         1 PHE         0.0559
     55 H10         6.3578   -5.4364  -34.7073 H         1 PHE         0.1885
     56 H11         5.3793   -5.2053  -37.4043 H         1 PHE         0.0823
     57 H12         7.3539   -6.8532  -37.7915 H         1 PHE         0.0474
     58 H13         7.7478   -6.5050  -36.0738 H         1 PHE         0.0474
     59 H14         8.6843   -4.4349  -35.4236 H         1 PHE         0.0557
     60 H15         7.4115   -5.0047  -39.4523 H         1 PHE         0.0557
     61 H16         9.7484   -2.3190  -36.0531 H         1 PHE         0.0599
     62 H17         8.5065   -2.8968  -40.0797 H         1 PHE         0.0599
     63 H18         9.7230   -1.5635  -38.3997 H         1 PHE         0.0559
     64 H19         4.0470   -9.4976  -37.4985 H         1 CPI         0.0524
     65 H20         3.1821   -9.3643  -35.9298 H         1 CPI         0.0524
     66 H21         5.5602  -11.1062  -36.6491 H         1 CPI         0.0285
     67 H22         3.9367  -11.5980  -36.0583 H         1 CPI         0.0285
     68 H23         5.7179  -11.7629  -34.3308 H         1 CPI         0.0268
     69 H24         4.3852  -10.6447  -33.8835 H         1 CPI         0.0268
     70 H25         7.1007   -9.8848  -35.0316 H         1 CPI         0.0312
     71 H26         6.5525   -9.6668  -33.3349 H         1 CPI         0.0312
     72 H27         6.5135   -7.6155  -34.8076 H         1 CPI         0.0802
     73 H28         4.4240   -3.5318  -24.0709 H         1 5OM         0.2128
     74 H29         6.5520   -6.0707  -25.3757 H         1 5OM         0.0318
     75 H30         6.1588   -4.3238  -25.5186 H         1 5OM         0.0318
     76 H31         4.1819   -4.7353  -26.6872 H         1 5OM         0.0267
     77 H32         4.1039   -6.4473  -26.1489 H         1 5OM         0.0267
     78 H33         5.9438   -7.0529  -27.5680 H         1 5OM         0.0265
     79 H34         6.2688   -5.3328  -27.9710 H         1 5OM         0.0265
     80 H35         4.2067   -5.1709  -29.1923 H         1 5OM         0.0267
     81 H36         3.7192   -6.8193  -28.6710 H         1 5OM         0.0267
     82 H37         5.6688   -7.7567  -29.8444 H         1 5OM         0.0312
     83 H38         6.1301   -6.1061  -30.3824 H         1 5OM         0.0312
     84 H39         3.5501   -7.5303  -31.0631 H         1 5OM         0.0800
     85 H40         6.0997   -7.9170  -32.2149 H         1 5OM         0.1883
     86 H41         5.1916   -7.2661  -23.7003 H         1 5OM         0.2128
     87 H42         5.5656   -4.9045  -21.8651 H         1 5OM         0.0673
     88 H43         7.8305   -3.7206  -22.2152 H         1 5OM         0.0588
     89 H44         7.6322   -3.8817  -23.9933 H         1 5OM         0.0588
@<TRIPOS>BOND
     1    2    1 1  
     2    1   40 am 
     3    3    2 1  
     4    2    5 1  
     5    3    4 2  
     6   12    3 am 
     7    5    6 1  
     8    6    7 ar 
     9    6    8 ar 
    10    7    9 ar 
    11    8   10 ar 
    12    9   11 ar 
    13   10   11 ar 
    14   13   12 1  
    15   14   13 1  
    16   13   16 1  
    17   14   15 2  
    18   23   14 am 
    19   16   17 1  
    20   17   18 ar 
    21   17   19 ar 
    22   18   20 ar 
    23   19   21 ar 
    24   20   22 ar 
    25   21   22 ar 
    26   23   24 1  
    27   28   23 1  
    28   24   25 1  
    29   26   25 1  
    30   27   26 1  
    31   28   27 1  
    32   29   28 1  
    33   29   30 2  
    34   39   29 am 
    35   32   31 1  
    36   33   32 1  
    37   32   42 1  
    38   32   43 1  
    39   34   33 1  
    40   35   34 1  
    41   36   35 1  
    42   37   36 1  
    43   38   37 1  
    44   38   39 1  
    45   38   40 1  
    46   40   41 2  
    47   43   44 1  
    48   43   45 1  
    49   44   45 1  
    50    1   46 1  
    51    2   47 1  
    52    5   48 1  
    53    5   49 1  
    54    7   50 1  
    55    8   51 1  
    56    9   52 1  
    57   10   53 1  
    58   11   54 1  
    59   12   55 1  
    60   13   56 1  
    61   16   57 1  
    62   16   58 1  
    63   18   59 1  
    64   19   60 1  
    65   20   61 1  
    66   21   62 1  
    67   22   63 1  
    68   24   64 1  
    69   24   65 1  
    70   25   66 1  
    71   25   67 1  
    72   26   68 1  
    73   26   69 1  
    74   27   70 1  
    75   27   71 1  
    76   28   72 1  
    77   31   73 1  
    78   33   74 1  
    79   33   75 1  
    80   34   76 1  
    81   34   77 1  
    82   35   78 1  
    83   35   79 1  
    84   36   80 1  
    85   36   81 1  
    86   37   82 1  
    87   37   83 1  
    88   38   84 1  
    89   39   85 1  
    90   42   86 1  
    91   43   87 1  
    92   44   88 1  
    93   44   89 1  
@<TRIPOS>SUBSTRUCTURE
     1 PHE         1

