### 
### Created by X-TOOL on Mon Sep 10 21:13:33 2018
### 

@<TRIPOS>MOLECULE
5vih_ligand
   33    34     1     0     0
SMALL
GAST_HUCK


@<TRIPOS>ATOM
      1 C01       -19.5440   15.7870  -10.1270 C.2       1 5DZ         0.0849
      2 O02       -19.2640   14.6810  -10.6660 O.co2     1 5DZ        -0.5642
      3 O03       -18.9280   16.1720   -9.0970 O.co2     1 5DZ        -0.5642
      4 C04       -20.7870   21.5690   -8.5590 C.2       1 5DZ         0.1218
      5 O05       -21.5140   21.2730   -7.5730 O.co2     1 5DZ        -0.5508
      6 O06       -19.9320   22.4880   -8.4740 O.co2     1 5DZ        -0.5508
      7 F07       -15.8920   19.9600  -16.0240 F         1 5DZ        -0.1493
      8 C08       -17.5750   20.7770  -12.6320 C.ar      1 5DZ         0.0008
      9 C09       -16.5110   20.7080  -13.7270 C.ar      1 5DZ         0.0103
     10 C10       -16.8390   20.0170  -15.0490 C.ar      1 5DZ         0.1740
     11 C11       -18.2130   19.4000  -15.2840 C.ar      1 5DZ         0.0103
     12 C12       -19.2700   19.4720  -14.1940 C.ar      1 5DZ         0.0008
     13 C13       -18.9460   20.1590  -12.8800 C.ar      1 5DZ         0.1134
     14 N14       -21.3160   15.9620  -11.7760 N.4       1 5DZ         0.2331
     15 C15       -20.6280   16.6770  -10.7190 C.3       1 5DZ         0.0359
     16 C16       -19.9220   17.8930  -11.2980 C.3       1 5DZ         0.0567
     17 C17       -21.2040   19.4740   -9.9080 C.2       1 5DZ         0.0881
     18 C18       -20.7720   19.0400  -11.3370 C.3       1 5DZ         0.1572
     19 N19       -19.9320   20.2170  -11.8300 N.2       1 5DZ        -0.1929
     20 N20       -20.2560   21.2660  -11.0860 N.2       1 5DZ        -0.1033
     21 C21       -20.9480   20.8140   -9.8740 C.2       1 5DZ         0.2100
     22 H1        -17.3565   21.2613  -11.6871 H         1 5DZ         0.0841
     23 H2        -15.5323   21.1456  -13.5668 H         1 5DZ         0.0724
     24 H3        -18.4356   18.9113  -16.2257 H         1 5DZ         0.0724
     25 H4        -20.2492   19.0354  -14.3542 H         1 5DZ         0.0841
     26 H5        -22.0338   16.5511  -12.1681 H         1 5DZ         0.2010
     27 H6        -21.7358   15.1268  -11.3987 H         1 5DZ         0.2010
     28 H7        -20.6569   15.7110  -12.4961 H         1 5DZ         0.2010
     29 H8        -21.3456   16.9809   -9.9427 H         1 5DZ         0.1030
     30 H9        -19.5949   17.6591  -12.3218 H         1 5DZ         0.0427
     31 H10       -19.0443   18.1230  -10.6761 H         1 5DZ         0.0427
     32 H11       -21.6165   18.8512   -9.1156 H         1 5DZ         0.1677
     33 H12       -21.6445   18.8537  -11.9805 H         1 5DZ         0.1061
@<TRIPOS>BOND
     1    1    2 ar 
     2    1    3 ar 
     3   15    1 1  
     4    4    5 ar 
     5    4    6 ar 
     6   21    4 1  
     7   10    7 1  
     8    8    9 ar 
     9   13    8 ar 
    10    9   10 ar 
    11   11   10 ar 
    12   12   11 ar 
    13   13   12 ar 
    14   19   13 1  
    15   15   14 1  
    16   16   15 1  
    17   18   16 1  
    18   18   17 1  
    19   17   21 2  
    20   18   19 1  
    21   19   20 2  
    22   20   21 1  
    23    8   22 1  
    24    9   23 1  
    25   11   24 1  
    26   12   25 1  
    27   14   26 1  
    28   14   27 1  
    29   14   28 1  
    30   15   29 1  
    31   16   30 1  
    32   16   31 1  
    33   17   32 1  
    34   18   33 1  
@<TRIPOS>SUBSTRUCTURE
     1 5DZ         1

