### 
### Created by X-TOOL on Mon Sep 10 21:13:33 2018
### 

@<TRIPOS>MOLECULE
5vii_ligand
   42    43     1     0     0
SMALL
GAST_HUCK


@<TRIPOS>ATOM
      1 N01       -21.0100   16.1800  -12.2430 N.4       1 5DY         0.2331
      2 C02       -20.5020   16.8130  -11.0390 C.3       1 5DY         0.0357
      3 C03       -19.7150   18.0700  -11.4010 C.3       1 5DY         0.0557
      4 C04       -20.5600   19.1700  -11.7580 C.3       1 5DY         0.1541
      5 C05       -21.3620   19.6820  -10.5070 C.2       1 5DY         0.0837
      6 C06       -20.6870   20.8210  -10.1650 C.2       1 5DY         0.2052
      7 N07       -19.8910   21.3520  -11.2600 N.2       1 5DY        -0.1078
      8 N08       -19.6250   20.3310  -12.0700 N.2       1 5DY        -0.1959
      9 C09       -18.5200   20.2990  -12.9670 C.ar      1 5DY         0.1111
     10 C10       -18.5190   19.4920  -14.2540 C.ar      1 5DY        -0.0021
     11 C11       -17.2510   19.5200  -15.0790 C.ar      1 5DY        -0.0199
     12 C12       -16.0640   20.3440  -14.6070 C.ar      1 5DY        -0.0026
     13 C13       -14.7610   20.4230  -15.3770 C.3       1 5DY         0.0028
     14 C14       -13.6400   20.4390  -14.3350 C.3       1 5DY        -0.0084
     15 C15       -13.5190   19.0970  -13.5900 C.3       1 5DY         0.0930
     16 F16       -13.5590   18.0610  -14.4880 F         1 5DY        -0.2488
     17 C17       -16.1060   21.1360  -13.3230 C.ar      1 5DY        -0.0199
     18 C18       -17.3510   21.1230  -12.4940 C.ar      1 5DY        -0.0021
     19 C19       -20.7690   21.5410   -8.8380 C.2       1 5DY         0.1188
     20 O20       -21.6930   21.2240   -8.0150 O.co2     1 5DY        -0.5516
     21 O21       -19.9110   22.4420   -8.6200 O.co2     1 5DY        -0.5516
     22 C22       -19.5140   15.9110  -10.3030 C.2       1 5DY         0.0849
     23 O23       -19.2920   14.7460  -10.7180 O.co2     1 5DY        -0.5642
     24 O24       -18.9200   16.3300   -9.2670 O.co2     1 5DY        -0.5642
     25 H1        -21.6572   16.8017  -12.7020 H         1 5DY         0.2010
     26 H2        -21.4825   15.3238  -11.9987 H         1 5DY         0.2010
     27 H3        -20.2430   15.9752  -12.8642 H         1 5DY         0.2010
     28 H4        -21.3457   17.0655  -10.3800 H         1 5DY         0.1029
     29 H5        -19.0583   17.8404  -12.2530 H         1 5DY         0.0425
     30 H6        -19.1033   18.3633  -10.5351 H         1 5DY         0.0425
     31 H7        -21.2232   18.9135  -12.5973 H         1 5DY         0.1046
     32 H8        -22.2365   19.2402  -10.0315 H         1 5DY         0.1645
     33 H9        -19.3866   18.9224  -14.5669 H         1 5DY         0.0837
     34 H10       -17.1893   18.9552  -16.0022 H         1 5DY         0.0693
     35 H11       -14.7316   21.3420  -15.9807 H         1 5DY         0.0531
     36 H12       -14.6551   19.5482  -16.0354 H         1 5DY         0.0531
     37 H13       -13.8483   21.2330  -13.6028 H         1 5DY         0.0326
     38 H14       -12.6872   20.6493  -14.8429 H         1 5DY         0.0326
     39 H15       -14.3533   18.9971  -12.8801 H         1 5DY         0.0617
     40 H16       -12.5657   19.0684  -13.0420 H         1 5DY         0.0617
     41 H17       -15.2424   21.7087  -13.0047 H         1 5DY         0.0693
     42 H18       -17.4107   21.6934  -11.5741 H         1 5DY         0.0837
@<TRIPOS>BOND
     1    1    2 1  
     2    2    3 1  
     3    2   22 1  
     4    3    4 1  
     5    4    5 1  
     6    4    8 1  
     7    5    6 2  
     8    6    7 1  
     9    6   19 1  
    10    7    8 2  
    11    8    9 1  
    12    9   10 ar 
    13    9   18 ar 
    14   10   11 ar 
    15   11   12 ar 
    16   12   13 1  
    17   12   17 ar 
    18   13   14 1  
    19   14   15 1  
    20   15   16 1  
    21   17   18 ar 
    22   19   20 ar 
    23   19   21 ar 
    24   22   23 ar 
    25   22   24 ar 
    26    1   25 1  
    27    1   26 1  
    28    1   27 1  
    29    2   28 1  
    30    3   29 1  
    31    3   30 1  
    32    4   31 1  
    33    5   32 1  
    34   10   33 1  
    35   11   34 1  
    36   13   35 1  
    37   13   36 1  
    38   14   37 1  
    39   14   38 1  
    40   15   39 1  
    41   15   40 1  
    42   17   41 1  
    43   18   42 1  
@<TRIPOS>SUBSTRUCTURE
     1 5DY         1

