### 
### Created by X-TOOL on Mon Sep 10 21:13:33 2018
### 

@<TRIPOS>MOLECULE
5vij_ligand
   35    36     1     0     0
SMALL
GAST_HUCK


@<TRIPOS>ATOM
      1 C01        19.5940  102.5660  376.9750 C.2       1 5DX         0.0845
      2 O02        19.2860  101.4160  377.4260 O.co2     1 5DX        -0.5643
      3 O03        18.9800  102.9910  375.9670 O.co2     1 5DX        -0.5643
      4 C04        21.1840  108.3310  375.4870 C.2       1 5DX         0.0697
      5 O05        22.0170  108.0390  374.5800 O.co2     1 5DX        -0.5661
      6 O06        20.5500  109.4210  375.5270 O.co2     1 5DX        -0.5661
      7 BR7        15.0350  107.2160  382.3200 Br        1 5DX         0.0391
      8 C08        17.9130  108.0430  379.1730 C.ar      1 5DX         0.0498
      9 C09        16.7130  108.0790  380.0600 C.ar      1 5DX         0.0293
     10 C10        16.6350  107.1300  381.2400 C.ar      1 5DX         0.1014
     11 C11        17.7170  106.1270  381.5780 C.ar      1 5DX         0.0293
     12 C12        18.9360  106.0990  380.6980 C.ar      1 5DX         0.0498
     13 C13        18.9960  107.0600  379.5340 C.ar      1 5DX         0.1662
     14 N14        21.0310  102.8910  378.9070 N.4       1 5DX         0.2327
     15 C15        20.6660  103.4410  377.6250 C.3       1 5DX         0.0305
     16 C16        20.0560  104.8400  377.8400 C.3       1 5DX         0.0281
     17 C17        21.8080  106.4610  377.1270 C.3       1 5DX         0.0169
     18 C18        20.9850  105.8680  378.2890 C.3       1 5DX         0.0868
     19 N19        20.0690  107.0500  378.6030 N.2       1 5DX        -0.1815
     20 N20        20.2450  108.0050  377.7210 N.2       1 5DX        -0.1116
     21 C21        20.8980  107.3610  376.6170 C.3       1 5DX         0.1581
     22 H1         18.0010  108.6932  378.3101 H         1 5DX         0.1052
     23 H2         15.9064  108.7758  379.8628 H         1 5DX         0.0922
     24 H3         17.6170  105.4545  382.4223 H         1 5DX         0.0922
     25 H4         19.7487  105.4088  380.8934 H         1 5DX         0.1052
     26 H5         21.7377  103.4704  379.3323 H         1 5DX         0.2010
     27 H6         21.3919  101.9582  378.7820 H         1 5DX         0.2010
     28 H7         20.2186  102.8600  379.5029 H         1 5DX         0.2010
     29 H8         21.5520  103.5036  376.9761 H         1 5DX         0.1025
     30 H9         19.2600  104.7502  378.5939 H         1 5DX         0.0362
     31 H10        19.6211  105.1703  376.8851 H         1 5DX         0.0362
     32 H11        22.0800  105.6936  376.3874 H         1 5DX         0.0335
     33 H12        22.7185  106.9623  377.4871 H         1 5DX         0.0335
     34 H13        21.6101  105.5300  379.1286 H         1 5DX         0.0586
     35 H14        20.1350  106.7069  376.1698 H         1 5DX         0.0832
@<TRIPOS>BOND
     1    1    2 ar 
     2    1    3 ar 
     3   15    1 1  
     4    4    5 ar 
     5    4    6 ar 
     6   21    4 1  
     7   10    7 1  
     8    8    9 ar 
     9   13    8 ar 
    10    9   10 ar 
    11   11   10 ar 
    12   12   11 ar 
    13   13   12 ar 
    14   19   13 1  
    15   15   14 1  
    16   16   15 1  
    17   18   16 1  
    18   18   17 1  
    19   17   21 1  
    20   18   19 1  
    21   19   20 2  
    22   20   21 1  
    23    8   22 1  
    24    9   23 1  
    25   11   24 1  
    26   12   25 1  
    27   14   26 1  
    28   14   27 1  
    29   14   28 1  
    30   15   29 1  
    31   16   30 1  
    32   16   31 1  
    33   17   32 1  
    34   17   33 1  
    35   18   34 1  
    36   21   35 1  
@<TRIPOS>SUBSTRUCTURE
     1 5DX         1

