### 
### Created by X-TOOL on Wed Jan  1 15:39:36 2020
### 

@<TRIPOS>MOLECULE
5vja_ligand
   35    37     1     0     0
SMALL
GAST_HUCK


@<TRIPOS>ATOM
      1 O1        -26.7270  -11.9610   56.6790 O.2       1 DUK        -0.3958
      2 C13       -27.4150  -11.2530   55.9870 C.2       1 DUK         0.1899
      3 N4        -27.2810   -9.8810   56.1010 N.am      1 DUK        -0.2998
      4 C11       -28.3990  -11.9050   55.0270 C.3       1 DUK         0.1164
      5 C12       -29.5760  -12.4400   55.8730 C.3       1 DUK        -0.0326
      6 S         -28.9950  -10.8030   53.6820 S.3       1 DUK         0.0032
      7 C6        -27.6980  -10.1170   52.7850 C.2       1 DUK         0.2162
      8 N1        -26.4630  -10.2220   53.2010 N.2       1 DUK        -0.2599
      9 C9        -25.4250   -9.6050   52.3600 C.2       1 DUK         0.1481
     10 N3        -24.0970   -9.5650   52.4840 N.pl3     1 DUK        -0.1532
     11 N2        -23.5970   -8.9110   51.5170 N.2       1 DUK        -0.2132
     12 C10       -24.5530   -8.4980   50.6550 C.2       1 DUK         0.0054
     13 C8        -25.7250   -8.9550   51.1970 C.2       1 DUK         0.0759
     14 C7        -27.1100   -8.8320   50.7390 C.2       1 DUK         0.2137
     15 O         -27.4580   -8.2430   49.7120 O.2       1 DUK        -0.4052
     16 N         -28.0340   -9.4450   51.5920 N.am      1 DUK        -0.1883
     17 C2        -23.2560  -10.0130   53.5820 C.ar      1 DUK         0.1098
     18 C         -21.8930   -9.8110   53.4930 C.ar      1 DUK        -0.0129
     19 C4        -23.7830  -10.4490   54.7830 C.ar      1 DUK        -0.0266
     20 C5        -22.9390  -10.7930   55.8470 C.ar      1 DUK        -0.0660
     21 C3        -21.5700  -10.6250   55.7320 C.ar      1 DUK        -0.0553
     22 C1        -21.0700  -10.1310   54.5490 C.ar      1 DUK         0.0358
     23 CL        -19.3980   -9.9360   54.3380 Cl        1 DUK        -0.0727
     24 H1        -27.8418   -9.2752   55.5366 H         1 DUK         0.1815
     25 H2        -26.6233   -9.4949   56.7478 H         1 DUK         0.1815
     26 H3        -27.8933  -12.7571   54.5493 H         1 DUK         0.0689
     27 H4        -30.3130  -12.9211   55.2131 H         1 DUK         0.0267
     28 H5        -30.0525  -11.6051   56.4077 H         1 DUK         0.0267
     29 H6        -29.2005  -13.1747   56.6004 H         1 DUK         0.0267
     30 H7        -24.4209   -7.9294   49.7357 H         1 DUK         0.0674
     31 H8        -29.0003   -9.4036   51.3378 H         1 DUK         0.2552
     32 H9        -21.4682   -9.3976   52.5854 H         1 DUK         0.0585
     33 H10       -24.8577  -10.5254   54.9026 H         1 DUK         0.0582
     34 H11       -23.3594  -11.1919   56.7631 H         1 DUK         0.0598
     35 H12       -20.9084  -10.8762   56.5531 H         1 DUK         0.0559
@<TRIPOS>BOND
     1    1    2 2  
     2    2    3 am 
     3    2    4 1  
     4    4    5 1  
     5    4    6 1  
     6    6    7 1  
     7    7    8 2  
     8    7   16 1  
     9    8    9 1  
    10    9   10 1  
    11    9   13 2  
    12   10   11 1  
    13   10   17 1  
    14   11   12 2  
    15   12   13 1  
    16   13   14 1  
    17   14   15 2  
    18   14   16 am 
    19   17   18 ar 
    20   17   19 ar 
    21   18   22 ar 
    22   19   20 ar 
    23   20   21 ar 
    24   21   22 ar 
    25   22   23 1  
    26    3   24 1  
    27    3   25 1  
    28    4   26 1  
    29    5   27 1  
    30    5   28 1  
    31    5   29 1  
    32   12   30 1  
    33   16   31 1  
    34   18   32 1  
    35   19   33 1  
    36   20   34 1  
    37   21   35 1  
@<TRIPOS>SUBSTRUCTURE
     1 DUK         1

