### 
### Created by X-TOOL on Mon Sep 10 21:13:33 2018
### 

@<TRIPOS>MOLECULE
5vkc_ligand
  102   109     1     0     0
SMALL
GAST_HUCK


@<TRIPOS>ATOM
      1 C4        -28.5480    4.8270    3.5620 C.ar      1 9EA        -0.0744
      2 C5        -32.4990    2.9050   10.4660 C.ar      1 9EA        -0.0404
      3 C6        -28.0470    7.7760    1.4800 C.ar      1 9EA        -0.0587
      4 C7        -30.5970    8.2440    2.3960 C.ar      1 9EA        -0.0532
      5 C8        -31.1420    7.9100    7.3150 C.ar      1 9EA        -0.0804
      6 C10       -30.0640    7.9410    9.4650 C.ar      1 9EA        -0.0795
      7 C13       -35.7960   12.2780   11.8640 C.ar      1 9EA        -0.0524
      8 C15       -36.0220   10.0370   13.4020 C.ar      1 9EA        -0.0441
      9 C17       -32.5450    2.5190   11.7830 C.ar      1 9EA         0.0042
     10 C20       -29.9300    7.0970    2.8000 C.ar      1 9EA         0.0178
     11 C21       -32.2980    7.4510    7.9230 C.ar      1 9EA        -0.0214
     12 C22       -31.2050    7.5110   10.0990 C.ar      1 9EA        -0.0205
     13 C24       -33.5100    4.9690   11.1150 C.ar      1 9EA         0.0133
     14 C26       -32.3230    7.2710    9.3020 C.ar      1 9EA         0.0664
     15 C28       -34.8520   10.2500   12.7110 C.ar      1 9EA         0.0802
     16 C1        -28.7140    8.9150    1.0870 C.ar      1 9EA        -0.0640
     17 C2        -29.9960    9.1430    1.5430 C.ar      1 9EA        -0.0633
     18 C3        -30.0350    8.1330    8.1040 C.ar      1 9EA        -0.0865
     19 C9        -27.9570    5.7390    2.7140 C.ar      1 9EA        -0.0685
     20 C11       -32.9890    4.1470   10.1270 C.ar      1 9EA        -0.0379
     21 C12       -37.0670   10.9300   13.3170 C.ar      1 9EA        -0.0524
     22 C14       -29.8270    5.0330    4.0340 C.ar      1 9EA        -0.0340
     23 C16       -34.7410   11.3920   11.9410 C.ar      1 9EA        -0.0441
     24 C18       -33.5050    4.4810   12.4040 C.ar      1 9EA         0.0151
     25 C19       -28.6480    6.8710    2.3300 C.ar      1 9EA        -0.0261
     26 C23       -31.1680    7.4020   11.5450 C.2       1 9EA         0.0048
     27 C25       -33.5720    7.1210    7.3820 C.2       1 9EA        -0.0301
     28 C27       -36.9950   12.0750   12.5330 C.ar      1 9EA         0.0295
     29 C29       -30.5190    6.1770    3.6550 C.ar      1 9EA         0.1043
     30 C30       -34.3740    6.7360    8.4350 C.2       1 9EA         0.0912
     31 C31       -31.8060    8.2520   12.4850 C.2       1 9EA         0.0378
     32 C32       -30.4640    6.4790   12.2990 C.2       1 9EA         0.0754
     33 C33       -35.7640    6.3400    8.4280 C.2       1 9EA         0.0762
     34 C34       -41.5820   15.0190   11.2710 C.2       1 9EA         0.1755
     35 C35       -39.4080   12.3220   12.5230 C.3       1 9EA         0.0451
     36 C36       -38.0430   13.9110   11.3180 C.3       1 9EA         0.0451
     37 C37       -40.5130   13.3470   12.7050 C.3       1 9EA         0.0531
     38 C38       -39.1030   14.9900   11.4500 C.3       1 9EA         0.0531
     39 C39       -29.5860    5.3410   11.9470 C.3       1 9EA         0.0006
     40 C40       -41.5470   16.5200   11.3190 C.3       1 9EA         0.0258
     41 C41       -30.2940    6.1170   14.7950 C.3       1 9EA         0.0567
     42 C42       -33.9630    7.2420    5.9510 C.3       1 9EA        -0.0296
     43 C43       -34.0670    6.3330   10.8560 C.3       1 9EA         0.0882
     44 C44       -32.6570    9.4300   12.2330 C.3       1 9EA         0.1037
     45 C45       -33.8950    5.9720    5.1230 C.3       1 9EA        -0.0191
     46 C46       -32.4730    5.5320    4.8690 C.3       1 9EA         0.0736
     47 N47       -33.0410    3.2790   12.7640 N.ar      1 9EA        -0.3043
     48 N48       -31.5540    7.8670   13.7390 N.2       1 9EA        -0.2340
     49 N49       -33.5970    6.8260    9.5690 N.pl3     1 9EA        -0.2547
     50 N50       -30.7540    6.7990   13.5980 N.pl3     1 9EA        -0.2131
     51 N51       -38.1030   12.9880   12.4500 N.pl3     1 9EA        -0.3108
     52 N52       -40.4150   14.4280   11.7360 N.am      1 9EA        -0.2697
     53 O53       -36.6200    6.7270    9.2020 O.co2     1 9EA        -0.5635
     54 O54       -42.5840   14.4270   10.8800 O.2       1 9EA        -0.3972
     55 O55       -36.0730    5.4740    7.4530 O.co2     1 9EA        -0.5635
     56 O56       -33.8960    9.2480   12.8950 O.3       1 9EA        -0.3149
     57 O57       -31.8120    6.5040    4.0720 O.3       1 9EA        -0.3129
     58 H1        -28.0020    3.9394    3.8606 H         1 9EA         0.0581
     59 H2        -32.0863    2.2470    9.7099 H         1 9EA         0.0693
     60 H3        -27.0422    7.5893    1.1187 H         1 9EA         0.0599
     61 H4        -31.6017    8.4349    2.7553 H         1 9EA         0.0631
     62 H5        -31.1088    8.0892    6.2464 H         1 9EA         0.0483
     63 H6        -29.1707    8.1322   10.0486 H         1 9EA         0.0461
     64 H7        -35.6838   13.1687   11.2564 H         1 9EA         0.0490
     65 H8        -36.1230    9.1538   14.0223 H         1 9EA         0.0511
     66 H9        -32.1563    1.5408   12.0420 H         1 9EA         0.0767
     67 H10       -28.2354    9.6270    0.4244 H         1 9EA         0.0614
     68 H11       -30.5315   10.0317    1.2292 H         1 9EA         0.0591
     69 H12       -29.1154    8.4692    7.6388 H         1 9EA         0.0494
     70 H13       -26.9508    5.5676    2.3490 H         1 9EA         0.0493
     71 H14       -32.9675    4.4794    9.0955 H         1 9EA         0.0679
     72 H15       -37.9731   10.7337   13.8787 H         1 9EA         0.0490
     73 H16       -30.2889    4.3087    4.6952 H         1 9EA         0.0499
     74 H17       -33.8248   11.5919   11.3972 H         1 9EA         0.0511
     75 H18       -33.9067    5.1182   13.1836 H         1 9EA         0.0766
     76 H19       -39.5821   11.7620   11.5924 H         1 9EA         0.0529
     77 H20       -39.4135   11.6271   13.3757 H         1 9EA         0.0529
     78 H21       -37.0495   14.3822   11.2884 H         1 9EA         0.0529
     79 H22       -38.2113   13.3512   10.3862 H         1 9EA         0.0529
     80 H23       -40.4425   13.7700   13.7180 H         1 9EA         0.0541
     81 H24       -41.4853   12.8473   12.5831 H         1 9EA         0.0541
     82 H25       -39.1555   15.5546   10.5074 H         1 9EA         0.0541
     83 H26       -38.8204   15.6684   12.2685 H         1 9EA         0.0541
     84 H27       -29.4949    5.2729   10.8529 H         1 9EA         0.0452
     85 H28       -30.0198    4.4087   12.3375 H         1 9EA         0.0452
     86 H29       -28.5906    5.4955   12.3888 H         1 9EA         0.0452
     87 H30       -42.4978   16.9213   10.9383 H         1 9EA         0.0467
     88 H31       -40.7183   16.8876   10.6960 H         1 9EA         0.0467
     89 H32       -41.3993   16.8503   12.3578 H         1 9EA         0.0467
     90 H33       -30.7036    6.6196   15.6836 H         1 9EA         0.0591
     91 H34       -29.1950    6.1435   14.8327 H         1 9EA         0.0591
     92 H35       -30.6351    5.0714   14.7753 H         1 9EA         0.0591
     93 H36       -33.2970    7.9822    5.4836 H         1 9EA         0.0368
     94 H37       -34.9996    7.6084    5.9172 H         1 9EA         0.0368
     95 H38       -33.7376    7.0182   11.6510 H         1 9EA         0.0775
     96 H39       -35.1658    6.2824   10.8476 H         1 9EA         0.0775
     97 H40       -32.8280    9.5381   11.1518 H         1 9EA         0.0761
     98 H41       -32.1614   10.3334   12.6180 H         1 9EA         0.0761
     99 H42       -34.3879    6.1525    4.1563 H         1 9EA         0.0308
    100 H43       -34.4232    5.1703    5.6599 H         1 9EA         0.0308
    101 H44       -32.4765    4.5665    4.3419 H         1 9EA         0.0620
    102 H45       -31.9456    5.4242    5.8283 H         1 9EA         0.0620
@<TRIPOS>BOND
     1    1   19 ar 
     2   22    1 ar 
     3    2    9 ar 
     4   20    2 ar 
     5    3   16 ar 
     6   25    3 ar 
     7   10    4 ar 
     8    4   17 ar 
     9   11    5 ar 
    10    5   18 ar 
    11   12    6 ar 
    12   18    6 ar 
    13   23    7 ar 
    14    7   28 ar 
    15   15    8 ar 
    16    8   21 ar 
    17   47    9 ar 
    18   10   25 ar 
    19   29   10 ar 
    20   11   14 ar 
    21   27   11 1  
    22   14   12 ar 
    23   12   26 1  
    24   13   20 ar 
    25   13   24 ar 
    26   43   13 1  
    27   49   14 1  
    28   15   23 ar 
    29   56   15 1  
    30   17   16 ar 
    31   25   19 ar 
    32   21   28 ar 
    33   29   22 ar 
    34   24   47 ar 
    35   26   31 1  
    36   26   32 2  
    37   27   30 2  
    38   42   27 1  
    39   28   51 1  
    40   57   29 1  
    41   30   33 1  
    42   30   49 1  
    43   31   44 1  
    44   31   48 2  
    45   32   39 1  
    46   32   50 1  
    47   33   53 ar 
    48   33   55 ar 
    49   34   40 1  
    50   52   34 am 
    51   34   54 2  
    52   35   37 1  
    53   51   35 1  
    54   36   38 1  
    55   51   36 1  
    56   37   52 1  
    57   38   52 1  
    58   50   41 1  
    59   45   42 1  
    60   49   43 1  
    61   44   56 1  
    62   46   45 1  
    63   46   57 1  
    64   48   50 1  
    65    1   58 1  
    66    2   59 1  
    67    3   60 1  
    68    4   61 1  
    69    5   62 1  
    70    6   63 1  
    71    7   64 1  
    72    8   65 1  
    73    9   66 1  
    74   16   67 1  
    75   17   68 1  
    76   18   69 1  
    77   19   70 1  
    78   20   71 1  
    79   21   72 1  
    80   22   73 1  
    81   23   74 1  
    82   24   75 1  
    83   35   76 1  
    84   35   77 1  
    85   36   78 1  
    86   36   79 1  
    87   37   80 1  
    88   37   81 1  
    89   38   82 1  
    90   38   83 1  
    91   39   84 1  
    92   39   85 1  
    93   39   86 1  
    94   40   87 1  
    95   40   88 1  
    96   40   89 1  
    97   41   90 1  
    98   41   91 1  
    99   41   92 1  
   100   42   93 1  
   101   42   94 1  
   102   43   95 1  
   103   43   96 1  
   104   44   97 1  
   105   44   98 1  
   106   45   99 1  
   107   45  100 1  
   108   46  101 1  
   109   46  102 1  
@<TRIPOS>SUBSTRUCTURE
     1 9EA         1

