### 
### Created by X-TOOL on Mon Aug  2 16:12:15 2021
### 

@<TRIPOS>MOLECULE
5vkf_ligand
   18    19     1     0     0
SMALL
GAST_HUCK


@<TRIPOS>ATOM
      1 C1         47.7200   31.8800   14.2640 C.ar      1 NPY        -0.0540
      2 C2         47.9900   31.8760   15.6290 C.ar      1 NPY        -0.0612
      3 C3         49.2990   31.8180   16.1040 C.ar      1 NPY        -0.0612
      4 C4         50.3820   31.7610   15.2320 C.ar      1 NPY        -0.0540
      5 C4A        50.1600   31.7630   13.8630 C.ar      1 NPY        -0.0179
      6 C5         51.2080   31.7080   12.9560 C.ar      1 NPY        -0.0540
      7 C6         50.9380   31.7120   11.5910 C.ar      1 NPY        -0.0612
      8 C7         49.6300   31.7710   11.1150 C.ar      1 NPY        -0.0612
      9 C8         48.5470   31.8270   11.9880 C.ar      1 NPY        -0.0540
     10 C8A        48.7680   31.8250   13.3570 C.ar      1 NPY        -0.0179
     11 H1         46.6960   31.9259   13.9113 H         1 NPY         0.0624
     12 H2         47.1684   31.9187   16.3348 H         1 NPY         0.0618
     13 H3         49.4769   31.8173   17.1733 H         1 NPY         0.0618
     14 H4         51.3930   31.7153   15.6204 H         1 NPY         0.0624
     15 H5         52.2320   31.6621   13.3087 H         1 NPY         0.0624
     16 H6         51.7599   31.6684   10.8855 H         1 NPY         0.0618
     17 H7         49.4523   31.7733   10.0457 H         1 NPY         0.0618
     18 H8         47.5360   31.8719   11.5995 H         1 NPY         0.0624
@<TRIPOS>BOND
     1    1    2 ar 
     2    1   10 ar 
     3    2    3 ar 
     4    3    4 ar 
     5    4    5 ar 
     6    5    6 ar 
     7    5   10 ar 
     8    6    7 ar 
     9    7    8 ar 
    10    8    9 ar 
    11    9   10 ar 
    12    1   11 1  
    13    2   12 1  
    14    3   13 1  
    15    4   14 1  
    16    6   15 1  
    17    7   16 1  
    18    8   17 1  
    19    9   18 1  
@<TRIPOS>SUBSTRUCTURE
     1 NPY         1

