### 
### Created by X-TOOL on Mon Sep 10 21:13:33 2018
### 

@<TRIPOS>MOLECULE
5vkm_ligand
   60    61     1     0     0
SMALL
GAST_HUCK


@<TRIPOS>ATOM
      1 C1        -54.8370    8.3740   22.4520 C.3       1 GAL         0.1854
      2 C2        -53.5480    7.8480   23.0510 C.3       1 GAL         0.1339
      3 C3        -52.6470    8.9390   23.5110 C.3       1 GAL         0.1141
      4 C4        -52.4100    9.9710   22.4470 C.3       1 GAL         0.1119
      5 C5        -53.7110   10.4720   21.8310 C.3       1 GAL         0.1132
      6 C6        -53.3830   11.3810   20.6430 C.3       1 GAL         0.0786
      7 O1        -55.5740    7.3240   21.9210 O.3       1 GAL        -0.3649
      8 O2        -53.8680    7.0110   24.1850 O.3       1 GAL        -0.3841
      9 O3        -51.3770    8.3690   23.8960 O.3       1 GAL        -0.3864
     10 O4        -51.5790    9.3980   21.4060 O.3       1 GAL        -0.3865
     11 O5        -54.5720    9.3790   21.3630 O.3       1 GAL        -0.3407
     12 O6        -54.5800   11.6180   19.8790 O.3       1 GAL        -0.3441
     13 C1        -53.9220   13.7940   18.8450 C.2       1 SIA         0.1041
     14 C2        -54.6550   12.4400   18.7800 C.3       1 SIA         0.2204
     15 C3        -56.0160   12.6050   18.1220 C.3       1 SIA         0.0353
     16 C4        -55.9380   12.7720   16.6590 C.3       1 SIA         0.0850
     17 C5        -55.0700   11.7770   15.9790 C.3       1 SIA         0.0964
     18 C6        -53.7070   11.6600   16.6510 C.3       1 SIA         0.1143
     19 C7        -52.8990   10.5240   16.0420 C.3       1 SIA         0.1114
     20 C8        -51.5400   10.4830   16.7080 C.3       1 SIA         0.1065
     21 C9        -50.6630    9.4490   16.0270 C.3       1 SIA         0.0727
     22 C10       -55.0470   11.3100   13.4520 C.2       1 SIA         0.1733
     23 C11       -54.8370   11.7970   12.0420 C.3       1 SIA         0.0257
     24 N5        -54.8670   12.2370   14.5730 N.am      1 SIA        -0.2790
     25 O1A       -52.6740   13.8570   18.6460 O.co2     1 SIA        -0.5426
     26 O1B       -54.5360   14.8090   19.0930 O.co2     1 SIA        -0.5426
     27 O4        -57.2760   12.6520   16.1200 O.3       1 SIA        -0.3893
     28 O6        -53.8260   11.4190   18.0920 O.3       1 SIA        -0.3384
     29 O7        -53.5820    9.2830   16.2530 O.3       1 SIA        -0.3865
     30 O8        -50.9020   11.7520   16.6230 O.3       1 SIA        -0.3869
     31 O9        -49.5020    9.1990   16.8470 O.3       1 SIA        -0.3924
     32 O10       -55.3490   10.2010   13.6530 O.2       1 SIA        -0.3974
     33 H1        -55.4213    8.8590   23.2478 H         1 GAL         0.0935
     34 H2        -53.0228    7.2517   22.2904 H         1 GAL         0.0671
     35 H3        -53.1055    9.4298   24.3821 H         1 GAL         0.0648
     36 H4        -51.8849   10.8255   22.8987 H         1 GAL         0.0647
     37 H5        -54.2583   11.0491   22.5909 H         1 GAL         0.0647
     38 H6        -52.6305   10.8944   20.0050 H         1 GAL         0.0586
     39 H7        -52.9871   12.3387   21.0117 H         1 GAL         0.0586
     40 H8        -55.7465    6.6838   22.6013 H         1 GAL         0.2126
     41 H9        -54.4437    6.3086   23.9063 H         1 GAL         0.2101
     42 H10       -50.9701    7.9645   23.1388 H         1 GAL         0.2100
     43 H11       -50.7671    9.0847   21.7870 H         1 GAL         0.2100
     44 H12       -56.5056   13.4925   18.5494 H         1 GAL         0.0336
     45 H13       -56.6202   11.7121   18.3401 H         1 GAL         0.0336
     46 H14       -55.5445   13.7768   16.4457 H         1 GAL         0.0618
     47 H15       -55.5642   10.7943   15.9874 H         1 GAL         0.0608
     48 H16       -53.1658   12.6050   16.4957 H         1 GAL         0.0646
     49 H17       -52.7758   10.6948   14.9624 H         1 GAL         0.0647
     50 H18       -51.6680   10.2124   17.7665 H         1 GAL         0.0643
     51 H19       -50.3449    9.8261   15.0438 H         1 GAL         0.0584
     52 H20       -51.2291    8.5150   15.8959 H         1 GAL         0.0584
     53 H21       -55.0146   10.9704   11.3383 H         1 GAL         0.0467
     54 H22       -53.8045   12.1592   11.9291 H         1 GAL         0.0467
     55 H23       -55.5386   12.6170   11.8289 H         1 GAL         0.0467
     56 H24       -54.6060   13.1857   14.3947 H         1 GAL         0.1856
     57 H25       -57.2561   12.8212   15.1854 H         1 GAL         0.2099
     58 H26       -53.6933    9.1386   17.1853 H         1 GAL         0.2100
     59 H27       -50.0573   11.7101   17.0556 H         1 GAL         0.2100
     60 H28       -49.0152   10.0070   16.9595 H         1 GAL         0.2095
@<TRIPOS>BOND
     1    1    2 1  
     2    1    7 1  
     3   11    1 1  
     4    3    2 1  
     5    2    8 1  
     6    4    3 1  
     7    3    9 1  
     8    5    4 1  
     9    4   10 1  
    10    6    5 1  
    11    5   11 1  
    12   12    6 1  
    13   14   12 1  
    14   14   13 1  
    15   13   25 ar 
    16   13   26 ar 
    17   15   14 1  
    18   28   14 1  
    19   16   15 1  
    20   17   16 1  
    21   16   27 1  
    22   17   18 1  
    23   24   17 1  
    24   18   19 1  
    25   18   28 1  
    26   19   20 1  
    27   19   29 1  
    28   20   21 1  
    29   20   30 1  
    30   21   31 1  
    31   22   23 1  
    32   22   24 am 
    33   22   32 2  
    34    1   33 1  
    35    2   34 1  
    36    3   35 1  
    37    4   36 1  
    38    5   37 1  
    39    6   38 1  
    40    6   39 1  
    41    7   40 1  
    42    8   41 1  
    43    9   42 1  
    44   10   43 1  
    45   15   44 1  
    46   15   45 1  
    47   16   46 1  
    48   17   47 1  
    49   18   48 1  
    50   19   49 1  
    51   20   50 1  
    52   21   51 1  
    53   21   52 1  
    54   23   53 1  
    55   23   54 1  
    56   23   55 1  
    57   24   56 1  
    58   27   57 1  
    59   29   58 1  
    60   30   59 1  
    61   31   60 1  
@<TRIPOS>SUBSTRUCTURE
     1 GAL         1

