### 
### Created by X-TOOL on Wed Jan  1 15:39:38 2020
### 

@<TRIPOS>MOLECULE
5vl2_ligand
   28    29     1     0     0
SMALL
GAST_HUCK


@<TRIPOS>ATOM
      1 C12       -41.1590   22.7060    1.1270 C.ar      1 9EG        -0.0270
      2 C11       -39.9270   23.0610    0.6250 C.ar      1 9EG         0.0681
      3 CL2       -43.7860   23.1060    1.7530 Cl        1 9EG        -0.0741
      4 CL1       -31.6950   19.1250   -1.4470 Cl        1 9EG        -0.0850
      5 C8        -37.8040   22.0090    0.0350 C.2       1 9EG         0.3175
      6 N1        -38.9740   22.0850    0.6940 N.am      1 9EG        -0.2139
      7 C4        -35.8910   20.4520   -0.1510 C.ar      1 9EG         0.0677
      8 C5        -35.3330   20.8930   -1.3520 C.ar      1 9EG        -0.0407
      9 C6        -34.0770   20.4810   -1.7280 C.ar      1 9EG        -0.0617
     10 C1        -33.3470   19.6130   -0.9270 C.ar      1 9EG         0.0238
     11 C2        -33.8780   19.1800    0.2910 C.ar      1 9EG        -0.0617
     12 C3        -35.1530   19.5900    0.6630 C.ar      1 9EG        -0.0407
     13 N7        -37.1000   20.8680    0.3180 N.am      1 9EG        -0.2139
     14 O9        -37.4150   22.8750   -0.7340 O.2       1 9EG        -0.3800
     15 C13       -42.2100   23.6000    1.0850 C.ar      1 9EG         0.0407
     16 C14       -42.0650   24.8480    0.5480 C.ar      1 9EG         0.0376
     17 C15       -40.8530   25.2310    0.0210 C.ar      1 9EG        -0.0612
     18 C16       -39.7910   24.3500    0.0420 C.ar      1 9EG        -0.0406
     19 CL3       -43.4860   25.9650    0.5400 Cl        1 9EG        -0.0843
     20 H1        -41.3041   21.7214    1.5566 H         1 9EG         0.0507
     21 H2        -39.1722   21.3276    1.3161 H         1 9EG         0.2265
     22 H3        -35.8938   21.5645   -1.9920 H         1 9EG         0.0502
     23 H4        -33.6519   20.8373   -2.6594 H         1 9EG         0.0583
     24 H5        -33.3011   18.5306    0.9395 H         1 9EG         0.0583
     25 H6        -35.5791   19.2368    1.5951 H         1 9EG         0.0502
     26 H7        -37.5403   20.2472    0.9667 H         1 9EG         0.2265
     27 H8        -40.7331   26.2192   -0.4082 H         1 9EG         0.0584
     28 H9        -38.8420   24.6446   -0.3912 H         1 9EG         0.0504
@<TRIPOS>BOND
     1    2    1 ar 
     2    1   15 ar 
     3    6    2 1  
     4    2   18 ar 
     5   15    3 1  
     6   10    4 1  
     7    5    6 am 
     8   13    5 am 
     9    5   14 2  
    10    8    7 ar 
    11    7   12 ar 
    12    7   13 1  
    13    9    8 ar 
    14    9   10 ar 
    15   10   11 ar 
    16   11   12 ar 
    17   15   16 ar 
    18   16   17 ar 
    19   16   19 1  
    20   17   18 ar 
    21    1   20 1  
    22    6   21 1  
    23    8   22 1  
    24    9   23 1  
    25   11   24 1  
    26   12   25 1  
    27   13   26 1  
    28   17   27 1  
    29   18   28 1  
@<TRIPOS>SUBSTRUCTURE
     1 9EG         1

