### 
### Created by X-TOOL on Mon Sep 10 21:13:33 2018
### 

@<TRIPOS>MOLECULE
5vlr_ligand
   63    67     1     0     0
SMALL
GAST_HUCK


@<TRIPOS>ATOM
      1 C15        44.2210   13.6030   31.3190 C.3       1 9EM        -0.0319
      2 C19        45.5480   13.3470   33.3890 C.3       1 9EM        -0.0319
      3 C23        43.0720   13.3850   33.4740 C.2       1 9EM         0.2521
      4 C11        42.1610   15.6690   33.9300 C.3       1 9EM         0.0760
      5 C34        38.5960   12.7880   35.8540 C.ar      1 9EM        -0.0719
      6 C27        40.9960   13.0210   35.8440 C.ar      1 9EM        -0.0440
      7 C33        38.5100   13.4810   34.6490 C.ar      1 9EM        -0.0124
      8 O1         45.8950   15.8640   31.2270 O.2       1 9EM        -0.3973
      9 C2         45.1950   16.3180   32.1160 C.2       1 9EM         0.1747
     10 C3         45.1730   17.7960   32.3730 C.3       1 9EM         0.0257
     11 N7         44.4060   15.5010   32.9270 N.am      1 9EM        -0.2600
     12 C8         43.5980   16.0910   34.0050 C.3       1 9EM         0.0587
     13 C14        44.3080   14.0100   32.7900 C.3       1 9EM         0.1354
     14 O24        42.9710   12.1660   33.5440 O.2       1 9EM        -0.3327
     15 N25        42.0960   14.2030   33.9920 N.am      1 9EM        -0.2162
     16 C26        40.9200   13.7140   34.6340 C.ar      1 9EM         0.0662
     17 C29        39.8320   12.5600   36.4480 C.ar      1 9EM        -0.0782
     18 C31        39.6750   13.9410   34.0400 C.ar      1 9EM        -0.0370
     19 C36        37.2090   13.7600   34.0020 C.2       1 9EM         0.0971
     20 C37        36.2090   12.8880   33.6450 C.2       1 9EM        -0.0486
     21 C39        35.1440   13.6220   33.0560 C.2       1 9EM         0.0228
     22 C40        35.5130   14.9830   33.0560 C.2       1 9EM         0.1665
     23 C41        34.9700   16.2440   32.6470 C.2       1 9EM         0.1591
     24 N42        33.7610   16.3350   32.0580 N.pl3     1 9EM        -0.3064
     25 N45        35.6600   17.3620   32.8400 N.2       1 9EM        -0.2685
     26 C46        36.8620   17.2790   33.4140 C.2       1 9EM         0.0858
     27 N48        37.4810   16.2160   33.8280 N.2       1 9EM        -0.1572
     28 N49        36.7620   15.0440   33.6320 N.pl3     1 9EM        -0.1486
     29 C50        33.8940   13.0540   32.5590 C.2       1 9EM         0.0715
     30 C51        32.6210   13.5890   32.7630 C.2       1 9EM        -0.0510
     31 C53        31.7590   12.7060   32.1200 C.2       1 9EM        -0.0127
     32 N55        32.3980   11.6920   31.5500 N.2       1 9EM        -0.2266
     33 N56        33.7210   11.9200   31.8280 N.pl3     1 9EM        -0.2019
     34 C57        34.7250   10.9960   31.3260 C.3       1 9EM         0.1624
     35 C60        34.8070   11.0540   29.8280 C.3       1 9EM         0.4182
     36 F61        35.0530   12.2910   29.4090 F         1 9EM        -0.1677
     37 F62        33.6620   10.6870   29.2580 F         1 9EM        -0.1677
     38 F63        35.7510   10.2630   29.3210 F         1 9EM        -0.1677
     39 H1         44.1501   12.5078   31.2452 H         1 9EM         0.0241
     40 H2         45.1208   13.9487   30.7890 H         1 9EM         0.0241
     41 H3         43.3295   14.0595   30.8643 H         1 9EM         0.0241
     42 H4         45.6353   13.6237   34.4500 H         1 9EM         0.0241
     43 H5         46.4431   13.6860   32.8469 H         1 9EM         0.0241
     44 H6         45.4581   12.2542   33.3013 H         1 9EM         0.0241
     45 H7         41.7214   16.0191   32.9844 H         1 9EM         0.0609
     46 H8         41.6042   16.1001   34.7751 H         1 9EM         0.0609
     47 H9         37.6935   12.4241   36.3317 H         1 9EM         0.0467
     48 H10        41.9584   12.8434   36.3101 H         1 9EM         0.0478
     49 H11        44.4888   18.0131   33.2065 H         1 9EM         0.0467
     50 H12        44.8281   18.3202   31.4695 H         1 9EM         0.0467
     51 H13        46.1859   18.1384   32.6315 H         1 9EM         0.0467
     52 H14        44.0112   15.7716   34.9731 H         1 9EM         0.0546
     53 H15        43.6501   17.1870   33.9277 H         1 9EM         0.0546
     54 H16        39.8883   12.0203   37.3864 H         1 9EM         0.0570
     55 H17        39.6161   14.4780   33.1002 H         1 9EM         0.0466
     56 H18        36.2292   11.8089   33.7899 H         1 9EM         0.0390
     57 H19        33.3945   17.2547   31.7738 H         1 9EM         0.1844
     58 H20        33.2037   15.4849   31.8921 H         1 9EM         0.1844
     59 H21        37.3897   18.2215   33.5524 H         1 9EM         0.1065
     60 H22        32.3602   14.4966   33.3054 H         1 9EM         0.0300
     61 H23        30.6779   12.8331   32.0880 H         1 9EM         0.0642
     62 H24        34.4586    9.9737   31.6325 H         1 9EM         0.0719
     63 H25        35.7040   11.2628   31.7506 H         1 9EM         0.0719
@<TRIPOS>BOND
     1   13    1 1  
     2   13    2 1  
     3    3   13 1  
     4    3   14 2  
     5   15    3 am 
     6    4   12 1  
     7   15    4 1  
     8    5    7 ar 
     9   17    5 ar 
    10   16    6 ar 
    11    6   17 ar 
    12    7   18 ar 
    13    7   19 1  
    14    9    8 2  
    15    9   10 1  
    16   11    9 am 
    17   12   11 1  
    18   13   11 1  
    19   15   16 1  
    20   16   18 ar 
    21   19   20 2  
    22   19   28 1  
    23   20   21 1  
    24   21   22 2  
    25   21   29 1  
    26   22   23 1  
    27   22   28 1  
    28   23   24 1  
    29   23   25 2  
    30   25   26 1  
    31   26   27 2  
    32   27   28 1  
    33   29   30 2  
    34   29   33 1  
    35   30   31 1  
    36   31   32 2  
    37   32   33 1  
    38   33   34 1  
    39   34   35 1  
    40   35   36 1  
    41   35   37 1  
    42   35   38 1  
    43    1   39 1  
    44    1   40 1  
    45    1   41 1  
    46    2   42 1  
    47    2   43 1  
    48    2   44 1  
    49    4   45 1  
    50    4   46 1  
    51    5   47 1  
    52    6   48 1  
    53   10   49 1  
    54   10   50 1  
    55   10   51 1  
    56   12   52 1  
    57   12   53 1  
    58   17   54 1  
    59   18   55 1  
    60   20   56 1  
    61   24   57 1  
    62   24   58 1  
    63   26   59 1  
    64   30   60 1  
    65   31   61 1  
    66   34   62 1  
    67   34   63 1  
@<TRIPOS>SUBSTRUCTURE
     1 9EM         1

