### 
### Created by X-TOOL on Wed Jan  1 15:39:37 2020
### 

@<TRIPOS>MOLECULE
5vm0_ligand
   28    29     1     0     0
SMALL
GAST_HUCK


@<TRIPOS>ATOM
      1 C12        -7.8440   22.5090    8.9090 C.ar      1 9EG        -0.0270
      2 C11        -7.1290   23.0620    7.8550 C.ar      1 9EG         0.0681
      3 CL2        -8.2320   21.7570   11.5470 Cl        1 9EG        -0.0741
      4 CL1        -8.5350   26.4110   -0.7510 Cl        1 9EG        -0.0850
      5 C8         -7.4650   23.9290    5.6260 C.2       1 9EG         0.3175
      6 N1         -7.7160   23.0820    6.6330 N.am      1 9EG        -0.2139
      7 C4         -8.3400   24.4660    3.4060 C.ar      1 9EG         0.0677
      8 C5         -8.8570   23.7650    2.3200 C.ar      1 9EG        -0.0407
      9 C6         -8.9020   24.3520    1.0450 C.ar      1 9EG        -0.0617
     10 C1         -8.4460   25.6680    0.8710 C.ar      1 9EG         0.0238
     11 C2         -7.9450   26.4010    1.9440 C.ar      1 9EG        -0.0617
     12 C3         -7.8680   25.7760    3.2030 C.ar      1 9EG        -0.0407
     13 N7         -8.3150   23.7940    4.6010 N.am      1 9EG        -0.2139
     14 O9         -6.5680   24.7850    5.6510 O.2       1 9EG        -0.3800
     15 C13        -7.2770   22.4590   10.1890 C.ar      1 9EG         0.0407
     16 C14        -6.0310   23.0210   10.4260 C.ar      1 9EG         0.0376
     17 C15        -5.2920   23.5850    9.3880 C.ar      1 9EG        -0.0612
     18 C16        -5.8660   23.6300    8.1180 C.ar      1 9EG        -0.0406
     19 CL3        -5.3020   22.9750   12.0690 Cl        1 9EG        -0.0843
     20 H1         -8.8403   22.1162    8.7415 H         1 9EG         0.0507
     21 H2         -8.4146   22.3866    6.4646 H         1 9EG         0.2265
     22 H3         -9.2284   22.7563    2.4599 H         1 9EG         0.0502
     23 H4         -9.2866   23.7921    0.2002 H         1 9EG         0.0583
     24 H5         -7.6223   27.4275    1.8129 H         1 9EG         0.0583
     25 H6         -7.4346   26.3170    4.0364 H         1 9EG         0.0502
     26 H7         -9.0316   23.1074    4.7238 H         1 9EG         0.2265
     27 H8         -4.2972   23.9784    9.5632 H         1 9EG         0.0584
     28 H9         -5.3269   24.1144    7.3119 H         1 9EG         0.0504
@<TRIPOS>BOND
     1    2    1 ar 
     2    1   15 ar 
     3    6    2 1  
     4    2   18 ar 
     5   15    3 1  
     6   10    4 1  
     7    5    6 am 
     8   13    5 am 
     9    5   14 2  
    10    8    7 ar 
    11    7   12 ar 
    12    7   13 1  
    13    9    8 ar 
    14    9   10 ar 
    15   10   11 ar 
    16   11   12 ar 
    17   15   16 ar 
    18   16   17 ar 
    19   16   19 1  
    20   17   18 ar 
    21    1   20 1  
    22    6   21 1  
    23    8   22 1  
    24    9   23 1  
    25   11   24 1  
    26   12   25 1  
    27   13   26 1  
    28   17   27 1  
    29   18   28 1  
@<TRIPOS>SUBSTRUCTURE
     1 9EG         1

