### 
### Created by X-TOOL on Wed Jan  1 15:39:35 2020
### 

@<TRIPOS>MOLECULE
5vm6_ligand
   28    29     1     0     0
SMALL
GAST_HUCK


@<TRIPOS>ATOM
      1 C12        37.9660  -14.2910   -0.6940 C.ar      1 9EG        -0.0270
      2 C11        36.7530  -13.7020   -0.3620 C.ar      1 9EG         0.0681
      3 CL2        39.6330  -15.8970   -2.1640 Cl        1 9EG        -0.0741
      4 CL1        40.1310   -6.4510    4.3150 Cl        1 9EG        -0.0850
      5 C8         37.5310  -12.1140    1.3170 C.2       1 9EG         0.3175
      6 N1         36.5660  -12.7920    0.6410 N.am      1 9EG        -0.2139
      7 C4         37.9380   -9.9210    2.3510 C.ar      1 9EG         0.0677
      8 C5         37.2450   -8.8180    2.8690 C.ar      1 9EG        -0.0407
      9 C6         37.9040   -7.7530    3.4720 C.ar      1 9EG        -0.0617
     10 C1         39.2720   -7.8030    3.5800 C.ar      1 9EG         0.0238
     11 C2         39.9800   -8.8830    3.0940 C.ar      1 9EG        -0.0617
     12 C3         39.3200   -9.9440    2.4800 C.ar      1 9EG        -0.0407
     13 N7         37.1830  -10.9000    1.7810 N.am      1 9EG        -0.2139
     14 O9         38.6630  -12.5420    1.4310 O.2       1 9EG        -0.3800
     15 C13        38.0370  -15.1880   -1.7600 C.ar      1 9EG         0.0407
     16 C14        36.9360  -15.4970   -2.5260 C.ar      1 9EG         0.0376
     17 C15        35.7130  -14.9200   -2.1980 C.ar      1 9EG        -0.0612
     18 C16        35.6430  -14.0300   -1.1280 C.ar      1 9EG        -0.0406
     19 CL3        37.0230  -16.6170   -3.9320 Cl        1 9EG        -0.0843
     20 H1         38.8576  -14.0538   -0.1249 H         1 9EG         0.0507
     21 H2         35.6197  -12.6055    0.9052 H         1 9EG         0.2265
     22 H3         36.1636   -8.7950    2.7972 H         1 9EG         0.0502
     23 H4         37.3498   -6.9011    3.8490 H         1 9EG         0.0583
     24 H5         41.0594   -8.9056    3.1911 H         1 9EG         0.0583
     25 H6         39.8855  -10.7883    2.1026 H         1 9EG         0.0502
     26 H7         36.2112  -10.6811    1.6928 H         1 9EG         0.2265
     27 H8         34.8236  -15.1604   -2.7691 H         1 9EG         0.0584
     28 H9         34.6881  -13.5780   -0.8854 H         1 9EG         0.0504
@<TRIPOS>BOND
     1    2    1 ar 
     2    1   15 ar 
     3    6    2 1  
     4    2   18 ar 
     5   15    3 1  
     6   10    4 1  
     7    5    6 am 
     8   13    5 am 
     9    5   14 2  
    10    8    7 ar 
    11    7   12 ar 
    12    7   13 1  
    13    9    8 ar 
    14    9   10 ar 
    15   10   11 ar 
    16   11   12 ar 
    17   15   16 ar 
    18   16   17 ar 
    19   16   19 1  
    20   17   18 ar 
    21    1   20 1  
    22    6   21 1  
    23    8   22 1  
    24    9   23 1  
    25   11   24 1  
    26   12   25 1  
    27   13   26 1  
    28   17   27 1  
    29   18   28 1  
@<TRIPOS>SUBSTRUCTURE
     1 9EG         1

