### 
### Created by X-TOOL on Wed Jan  1 15:39:34 2020
### 

@<TRIPOS>MOLECULE
5vnd_ligand
   80    83     1     0     0
SMALL
GAST_HUCK


@<TRIPOS>ATOM
      1 C2         22.4840  -22.5330   -4.0120 C.3       1 9ES        -0.0121
      2 C3         21.9820  -23.8630   -4.5730 C.3       1 9ES         0.0647
      3 C4         22.4220  -22.8680   -6.9020 C.3       1 9ES         0.0647
      4 C5         23.2510  -21.7950   -6.1620 C.3       1 9ES        -0.0121
      5 C6         20.5430  -24.5140   -6.5080 C.ar      1 9ES         0.0154
      6 C9         18.5230  -26.2770   -7.5690 C.ar      1 9ES         0.0740
      7 C10        16.9280  -26.3630   -9.3490 C.ar      1 9ES         0.1238
      8 C11        17.0980  -25.0940   -9.9180 C.ar      1 9ES         0.0260
      9 C12        16.3340  -24.7420  -11.0270 C.ar      1 9ES         0.1435
     10 C13        15.3450  -26.8870  -10.9280 C.ar      1 9ES         0.0536
     11 C14        17.1000  -22.4370  -11.0640 C.3       1 9ES         0.0510
     12 C21        14.6690  -25.3380  -17.0970 C.ar      1 9ES         0.0840
     13 C22        14.9080  -26.4390  -19.2170 C.3       1 9ES         0.0592
     14 O3         15.5280  -26.7050   -4.3830 O.2       1 9ES        -0.3861
     15 C25        16.0710  -26.3710   -5.4310 C.2       1 9ES         0.2008
     16 C26        15.3850  -26.8370   -6.6730 C.3       1 9ES         0.0399
     17 C27        13.9050  -27.1180   -6.4830 C.3       1 9ES        -0.0478
     18 N7         17.2350  -25.7120   -5.3910 N.am      1 9ES        -0.2392
     19 C24        18.3090  -25.6260   -6.2330 C.ar      1 9ES         0.0811
     20 C28        19.3650  -24.7980   -5.7660 C.ar      1 9ES        -0.0323
     21 N1         21.6100  -23.7120   -6.0030 N.pl3     1 9ES        -0.3073
     22 N          23.6850  -22.1820   -4.7990 N.4       1 9ES         0.2378
     23 C1         24.4930  -21.1130   -4.1640 C.3       1 9ES        -0.0347
     24 C          25.8830  -21.6210   -3.8430 C.3       1 9ES        -0.0245
     25 C8         19.6940  -25.9430   -8.2720 C.ar      1 9ES        -0.0615
     26 C7         20.6880  -25.0930   -7.7750 C.ar      1 9ES        -0.0686
     27 N2         17.5750  -26.9120   -8.3000 N.pl3     1 9ES        -0.2701
     28 N4         16.0220  -27.2510   -9.8450 N.ar      1 9ES        -0.2714
     29 N3         15.4790  -25.6780  -11.4780 N.ar      1 9ES        -0.2694
     30 N5         16.4090  -23.5200  -11.7730 N.am      1 9ES        -0.1835
     31 C15        15.7880  -23.3730  -12.9900 C.2       1 9ES         0.3271
     32 O          15.8100  -22.3270  -13.5940 O.2       1 9ES        -0.3767
     33 N6         15.1380  -24.4380  -13.4720 N.am      1 9ES        -0.2159
     34 C16        14.5120  -24.5500  -14.6910 C.ar      1 9ES         0.0785
     35 C23        15.1380  -25.2850  -15.7470 C.ar      1 9ES         0.0747
     36 CL1        16.5760  -26.2200  -15.3610 Cl        1 9ES        -0.1012
     37 O2         15.3870  -26.1600  -17.9130 O.3       1 9ES        -0.3264
     38 C20        13.5700  -24.5970  -17.4870 C.ar      1 9ES        -0.0187
     39 C18        12.8980  -23.8260  -16.5340 C.ar      1 9ES         0.0840
     40 C17        13.3870  -23.7480  -15.1570 C.ar      1 9ES         0.0747
     41 CL         12.5400  -22.8330  -13.9270 Cl        1 9ES        -0.1012
     42 O1         11.7920  -23.1200  -16.8170 O.3       1 9ES        -0.3264
     43 C19        11.1240  -23.2110  -18.1070 C.3       1 9ES         0.0592
     44 H1         22.7430  -22.6409   -2.9484 H         1 9ES         0.0834
     45 H2         21.7135  -21.7561   -4.1248 H         1 9ES         0.0834
     46 H3         21.1004  -24.1884   -4.0012 H         1 9ES         0.0563
     47 H4         22.7768  -24.6180   -4.4827 H         1 9ES         0.0563
     48 H5         23.1127  -23.5179   -7.4592 H         1 9ES         0.0563
     49 H6         21.7467  -22.3608   -7.6067 H         1 9ES         0.0563
     50 H7         22.6396  -20.8841   -6.0816 H         1 9ES         0.0834
     51 H8         24.1491  -21.5822   -6.7605 H         1 9ES         0.0834
     52 H9         17.8146  -24.3960   -9.5004 H         1 9ES         0.0537
     53 H10        14.6606  -27.5954  -11.3806 H         1 9ES         0.1035
     54 H11        17.5075  -22.8203  -10.1169 H         1 9ES         0.0561
     55 H12        16.3895  -21.6237  -10.8549 H         1 9ES         0.0561
     56 H13        17.9210  -22.0552  -11.6886 H         1 9ES         0.0561
     57 H14        15.6096  -27.1143  -19.7286 H         1 9ES         0.0578
     58 H15        14.8223  -25.5007  -19.7847 H         1 9ES         0.0578
     59 H16        13.9203  -26.9186  -19.1500 H         1 9ES         0.0578
     60 H17        15.8733  -27.7620   -7.0135 H         1 9ES         0.0504
     61 H18        15.4949  -26.0594   -7.4432 H         1 9ES         0.0504
     62 H19        13.4705  -27.4551   -7.4357 H         1 9ES         0.0254
     63 H20        13.3969  -26.2000   -6.1528 H         1 9ES         0.0254
     64 H21        13.7753  -27.9026   -5.7230 H         1 9ES         0.0254
     65 H22        17.3432  -25.1613   -4.5633 H         1 9ES         0.2225
     66 H23        19.2657  -24.3551   -4.7816 H         1 9ES         0.0365
     67 H24        24.2664  -23.0024   -4.8697 H         1 9ES         0.2035
     68 H25        24.0013  -20.7910   -3.2342 H         1 9ES         0.0812
     69 H26        24.5696  -20.2590   -4.8530 H         1 9ES         0.0812
     70 H27        26.4680  -20.8165   -3.3732 H         1 9ES         0.0281
     71 H28        26.3795  -21.9417   -4.7707 H         1 9ES         0.0281
     72 H29        25.8112  -22.4737   -3.1518 H         1 9ES         0.0281
     73 H30        19.8352  -26.3697   -9.2584 H         1 9ES         0.0461
     74 H31        21.5694  -24.8828   -8.3699 H         1 9ES         0.0364
     75 H32        17.3322  -27.8779   -8.0374 H         1 9ES         0.2083
     76 H33        15.1035  -25.2428  -12.8795 H         1 9ES         0.2269
     77 H34        13.2336  -24.6133  -18.5174 H         1 9ES         0.0346
     78 H35        10.2456  -22.5489  -18.1125 H         1 9ES         0.0578
     79 H36        10.8023  -24.2484  -18.2810 H         1 9ES         0.0578
     80 H37        11.8192  -22.9044  -18.9024 H         1 9ES         0.0578
@<TRIPOS>BOND
     1    2    1 1  
     2    1   22 1  
     3   21    2 1  
     4    3    4 1  
     5   21    3 1  
     6    4   22 1  
     7   20    5 ar 
     8    5   21 1  
     9   26    5 ar 
    10    6   19 ar 
    11    6   25 ar 
    12   27    6 1  
    13    8    7 ar 
    14    7   27 1  
    15    7   28 ar 
    16    9    8 ar 
    17    9   29 ar 
    18   30    9 1  
    19   10   28 ar 
    20   29   10 ar 
    21   30   11 1  
    22   35   12 ar 
    23   12   37 1  
    24   12   38 ar 
    25   37   13 1  
    26   15   14 2  
    27   15   16 1  
    28   18   15 am 
    29   16   17 1  
    30   19   18 1  
    31   19   20 ar 
    32   22   23 1  
    33   23   24 1  
    34   25   26 ar 
    35   31   30 am 
    36   31   32 2  
    37   33   31 am 
    38   34   33 1  
    39   34   35 ar 
    40   34   40 ar 
    41   35   36 1  
    42   38   39 ar 
    43   39   40 ar 
    44   39   42 1  
    45   40   41 1  
    46   42   43 1  
    47    1   44 1  
    48    1   45 1  
    49    2   46 1  
    50    2   47 1  
    51    3   48 1  
    52    3   49 1  
    53    4   50 1  
    54    4   51 1  
    55    8   52 1  
    56   10   53 1  
    57   11   54 1  
    58   11   55 1  
    59   11   56 1  
    60   13   57 1  
    61   13   58 1  
    62   13   59 1  
    63   16   60 1  
    64   16   61 1  
    65   17   62 1  
    66   17   63 1  
    67   17   64 1  
    68   18   65 1  
    69   20   66 1  
    70   22   67 1  
    71   23   68 1  
    72   23   69 1  
    73   24   70 1  
    74   24   71 1  
    75   24   72 1  
    76   25   73 1  
    77   26   74 1  
    78   27   75 1  
    79   33   76 1  
    80   38   77 1  
    81   43   78 1  
    82   43   79 1  
    83   43   80 1  
@<TRIPOS>SUBSTRUCTURE
     1 9ES         1

