### 
### Created by X-TOOL on Mon Sep 10 21:13:34 2018
### 

@<TRIPOS>MOLECULE
5vo6_ligand
   56    59     1     0     0
SMALL
GAST_HUCK


@<TRIPOS>ATOM
      1 C18         3.7060  -17.0300   -5.0420 C.3       1 9J4        -0.0044
      2 C17         2.8990  -16.9330   -6.3550 C.3       1 9J4        -0.0089
      3 C16         2.1860  -15.5200   -6.2450 C.3       1 9J4         0.0338
      4 C15         1.6780  -15.7170   -4.8130 C.3       1 9J4         0.0521
      5 C19         2.8960  -16.2050   -4.0300 C.3       1 9J4        -0.0232
      6 C20         3.0990  -14.2910   -6.4740 C.3       1 9J4        -0.0522
      7 C22         1.0180  -15.3530   -7.2300 C.3       1 9J4        -0.0522
      8 C23        -4.1220  -18.7720   -2.2530 C.ar      1 9J4        -0.0609
      9 C24        -4.6870  -20.0360   -2.1510 C.ar      1 9J4        -0.0655
     10 C11         0.2560  -11.8040   -3.9990 C.2       1 9J4         0.1836
     11 C27        -2.4970  -19.6250   -3.7980 C.ar      1 9J4        -0.0609
     12 C1         -1.1210  -15.3570   -3.5970 C.2       1 9J4         0.1306
     13 N2         -2.4080  -14.9700   -3.2270 N.pl3     1 9J4        -0.1695
     14 N3         -2.8720  -13.6870   -3.0860 N.2       1 9J4        -0.1837
     15 C4         -1.9840  -12.7870   -3.3470 C.2       1 9J4         0.0356
     16 C5         -0.6390  -12.9810   -3.7540 C.2       1 9J4         0.0833
     17 C6         -0.1790  -14.3080   -3.8830 C.2       1 9J4         0.1081
     18 C7         -1.1370  -16.7540   -3.6180 C.2       1 9J4        -0.0550
     19 C8         -2.4740  -17.1750   -3.2590 C.2       1 9J4        -0.0309
     20 C9         -3.2200  -16.0440   -3.0380 C.2       1 9J4         0.0612
     21 N10         1.0960  -14.5500   -4.1810 N.pl3     1 9J4        -0.3013
     22 N12        -0.1510  -10.6110   -3.5770 N.am      1 9J4        -0.3054
     23 O13         1.3500  -11.9280   -4.5750 O.2       1 9J4        -0.4025
     24 C14        -3.0180  -18.5480   -3.0810 C.ar      1 9J4        -0.0381
     25 N21         3.8560  -17.0270   -7.4790 N.4       1 9J4         0.2232
     26 C25        -4.1650  -21.0940   -2.8730 C.ar      1 9J4        -0.0655
     27 C26        -3.0750  -20.8880   -3.6990 C.ar      1 9J4        -0.0655
     28 C28         1.9830  -18.1390   -6.5290 C.3       1 9J4        -0.0183
     29 H1          4.7126  -16.6059   -5.1722 H         1 9J4         0.0324
     30 H2          3.7887  -18.0764   -4.7129 H         1 9J4         0.0324
     31 H3          0.9080  -16.5025   -4.8219 H         1 9J4         0.0571
     32 H4          3.4872  -15.3534   -3.6622 H         1 9J4         0.0290
     33 H5          2.5855  -16.8303   -3.1799 H         1 9J4         0.0290
     34 H6          3.4011  -14.2505   -7.5309 H         1 9J4         0.0238
     35 H7          3.9939  -14.3757   -5.8399 H         1 9J4         0.0238
     36 H8          2.5509  -13.3735   -6.2140 H         1 9J4         0.0238
     37 H9          0.3231  -16.1988   -7.1215 H         1 9J4         0.0238
     38 H10         1.4067  -15.3274   -8.2587 H         1 9J4         0.0238
     39 H11         0.4882  -14.4133   -7.0147 H         1 9J4         0.0238
     40 H12        -4.5414  -17.9498   -1.6845 H         1 9J4         0.0586
     41 H13        -5.5411  -20.1945   -1.5026 H         1 9J4         0.0607
     42 H14        -1.6346  -19.4775   -4.4379 H         1 9J4         0.0586
     43 H15        -2.3070  -11.7523   -3.2419 H         1 9J4         0.0871
     44 H16        -0.2984  -17.4054   -3.8598 H         1 9J4         0.0288
     45 H17        -4.2728  -16.0127   -2.7611 H         1 9J4         0.0845
     46 H18         1.7603  -13.8049   -3.9273 H         1 9J4         0.1872
     47 H19         0.4230   -9.8057   -3.7251 H         1 9J4         0.1795
     48 H20        -1.0312  -10.5189   -3.1115 H         1 9J4         0.1795
     49 H21         4.2710  -17.9455   -7.4910 H         1 9J4         0.2000
     50 H22         4.5784  -16.3334   -7.3642 H         1 9J4         0.2000
     51 H23         3.3708  -16.8662   -8.3478 H         1 9J4         0.2000
     52 H24        -4.6081  -22.0800   -2.7918 H         1 9J4         0.0586
     53 H25        -2.6687  -21.7136   -4.2720 H         1 9J4         0.0607
     54 H26         1.2315  -18.1475   -5.7258 H         1 9J4         0.0287
     55 H27         2.5794  -19.0621   -6.4829 H         1 9J4         0.0287
     56 H28         1.4771  -18.0776   -7.5038 H         1 9J4         0.0287
@<TRIPOS>BOND
     1    1    2 1  
     2    5    1 1  
     3    3    2 1  
     4    2   25 1  
     5    2   28 1  
     6    4    3 1  
     7    3    6 1  
     8    3    7 1  
     9    4    5 1  
    10   21    4 1  
    11    8    9 ar 
    12   24    8 ar 
    13    9   26 ar 
    14   16   10 1  
    15   10   22 am 
    16   10   23 2  
    17   24   11 ar 
    18   11   27 ar 
    19   13   12 1  
    20   12   17 1  
    21   18   12 2  
    22   13   14 1  
    23   20   13 1  
    24   14   15 2  
    25   15   16 1  
    26   17   16 2  
    27   17   21 1  
    28   19   18 1  
    29   19   20 2  
    30   19   24 1  
    31   26   27 ar 
    32    1   29 1  
    33    1   30 1  
    34    4   31 1  
    35    5   32 1  
    36    5   33 1  
    37    6   34 1  
    38    6   35 1  
    39    6   36 1  
    40    7   37 1  
    41    7   38 1  
    42    7   39 1  
    43    8   40 1  
    44    9   41 1  
    45   11   42 1  
    46   15   43 1  
    47   18   44 1  
    48   20   45 1  
    49   21   46 1  
    50   22   47 1  
    51   22   48 1  
    52   25   49 1  
    53   25   50 1  
    54   25   51 1  
    55   26   52 1  
    56   27   53 1  
    57   28   54 1  
    58   28   55 1  
    59   28   56 1  
@<TRIPOS>SUBSTRUCTURE
     1 9J4         1

