### 
### Created by X-TOOL on Mon Sep 10 21:13:31 2018
### 

@<TRIPOS>MOLECULE
5voj_ligand
  103   108     1     0     0
SMALL
GAST_HUCK


@<TRIPOS>ATOM
      1 C10       -13.6490  -15.5820   15.5950 C.ar      1 9H4         0.1982
      2 C13       -12.8690  -18.2300   16.8410 C.3       1 9H4         0.0213
      3 C20       -15.5700  -24.5640   15.9640 C.3       1 9H4        -0.0365
      4 C21       -14.4940  -25.5260   15.3890 C.2       1 9H4        -0.0985
      5 C22       -12.2530  -22.6190   14.4010 C.3       1 9H4         0.1453
      6 C24       -13.0850  -20.7140   15.7200 C.2       1 9H4         0.2014
      7 C26       -10.9710  -23.1940   15.0120 C.2       1 9H4         0.2463
      8 C01       -15.0480  -18.4220   17.3490 C.3       1 9H4         0.0683
      9 C02       -17.2150  -20.4070   16.2710 C.3       1 9H4         0.1330
     10 C03       -16.5430  -22.2710   17.8450 C.3       1 9H4        -0.0487
     11 C04       -15.5240  -24.5810   17.5180 C.3       1 9H4        -0.0464
     12 C05       -13.4900  -25.1540   14.5530 C.2       1 9H4        -0.0942
     13 C06       -13.3030  -23.6900   14.1080 C.3       1 9H4         0.0105
     14 C07       -12.4850  -23.0790   12.9530 C.3       1 9H4        -0.0069
     15 C08       -14.9430  -15.4080   13.2890 C.3       1 9H4        -0.0077
     16 C09       -13.9200  -14.8410   14.2730 C.ar      1 9H4         0.0876
     17 C12       -13.8450  -17.4600   17.0880 C.3       1 9H4         0.1116
     18 C14       -13.5780  -19.2490   15.7700 C.3       1 9H4         0.1364
     19 C16       -15.8090  -20.3690   15.6330 C.2       1 9H4         0.2064
     20 C18       -17.5130  -21.8360   16.6990 C.3       1 9H4        -0.0124
     21 C19       -16.7440  -23.7950   18.0910 C.3       1 9H4        -0.0513
     22 C32        -8.2230  -22.1090   17.6900 C.3       1 9H4         0.1085
     23 C33        -7.1110  -21.1840   17.1950 C.3       1 9H4        -0.0239
     24 C34        -6.7710  -22.3980   18.0710 C.3       1 9H4        -0.0239
     25 C36       -18.4490  -18.6860   14.8900 C.2       1 9H4         0.3223
     26 C39       -19.7450  -17.3020   13.3270 C.3       1 9H4         0.0905
     27 C40       -20.6610  -17.5980   12.1090 C.3       1 9H4        -0.0320
     28 C41       -18.5280  -16.4650   12.8500 C.3       1 9H4        -0.0320
     29 C42       -20.5530  -16.5740   14.4320 C.3       1 9H4        -0.0320
     30 C44       -11.9950  -13.8550   16.2410 C.ar      1 9H4         0.0423
     31 C45       -10.9860  -13.3440   17.2840 C.ar      1 9H4        -0.0161
     32 C46       -10.2080  -12.0590   17.0000 C.ar      1 9H4         0.0960
     33 C48        -8.9370  -12.4330   19.0340 C.3       1 9H4         0.0605
     34 C49       -10.4510  -11.2830   15.6980 C.ar      1 9H4        -0.0236
     35 C50       -11.4600  -11.7960   14.6660 C.ar      1 9H4        -0.0425
     36 C51       -12.2390  -13.1070   14.9550 C.ar      1 9H4         0.0479
     37 C53        -9.1910  -21.5630   18.7650 C.3       1 9H4        -0.0378
     38 N15       -14.8150  -19.4060   16.1750 N.am      1 9H4        -0.2468
     39 N23       -12.5280  -21.1920   14.4510 N.am      1 9H4        -0.2722
     40 N28       -10.2840  -22.5040   15.8290 N.am      1 9H4        -0.1548
     41 N35       -18.1800  -20.0730   15.2760 N.am      1 9H4        -0.2412
     42 N43       -12.6950  -15.1000   16.5650 N.ar      1 9H4        -0.2649
     43 N52       -13.2130  -13.6110   13.9730 N.ar      1 9H4        -0.2832
     44 O11       -14.3450  -16.7640   15.8570 O.3       1 9H4        -0.2852
     45 O17       -15.5380  -21.0950   14.7210 O.2       1 9H4        -0.3942
     46 O25       -13.2040  -21.4500   16.6620 O.2       1 9H4        -0.3947
     47 O27       -10.5900  -24.4830   14.6690 O.2       1 9H4        -0.3402
     48 O30        -7.9180  -23.7550   15.5160 O.2       1 9H4        -0.1501
     49 O31        -9.3720  -24.4310   17.2520 O.2       1 9H4        -0.1501
     50 O37       -17.9790  -17.7480   15.4570 O.2       1 9H4        -0.3774
     51 O38       -19.3230  -18.5860   13.7940 O.3       1 9H4        -0.2580
     52 O47        -9.2890  -11.5850   17.9460 O.3       1 9H4        -0.3183
     53 S29        -8.9210  -23.2630   16.4780 S.o2      1 9H4         0.0671
     54 H1        -12.5270  -18.7586   17.7430 H         1 9H4         0.0343
     55 H2        -12.0242  -17.6877   16.3913 H         1 9H4         0.0343
     56 H3        -16.5655  -24.8872   15.6257 H         1 9H4         0.0388
     57 H4        -15.3745  -23.5427   15.6052 H         1 9H4         0.0388
     58 H5        -14.5487  -26.5748   15.6771 H         1 9H4         0.0450
     59 H6        -16.0161  -17.9056   17.2708 H         1 9H4         0.0554
     60 H7        -14.9759  -18.9197   18.3273 H         1 9H4         0.0554
     61 H8        -17.2726  -19.7167   17.1255 H         1 9H4         0.0799
     62 H9        -16.7743  -21.7108   18.7630 H         1 9H4         0.0267
     63 H10       -15.5022  -22.0747   17.5481 H         1 9H4         0.0267
     64 H11       -14.5916  -24.1088   17.8610 H         1 9H4         0.0285
     65 H12       -15.5604  -25.6214   17.8732 H         1 9H4         0.0285
     66 H13       -12.7980  -25.9110   14.1870 H         1 9H4         0.0452
     67 H14       -14.3330  -23.3092   14.1712 H         1 9H4         0.0435
     68 H15       -11.7233  -23.6824   12.4375 H         1 9H4         0.0300
     69 H16       -12.9690  -22.4047   12.2312 H         1 9H4         0.0300
     70 H17       -15.0057  -14.7532   12.4074 H         1 9H4         0.0427
     71 H18       -15.9280  -15.4634   13.7754 H         1 9H4         0.0427
     72 H19       -14.6314  -16.4154   12.9760 H         1 9H4         0.0427
     73 H20       -13.6245  -16.7670   17.9133 H         1 9H4         0.0683
     74 H21       -13.5217  -18.8036   14.7658 H         1 9H4         0.0803
     75 H22       -17.3820  -22.5078   15.8379 H         1 9H4         0.0312
     76 H23       -18.5507  -21.8985   17.0584 H         1 9H4         0.0312
     77 H24       -17.6638  -24.1291   17.5887 H         1 9H4         0.0267
     78 H25       -16.8269  -23.9840   19.1715 H         1 9H4         0.0267
     79 H26        -7.0182  -20.1670   17.6039 H         1 9H4         0.0288
     80 H27        -6.8329  -21.1781   16.1308 H         1 9H4         0.0288
     81 H28        -6.2492  -23.2625   17.6348 H         1 9H4         0.0288
     82 H29        -6.4345  -22.2514   19.1079 H         1 9H4         0.0288
     83 H30       -21.0300  -16.6507   11.6890 H         1 9H4         0.0260
     84 H31       -21.5140  -18.2126   12.4325 H         1 9H4         0.0260
     85 H32       -20.0880  -18.1404   11.3425 H         1 9H4         0.0260
     86 H33       -17.8725  -16.2500   13.7068 H         1 9H4         0.0260
     87 H34       -18.8818  -15.5197   12.4128 H         1 9H4         0.0260
     88 H35       -17.9672  -17.0321   12.0925 H         1 9H4         0.0260
     89 H36       -21.4028  -17.2016   14.7385 H         1 9H4         0.0260
     90 H37       -20.9268  -15.6158   14.0419 H         1 9H4         0.0260
     91 H38       -19.9028  -16.3881   15.2995 H         1 9H4         0.0260
     92 H39       -10.8288  -13.8881   18.2083 H         1 9H4         0.0508
     93 H40        -8.2118  -11.9176   19.6808 H         1 9H4         0.0580
     94 H41        -8.4888  -13.3598   18.6465 H         1 9H4         0.0580
     95 H42        -9.8384  -12.6768   19.6154 H         1 9H4         0.0580
     96 H43        -9.9050  -10.3661   15.5077 H         1 9H4         0.0606
     97 H44       -11.6280  -11.2499   13.7448 H         1 9H4         0.0637
     98 H45        -8.6481  -20.8788   19.4337 H         1 9H4         0.0251
     99 H46        -9.5993  -22.4003   19.3500 H         1 9H4         0.0251
    100 H47       -10.0142  -21.0214   18.2761 H         1 9H4         0.0251
    101 H48       -12.3506  -20.5827   13.6781 H         1 9H4         0.1841
    102 H49       -10.5353  -21.5674   16.0732 H         1 9H4         0.2148
    103 H50       -18.6887  -20.8082   14.8280 H         1 9H4         0.1899
@<TRIPOS>BOND
     1    1   16 ar 
     2    1   42 ar 
     3   44    1 1  
     4    2   17 1  
     5   18    2 1  
     6    4    3 1  
     7    3   11 1  
     8   12    4 2  
     9    7    5 1  
    10    5   13 1  
    11    5   14 1  
    12    5   39 1  
    13    6   18 1  
    14   39    6 am 
    15    6   46 2  
    16   40    7 am 
    17    7   47 2  
    18    8   17 1  
    19   38    8 1  
    20   19    9 1  
    21    9   20 1  
    22    9   41 1  
    23   20   10 1  
    24   21   10 1  
    25   11   21 1  
    26   13   12 1  
    27   14   13 1  
    28   16   15 1  
    29   16   43 ar 
    30   17   44 1  
    31   18   38 1  
    32   38   19 am 
    33   19   45 2  
    34   22   23 1  
    35   22   24 1  
    36   22   37 1  
    37   53   22 1  
    38   24   23 1  
    39   41   25 am 
    40   25   50 2  
    41   25   51 1  
    42   26   27 1  
    43   26   28 1  
    44   26   29 1  
    45   51   26 1  
    46   30   31 ar 
    47   30   36 ar 
    48   42   30 ar 
    49   31   32 ar 
    50   32   34 ar 
    51   32   52 1  
    52   52   33 1  
    53   35   34 ar 
    54   36   35 ar 
    55   43   36 ar 
    56   40   53 am 
    57   53   48 2  
    58   53   49 2  
    59    2   54 1  
    60    2   55 1  
    61    3   56 1  
    62    3   57 1  
    63    4   58 1  
    64    8   59 1  
    65    8   60 1  
    66    9   61 1  
    67   10   62 1  
    68   10   63 1  
    69   11   64 1  
    70   11   65 1  
    71   12   66 1  
    72   13   67 1  
    73   14   68 1  
    74   14   69 1  
    75   15   70 1  
    76   15   71 1  
    77   15   72 1  
    78   17   73 1  
    79   18   74 1  
    80   20   75 1  
    81   20   76 1  
    82   21   77 1  
    83   21   78 1  
    84   23   79 1  
    85   23   80 1  
    86   24   81 1  
    87   24   82 1  
    88   27   83 1  
    89   27   84 1  
    90   27   85 1  
    91   28   86 1  
    92   28   87 1  
    93   28   88 1  
    94   29   89 1  
    95   29   90 1  
    96   29   91 1  
    97   31   92 1  
    98   33   93 1  
    99   33   94 1  
   100   33   95 1  
   101   34   96 1  
   102   35   97 1  
   103   37   98 1  
   104   37   99 1  
   105   37  100 1  
   106   39  101 1  
   107   40  102 1  
   108   41  103 1  
@<TRIPOS>SUBSTRUCTURE
     1 9H4         1

