### 
### Created by X-TOOL on Mon Sep 10 21:13:31 2018
### 

@<TRIPOS>MOLECULE
5vom_ligand
   54    57     1     0     0
SMALL
GAST_HUCK


@<TRIPOS>ATOM
      1 CBD         1.7530   20.4960   -6.0920 C.3       1 9GY         0.0191
      2 NBC         3.2170   20.7000   -5.9490 N.am      1 9GY        -0.2892
      3 CBA         3.9900   19.6290   -5.7430 C.2       1 9GY         0.2042
      4 OBB         3.5330   18.4890   -5.6920 O.2       1 9GY        -0.3846
      5 CAC         5.3650   19.8800   -5.5410 C.ar      1 9GY         0.0480
      6 CAD         6.3760   19.2070   -6.2560 C.ar      1 9GY        -0.0381
      7 CAB         5.7300   20.8010   -4.5510 C.ar      1 9GY        -0.0442
      8 CAA         7.0770   21.0710   -4.2750 C.ar      1 9GY        -0.0582
      9 CAF         8.0720   20.4130   -5.0230 C.ar      1 9GY        -0.0539
     10 CAE         7.7400   19.4580   -6.0000 C.ar      1 9GY        -0.0256
     11 CAG         8.7590   18.8280   -6.7560 C.ar      1 9GY        -0.0451
     12 CAH        10.0850   18.6840   -6.3000 C.ar      1 9GY        -0.0452
     13 CAI        11.0600   18.0310   -7.0770 C.ar      1 9GY         0.0939
     14 CAL         8.4860   18.3610   -8.0490 C.ar      1 9GY        -0.0812
     15 CAK         9.4570   17.7630   -8.8610 C.ar      1 9GY        -0.0503
     16 CAJ        10.7630   17.5900   -8.3680 C.ar      1 9GY         0.0959
     17 NAP        11.7820   17.0260   -9.0760 N.am      1 9GY        -0.2177
     18 CAQ        11.6980   15.9020   -9.8330 C.2       1 9GY         0.2013
     19 OAR        12.6670   15.4620  -10.4460 O.2       1 9GY        -0.3859
     20 CAS        10.3390   15.1530   -9.9360 C.3       1 9GY         0.0315
     21 CAO        13.1440   17.6960   -9.0010 C.3       1 9GY         0.0867
     22 CBE        13.4070   18.5580  -10.2490 C.3       1 9GY        -0.0345
     23 CAN        13.2880   18.5220   -7.6950 C.3       1 9GY         0.0799
     24 NAM        12.3680   17.9140   -6.6830 N.am      1 9GY        -0.2209
     25 CAT        12.9020   17.5080   -5.4960 C.2       1 9GY         0.2550
     26 OAU        14.1250   17.6190   -5.3400 O.2       1 9GY        -0.3801
     27 CAV        12.2370   16.8650   -4.5250 C.2       1 9GY         0.1898
     28 OAW        10.9600   16.3700   -4.5880 O.3       1 9GY        -0.2501
     29 CAX        10.7450   15.7460   -3.3450 C.2       1 9GY         0.0865
     30 CAY        11.8630   15.8750   -2.6230 C.2       1 9GY        -0.0558
     31 CAZ        12.7630   16.5530   -3.3350 C.2       1 9GY        -0.0433
     32 H1          1.2618   21.4666   -6.2550 H         1 9GY         0.0483
     33 H2          1.3561   20.0334   -5.1764 H         1 9GY         0.0483
     34 H3          1.5567   19.8370   -6.9506 H         1 9GY         0.0483
     35 H4          3.6147   21.6158   -6.0054 H         1 9GY         0.1841
     36 H5          6.1006   18.4843   -7.0155 H         1 9GY         0.0656
     37 H6          4.9576   21.3135   -3.9889 H         1 9GY         0.0650
     38 H7          7.3489   21.7757   -3.4975 H         1 9GY         0.0623
     39 H8          9.1148   20.6474   -4.8420 H         1 9GY         0.0637
     40 H9         10.3594   19.0845   -5.3308 H         1 9GY         0.0455
     41 H10         7.4794   18.4675   -8.4370 H         1 9GY         0.0469
     42 H11         9.2041   17.4355   -9.8629 H         1 9GY         0.0462
     43 H12        10.4540   14.2723  -10.5849 H         1 9GY         0.0471
     44 H13         9.5807   15.8261  -10.3625 H         1 9GY         0.0471
     45 H14        10.0210   14.8308   -8.9335 H         1 9GY         0.0471
     46 H15        13.9059   16.9029   -8.9784 H         1 9GY         0.0642
     47 H16        14.3975   19.0293  -10.1670 H         1 9GY         0.0257
     48 H17        12.6351   19.3379  -10.3253 H         1 9GY         0.0257
     49 H18        13.3764   17.9228  -11.1465 H         1 9GY         0.0257
     50 H19        13.0068   19.5695   -7.8786 H         1 9GY         0.0608
     51 H20        14.3263   18.4789   -7.3343 H         1 9GY         0.0608
     52 H21         9.8306   15.2468   -3.0276 H         1 9GY         0.1038
     53 H22        12.0138   15.4886   -1.6161 H         1 9GY         0.0364
     54 H23        13.7668   16.8118   -3.0012 H         1 9GY         0.0433
@<TRIPOS>BOND
     1    1    2 1  
     2    2    3 am 
     3    3    4 2  
     4    3    5 1  
     5    5    6 ar 
     6    5    7 ar 
     7    6   10 ar 
     8    7    8 ar 
     9    8    9 ar 
    10    9   10 ar 
    11   10   11 1  
    12   11   12 ar 
    13   11   14 ar 
    14   12   13 ar 
    15   13   16 ar 
    16   13   24 1  
    17   14   15 ar 
    18   15   16 ar 
    19   16   17 1  
    20   17   18 am 
    21   17   21 1  
    22   18   19 2  
    23   18   20 1  
    24   21   22 1  
    25   21   23 1  
    26   23   24 1  
    27   24   25 am 
    28   25   26 2  
    29   25   27 1  
    30   27   28 1  
    31   27   31 2  
    32   28   29 1  
    33   29   30 2  
    34   30   31 1  
    35    1   32 1  
    36    1   33 1  
    37    1   34 1  
    38    2   35 1  
    39    6   36 1  
    40    7   37 1  
    41    8   38 1  
    42    9   39 1  
    43   12   40 1  
    44   14   41 1  
    45   15   42 1  
    46   20   43 1  
    47   20   44 1  
    48   20   45 1  
    49   21   46 1  
    50   22   47 1  
    51   22   48 1  
    52   22   49 1  
    53   23   50 1  
    54   23   51 1  
    55   29   52 1  
    56   30   53 1  
    57   31   54 1  
@<TRIPOS>SUBSTRUCTURE
     1 9GY         1

