### 
### Created by X-TOOL on Mon Sep 10 21:13:33 2018
### 

@<TRIPOS>MOLECULE
5vp0_ligand
   50    52     1     0     0
SMALL
GAST_HUCK


@<TRIPOS>ATOM
      1 N1         26.9630    5.3670   25.6190 N.ar      1 9GJ        -0.3119
      2 N3         25.3650    3.8930   26.6650 N.am      1 9GJ        -0.1795
      3 C4         28.1310    5.8860   28.0410 C.ar      1 9GJ        -0.0062
      4 C5         28.0080    6.1980   25.7060 C.ar      1 9GJ         0.0029
      5 C6         24.4010    4.3870   22.1970 C.ar      1 9GJ        -0.0286
      6 C7         27.0510    5.0350   27.9460 C.ar      1 9GJ         0.1108
      7 C8         23.5090    6.3590   20.4840 C.ar      1 9GJ         0.1267
      8 C10        24.2510    6.6910   21.5910 C.ar      1 9GJ         0.1537
      9 C13        24.6950    3.5600   25.4950 C.2       1 9GJ         0.2925
     10 C15        30.5890    7.2090   27.9540 C.3       1 9GJ         0.0575
     11 C17        25.9470    2.4670   22.4070 C.3       1 9GJ         0.0782
     12 C1         23.6560    4.0620   21.0760 C.ar      1 9GJ        -0.0706
     13 C2         23.2100    5.0400   20.2150 C.ar      1 9GJ        -0.0407
     14 C3         24.6930    5.7130   22.4570 C.ar      1 9GJ        -0.0328
     15 C9         28.6290    6.4890   26.8990 C.ar      1 9GJ         0.0864
     16 C11        26.4690    4.7820   26.7220 C.ar      1 9GJ         0.1580
     17 C12        25.4040    3.7500   29.2270 C.2       1 9GJ         0.2304
     18 C14        24.7020    3.5690   27.9170 C.3       1 9GJ         0.1491
     19 C16        28.1080    2.5260   21.5390 C.3       1 9GJ         0.0367
     20 C18        24.8600    3.2790   23.0820 C.3       1 9GJ         0.0939
     21 C19        21.8570    7.9280   19.9450 C.3       1 9GJ         0.5444
     22 N2         26.5880    4.4320   29.1180 N.am      1 9GJ        -0.2313
     23 N4         25.3790    3.7510   24.3280 N.am      1 9GJ        -0.2530
     24 O1         24.9410    3.3170   30.2770 O.2       1 9GJ        -0.3827
     25 O2         23.5580    3.1210   25.4810 O.2       1 9GJ        -0.3907
     26 O3         29.7000    7.3750   26.8550 O.3       1 9GJ        -0.3277
     27 O4         23.1000    7.3440   19.6070 O.3       1 9GJ        -0.2304
     28 O5         27.0610    3.3030   22.1130 O.3       1 9GJ        -0.3789
     29 F1         24.5480    7.9740   21.8300 F         1 9GJ        -0.1918
     30 F2         21.7810    8.3880   21.2140 F         1 9GJ        -0.1403
     31 F3         20.8900    7.0130   19.7250 F         1 9GJ        -0.1403
     32 F4         21.7230    9.0150   19.1480 F         1 9GJ        -0.1403
     33 H1         28.5877    6.0819   29.0044 H         1 9GJ         0.0485
     34 H2         28.3807    6.6610   24.7995 H         1 9GJ         0.0549
     35 H3         31.4144    7.9313   27.8703 H         1 9GJ         0.0574
     36 H4         30.9945    6.1865   27.9464 H         1 9GJ         0.0574
     37 H5         30.0453    7.3809   28.8947 H         1 9GJ         0.0574
     38 H6         25.5557    2.0382   21.4727 H         1 9GJ         0.0603
     39 H7         26.2663    1.6555   23.0775 H         1 9GJ         0.0603
     40 H8         23.4206    3.0235   20.8733 H         1 9GJ         0.0497
     41 H9         22.6313    4.7763   19.3371 H         1 9GJ         0.0514
     42 H10        25.2662    5.9825   23.3367 H         1 9GJ         0.0516
     43 H11        24.4198    2.5075   27.8567 H         1 9GJ         0.0831
     44 H12        23.7937    4.1880   27.9600 H         1 9GJ         0.0831
     45 H13        28.9661    3.1764   21.3138 H         1 9GJ         0.0524
     46 H14        27.7499    2.0569   20.6107 H         1 9GJ         0.0524
     47 H15        28.4166    1.7448   22.2493 H         1 9GJ         0.0524
     48 H16        23.9986    2.6257   23.2848 H         1 9GJ         0.0718
     49 H17        27.1606    4.5029   29.9348 H         1 9GJ         0.2245
     50 H18        26.2573    4.2289   24.3454 H         1 9GJ         0.1880
@<TRIPOS>BOND
     1    1    4 ar 
     2   16    1 ar 
     3    9    2 am 
     4    2   16 1  
     5    2   18 1  
     6    6    3 ar 
     7    3   15 ar 
     8    4   15 ar 
     9    5   12 ar 
    10    5   14 ar 
    11   20    5 1  
    12   16    6 ar 
    13    6   22 1  
    14    8    7 ar 
    15   13    7 ar 
    16    7   27 1  
    17   14    8 ar 
    18    8   29 1  
    19   23    9 am 
    20    9   25 2  
    21   26   10 1  
    22   20   11 1  
    23   11   28 1  
    24   12   13 ar 
    25   15   26 1  
    26   18   17 1  
    27   17   22 am 
    28   17   24 2  
    29   28   19 1  
    30   20   23 1  
    31   27   21 1  
    32   21   30 1  
    33   21   31 1  
    34   21   32 1  
    35    3   33 1  
    36    4   34 1  
    37   10   35 1  
    38   10   36 1  
    39   10   37 1  
    40   11   38 1  
    41   11   39 1  
    42   12   40 1  
    43   13   41 1  
    44   14   42 1  
    45   18   43 1  
    46   18   44 1  
    47   19   45 1  
    48   19   46 1  
    49   19   47 1  
    50   20   48 1  
    51   22   49 1  
    52   23   50 1  
@<TRIPOS>SUBSTRUCTURE
     1 9GJ         1

