### 
### Created by X-TOOL on Mon Sep 10 21:13:34 2018
### 

@<TRIPOS>MOLECULE
5vp1_ligand
   57    60     1     0     0
SMALL
GAST_HUCK


@<TRIPOS>ATOM
      1 N3         14.8230    7.7370   65.9650 N.2       1 9GA        -0.2769
      2 C4         14.2000    6.7410   66.5130 C.2       1 9GA         0.1471
      3 C7         13.4900    6.2120   68.8030 C.2       1 9GA         0.1968
      4 C10        10.5820    3.9390   68.9350 C.2       1 9GA         0.0667
      5 N12        11.0160    3.9030   71.1010 N.2       1 9GA        -0.2113
      6 C15        13.7820    6.2230   70.2010 C.2       1 9GA         0.0633
      7 C17         9.9760    3.6000   67.6330 C.2       1 9GA         0.1721
      8 C20        10.4480    3.5760   65.1680 C.3       1 9GA         0.0970
      9 C22         9.8170    4.6840   64.3560 C.ar      1 9GA        -0.0262
     10 C24         9.5750    7.0060   63.7570 C.ar      1 9GA        -0.0392
     11 C1         15.8830    9.9450   66.6120 C.3       1 9GA        -0.0115
     12 C2         15.1470    8.6530   66.8760 C.2       1 9GA         0.0760
     13 N5         14.1450    6.9810   67.8400 N.pl3     1 9GA        -0.1176
     14 N6         14.7310    8.2400   68.0370 N.2       1 9GA        -0.1827
     15 N8         12.4600    5.5060   68.3450 N.2       1 9GA        -0.2377
     16 C9         11.6970    4.7710   69.1620 C.2       1 9GA         0.1718
     17 C11        10.2100    3.4190   70.1880 C.2       1 9GA        -0.0015
     18 N13        11.9540    4.7480   70.5150 N.pl3     1 9GA        -0.1416
     19 C14        12.9950    5.4780   71.0370 C.2       1 9GA         0.1134
     20 C16        14.9220    6.9840   70.8370 C.3       1 9GA        -0.0242
     21 O18         8.9070    3.0370   67.5360 O.2       1 9GA        -0.4100
     22 N19        10.7220    3.8850   66.5620 N.am      1 9GA        -0.2786
     23 C23        10.1260    6.0240   64.5670 C.ar      1 9GA        -0.0665
     24 C25         8.6960    6.6360   62.7350 C.ar      1 9GA         0.0934
     25 O26         8.1430    7.5880   61.9390 O.3       1 9GA        -0.2304
     26 C27         7.0330    8.3190   62.4530 C.3       1 9GA         0.5451
     27 F28         7.3600    9.0710   63.5820 F         1 9GA        -0.1402
     28 F29         6.6180    9.1710   61.4480 F         1 9GA        -0.1402
     29 F30         6.0400    7.4260   62.8010 F         1 9GA        -0.1402
     30 C31         8.3830    5.2940   62.5140 C.ar      1 9GA        -0.0392
     31 C32         8.9340    4.3230   63.3290 C.ar      1 9GA        -0.0665
     32 C33        11.8560    3.1860   64.6010 C.3       1 9GA         0.0911
     33 C34        12.4740    2.0560   65.4350 C.3       1 9GA        -0.0325
     34 C35        11.7940    2.7090   63.1410 C.3       1 9GA        -0.0325
     35 O36        12.7920    4.2760   64.6290 O.3       1 9GA        -0.3850
     36 H1         13.7956    5.8711   65.9977 H         1 9GA         0.1396
     37 H2          9.7728    2.7089   65.1213 H         1 9GA         0.0724
     38 H3          9.8234    8.0493   63.9148 H         1 9GA         0.0525
     39 H4         16.1069   10.0266   65.5381 H         1 9GA         0.0411
     40 H5         16.8224    9.9554   67.1842 H         1 9GA         0.0411
     41 H6         15.2558   10.7941   66.9212 H         1 9GA         0.0411
     42 H7          9.3879    2.7282   70.3694 H         1 9GA         0.0673
     43 H8         13.1922    5.4637   72.1079 H         1 9GA         0.1237
     44 H9         15.4715    7.5373   70.0611 H         1 9GA         0.0364
     45 H10        15.6023    6.2772   71.3346 H         1 9GA         0.0364
     46 H11        14.5222    7.6916   71.5782 H         1 9GA         0.0364
     47 H12        11.5765    4.3723   66.7418 H         1 9GA         0.1856
     48 H13        10.8008    6.3021   65.3685 H         1 9GA         0.0531
     49 H14         7.7127    5.0152   61.7091 H         1 9GA         0.0525
     50 H15         8.6827    3.2801   63.1736 H         1 9GA         0.0531
     51 H16        13.4604    1.7946   65.0244 H         1 9GA         0.0259
     52 H17        11.8174    1.1741   65.4013 H         1 9GA         0.0259
     53 H18        12.5873    2.3892   66.4772 H         1 9GA         0.0259
     54 H19        11.3541    3.4996   62.5154 H         1 9GA         0.0259
     55 H20        11.1733    1.8031   63.0772 H         1 9GA         0.0259
     56 H21        12.8102    2.4830   62.7856 H         1 9GA         0.0259
     57 H22        13.6183    3.9920   64.2560 H         1 9GA         0.2104
@<TRIPOS>BOND
     1    2    1 2  
     2   12    1 1  
     3   13    2 1  
     4    3    6 1  
     5    3   13 1  
     6   15    3 2  
     7    4    7 1  
     8   16    4 2  
     9    4   17 1  
    10   17    5 2  
    11    5   18 1  
    12    6   19 2  
    13    6   20 1  
    14    7   21 2  
    15    7   22 am 
    16    8    9 1  
    17   22    8 1  
    18    8   32 1  
    19    9   23 ar 
    20    9   31 ar 
    21   23   10 ar 
    22   10   24 ar 
    23   12   11 1  
    24   14   12 2  
    25   13   14 1  
    26   15   16 1  
    27   16   18 1  
    28   18   19 1  
    29   24   25 1  
    30   24   30 ar 
    31   25   26 1  
    32   26   27 1  
    33   26   28 1  
    34   26   29 1  
    35   30   31 ar 
    36   32   33 1  
    37   32   34 1  
    38   32   35 1  
    39    2   36 1  
    40    8   37 1  
    41   10   38 1  
    42   11   39 1  
    43   11   40 1  
    44   11   41 1  
    45   17   42 1  
    46   19   43 1  
    47   20   44 1  
    48   20   45 1  
    49   20   46 1  
    50   22   47 1  
    51   23   48 1  
    52   30   49 1  
    53   31   50 1  
    54   33   51 1  
    55   33   52 1  
    56   33   53 1  
    57   34   54 1  
    58   34   55 1  
    59   34   56 1  
    60   35   57 1  
@<TRIPOS>SUBSTRUCTURE
     1 9GA         1

