### 
### Created by X-TOOL on Mon Sep 10 21:13:31 2018
### 

@<TRIPOS>MOLECULE
5vp9_ligand
  112   118     1     0     0
SMALL
GAST_HUCK


@<TRIPOS>ATOM
      1 C10       -13.1050  -14.1590   14.9730 C.3       1 9H7         0.0935
      2 C13       -13.9010  -17.2790   17.0240 C.3       1 9H7         0.0894
      3 C15       -13.3620  -19.1390   15.6460 C.3       1 9H7         0.1359
      4 C17       -15.9140  -20.1600   15.6720 C.2       1 9H7         0.2064
      5 C20       -16.6870  -23.2950   18.5010 C.3       1 9H7        -0.0513
      6 C21       -15.7870  -24.2740   16.3500 C.3       1 9H7        -0.0365
      7 C22       -14.7950  -25.3080   15.7450 C.2       1 9H7        -0.0985
      8 C01       -15.0610  -17.9730   17.1630 C.3       1 9H7         0.0634
      9 C02       -17.3320  -20.1260   16.2420 C.3       1 9H7         0.1330
     10 C03       -16.4660  -21.8420   17.9750 C.3       1 9H7        -0.0487
     11 C04       -15.5940  -24.2220   17.8870 C.3       1 9H7        -0.0464
     12 C05       -13.7290  -24.9510   14.9780 C.2       1 9H7        -0.0942
     13 C06       -13.3870  -23.4690   14.6370 C.3       1 9H7         0.0105
     14 C07       -12.6770  -23.7870   13.3130 C.3       1 9H7        -0.0069
     15 C08       -14.1660  -13.1580   12.7480 C.2       1 9H7        -0.0760
     16 C09       -13.9590  -14.2540   13.6960 C.2       1 9H7         0.0676
     17 C11       -13.1740  -15.2310   16.1020 C.3       1 9H7         0.1392
     18 C14       -12.7440  -18.4190   16.5800 C.3       1 9H7         0.0163
     19 C19       -17.5800  -21.4820   16.9230 C.3       1 9H7        -0.0124
     20 C23       -12.1640  -22.6510   14.1920 C.3       1 9H7         0.1453
     21 C25       -12.9990  -20.6360   15.6410 C.2       1 9H7         0.2014
     22 C27       -10.9230  -23.1230   14.9770 C.2       1 9H7         0.2463
     23 C33        -8.0940  -21.8920   17.5470 C.3       1 9H7         0.1004
     24 C34        -6.8350  -21.2940   16.9210 C.3       1 9H7        -0.0268
     25 C35        -6.7160  -22.3210   18.0560 C.3       1 9H7        -0.0268
     26 C37       -18.5580  -18.6020   14.6370 C.2       1 9H7         0.3223
     27 C40       -19.9580  -17.2250   13.1700 C.3       1 9H7         0.0905
     28 C41       -20.5490  -16.5530   14.4380 C.3       1 9H7        -0.0320
     29 C42       -21.1180  -17.4890   12.1730 C.3       1 9H7        -0.0320
     30 C43       -18.9010  -16.3050   12.4980 C.3       1 9H7        -0.0320
     31 C45       -11.4450  -13.8980   17.4180 C.3       1 9H7         0.0240
     32 C46       -10.5560  -13.7410   18.6920 C.3       1 9H7        -0.0044
     33 C47        -9.6190  -12.5310   18.8180 C.3       1 9H7        -0.0476
     34 C48        -9.5610  -11.4820   17.6900 C.3       1 9H7        -0.0476
     35 C49       -10.4320  -11.6400   16.4360 C.3       1 9H7        -0.0044
     36 C50       -11.3810  -12.8660   16.3100 C.3       1 9H7         0.0233
     37 C52       -15.1250  -13.7070   11.5770 C.2       1 9H7        -0.0930
     38 C54       -15.4570  -15.1000   11.8610 C.2       1 9H7        -0.0194
     39 N16       -14.9070  -19.1610   16.1370 N.am      1 9H7        -0.2473
     40 N24       -12.5040  -21.2010   14.3840 N.am      1 9H7        -0.2722
     41 N29       -10.3160  -22.3600   15.7950 N.am      1 9H7        -0.1550
     42 N36       -18.3020  -19.9460   15.1810 N.am      1 9H7        -0.2412
     43 N44       -12.3430  -15.0660   17.2890 N.4       1 9H7         0.2611
     44 N51       -12.2150  -13.0140   15.0970 N.4       1 9H7         0.2553
     45 O12       -14.0490  -16.3480   15.9780 O.3       1 9H7        -0.3245
     46 O18       -15.5940  -20.9990   14.8870 O.2       1 9H7        -0.3942
     47 O26       -13.1500  -21.3130   16.6060 O.2       1 9H7        -0.3947
     48 O28       -10.4170  -24.3910   14.7680 O.2       1 9H7        -0.3402
     49 O31        -8.1030  -23.7300   15.4830 O.2       1 9H7        -0.1503
     50 O32        -9.4240  -24.2690   17.3180 O.2       1 9H7        -0.1503
     51 O38       -18.0570  -17.6500   15.1500 O.2       1 9H7        -0.3774
     52 O39       -19.3870  -18.4970   13.4840 O.3       1 9H7        -0.2580
     53 S30        -8.9710  -23.1290   16.5040 S.o2      1 9H7         0.0645
     54 S53       -14.7460  -15.4990   13.1960 S.3       1 9H7        -0.0384
     55 H1        -12.3072  -14.7384   14.4853 H         1 9H7         0.1128
     56 H2        -13.6240  -16.7709   17.9594 H         1 9H7         0.0621
     57 H3        -13.2238  -18.6926   14.6502 H         1 9H7         0.0803
     58 H4        -17.6840  -23.6495   18.2006 H         1 9H7         0.0267
     59 H5        -16.6086  -23.3072   19.5981 H         1 9H7         0.0267
     60 H6        -16.8193  -24.5755   16.1188 H         1 9H7         0.0388
     61 H7        -15.5903  -23.2805   15.9207 H         1 9H7         0.0388
     62 H8        -14.9610  -26.3657   15.9442 H         1 9H7         0.0450
     63 H9        -15.9275  -17.3447   16.9093 H         1 9H7         0.0550
     64 H10       -15.1712  -18.3524   18.1896 H         1 9H7         0.0550
     65 H11       -17.4255  -19.3084   16.9720 H         1 9H7         0.0799
     66 H12       -15.4771  -21.7724   17.4983 H         1 9H7         0.0267
     67 H13       -16.5174  -21.1366   18.8175 H         1 9H7         0.0267
     68 H14       -15.6904  -25.2345   18.3059 H         1 9H7         0.0285
     69 H15       -14.5964  -23.8219   18.1207 H         1 9H7         0.0285
     70 H16       -13.0856  -25.7366   14.5845 H         1 9H7         0.0452
     71 H17       -14.2851  -22.8536   14.7942 H         1 9H7         0.0435
     72 H18       -13.1713  -23.5611   12.3567 H         1 9H7         0.0300
     73 H19       -12.0901  -24.7119   13.2129 H         1 9H7         0.0300
     74 H20       -13.7480  -12.1551   12.8213 H         1 9H7         0.0278
     75 H21       -12.3720  -15.8049   15.6147 H         1 9H7         0.1275
     76 H22       -12.4609  -19.0469   17.4376 H         1 9H7         0.0338
     77 H23       -11.8471  -17.9308   16.1711 H         1 9H7         0.0338
     78 H24       -17.6023  -22.2654   16.1511 H         1 9H7         0.0312
     79 H25       -18.5518  -21.4459   17.4370 H         1 9H7         0.0312
     80 H26        -8.7863  -21.2962   18.1600 H         1 9H7         0.0559
     81 H27        -6.5772  -20.2403   17.1033 H         1 9H7         0.0285
     82 H28        -6.5455  -21.5704   15.8964 H         1 9H7         0.0285
     83 H29        -6.3419  -23.3337   17.8451 H         1 9H7         0.0285
     84 H30        -6.3736  -22.0036   19.0520 H         1 9H7         0.0285
     85 H31       -20.9810  -15.5779   14.1686 H         1 9H7         0.0260
     86 H32       -19.7515  -16.4079   15.1816 H         1 9H7         0.0260
     87 H33       -21.3334  -17.1968   14.8624 H         1 9H7         0.0260
     88 H34       -20.7199  -17.9660   11.2653 H         1 9H7         0.0260
     89 H35       -21.5964  -16.5351   11.9062 H         1 9H7         0.0260
     90 H36       -21.8597  -18.1530   12.6409 H         1 9H7         0.0260
     91 H37       -18.0778  -16.1165   13.2029 H         1 9H7         0.0260
     92 H38       -19.3704  -15.3502   12.2188 H         1 9H7         0.0260
     93 H39       -18.5065  -16.7971   11.5968 H         1 9H7         0.0260
     94 H40       -12.2496  -13.3280   17.9054 H         1 9H7         0.0908
     95 H41        -9.9263  -14.6407   18.7552 H         1 9H7         0.0322
     96 H42       -11.2372  -13.7089   19.5551 H         1 9H7         0.0322
     97 H43        -8.6001  -12.9288   18.9347 H         1 9H7         0.0267
     98 H44        -9.9112  -11.9967   19.7341 H         1 9H7         0.0267
     99 H45        -8.5167  -11.4457   17.3462 H         1 9H7         0.0267
    100 H46        -9.8318  -10.5167   18.1426 H         1 9H7         0.0267
    101 H47        -9.7488  -11.6749   15.5746 H         1 9H7         0.0322
    102 H48       -11.0614  -10.7404   16.3686 H         1 9H7         0.0322
    103 H49       -12.1864  -12.2963   16.7965 H         1 9H7         0.0907
    104 H50       -15.4687  -13.1347   10.7166 H         1 9H7         0.0371
    105 H51       -16.0874  -15.7462   11.2519 H         1 9H7         0.0598
    106 H52       -12.3852  -20.5838   13.6062 H         1 9H7         0.1841
    107 H53       -10.5951  -21.4213   15.9974 H         1 9H7         0.2148
    108 H54       -18.7978  -20.7349   14.8180 H         1 9H7         0.1899
    109 H55       -11.7608  -15.8865   17.3507 H         1 9H7         0.2050
    110 H56       -12.9690  -15.0380   18.0786 H         1 9H7         0.2050
    111 H57       -12.7895  -12.1882   15.0340 H         1 9H7         0.2041
    112 H58       -11.5852  -13.0460   14.3106 H         1 9H7         0.2041
@<TRIPOS>BOND
     1    1   16 1  
     2   17    1 1  
     3    1   44 1  
     4    8    2 1  
     5   18    2 1  
     6    2   45 1  
     7    3   18 1  
     8   21    3 1  
     9    3   39 1  
    10    4    9 1  
    11   39    4 am 
    12    4   46 2  
    13    5   10 1  
    14   11    5 1  
    15    7    6 1  
    16    6   11 1  
    17   12    7 2  
    18   39    8 1  
    19    9   19 1  
    20    9   42 1  
    21   19   10 1  
    22   13   12 1  
    23   14   13 1  
    24   20   13 1  
    25   20   14 1  
    26   16   15 2  
    27   15   37 1  
    28   16   54 1  
    29   17   43 1  
    30   45   17 1  
    31   22   20 1  
    32   20   40 1  
    33   40   21 am 
    34   21   47 2  
    35   41   22 am 
    36   22   48 2  
    37   23   24 1  
    38   23   25 1  
    39   53   23 1  
    40   25   24 1  
    41   42   26 am 
    42   26   51 2  
    43   26   52 1  
    44   27   28 1  
    45   27   29 1  
    46   27   30 1  
    47   52   27 1  
    48   31   32 1  
    49   31   36 1  
    50   43   31 1  
    51   32   33 1  
    52   33   34 1  
    53   35   34 1  
    54   36   35 1  
    55   44   36 1  
    56   38   37 2  
    57   54   38 1  
    58   41   53 am 
    59   53   49 2  
    60   53   50 2  
    61    1   55 1  
    62    2   56 1  
    63    3   57 1  
    64    5   58 1  
    65    5   59 1  
    66    6   60 1  
    67    6   61 1  
    68    7   62 1  
    69    8   63 1  
    70    8   64 1  
    71    9   65 1  
    72   10   66 1  
    73   10   67 1  
    74   11   68 1  
    75   11   69 1  
    76   12   70 1  
    77   13   71 1  
    78   14   72 1  
    79   14   73 1  
    80   15   74 1  
    81   17   75 1  
    82   18   76 1  
    83   18   77 1  
    84   19   78 1  
    85   19   79 1  
    86   23   80 1  
    87   24   81 1  
    88   24   82 1  
    89   25   83 1  
    90   25   84 1  
    91   28   85 1  
    92   28   86 1  
    93   28   87 1  
    94   29   88 1  
    95   29   89 1  
    96   29   90 1  
    97   30   91 1  
    98   30   92 1  
    99   30   93 1  
   100   31   94 1  
   101   32   95 1  
   102   32   96 1  
   103   33   97 1  
   104   33   98 1  
   105   34   99 1  
   106   34  100 1  
   107   35  101 1  
   108   35  102 1  
   109   36  103 1  
   110   37  104 1  
   111   38  105 1  
   112   40  106 1  
   113   41  107 1  
   114   42  108 1  
   115   43  109 1  
   116   43  110 1  
   117   44  111 1  
   118   44  112 1  
@<TRIPOS>SUBSTRUCTURE
     1 9H7         1

