### 
### Created by X-TOOL on Mon Sep 10 21:13:33 2018
### 

@<TRIPOS>MOLECULE
5vpm_ligand
   85    88     1     0     0
SMALL
GAST_HUCK


@<TRIPOS>ATOM
      1 C10        34.1240   -9.2810  -14.9650 C.ar      1 9G7         0.1683
      2 C13        33.5730   -8.5910  -17.1520 C.ar      1 9G7        -0.0352
      3 C15        31.8100   -8.9130  -15.5120 C.ar      1 9G7        -0.0220
      4 C20        30.4530   -5.4750  -13.1810 C.3       1 9G7         0.0321
      5 C22        28.3930   -4.1810  -13.4050 C.2       1 9G7         0.3192
      6 C26        29.6800  -10.3070  -14.9040 C.3       1 9G7        -0.0192
      7 C28        30.0300  -11.4040  -15.9050 C.3       1 9G7        -0.0524
      8 C01        30.9330   -7.2550   -9.5790 C.3       1 9G7        -0.0553
      9 C02        32.2450   -8.0120   -9.6730 C.3       1 9G7        -0.0210
     10 C03        32.2920   -9.0770  -10.7660 C.ar      1 9G7        -0.0377
     11 C04        32.1400  -10.4200  -10.4530 C.ar      1 9G7        -0.0553
     12 C05        32.1900  -11.3870  -11.4440 C.ar      1 9G7        -0.0623
     13 C06        32.4010  -11.0240  -12.7680 C.ar      1 9G7        -0.0532
     14 C07        32.5350   -9.6780  -13.1230 C.ar      1 9G7        -0.0054
     15 C08        32.5020   -8.7210  -12.1040 C.ar      1 9G7        -0.0455
     16 C09        32.7960   -9.2790  -14.5460 C.ar      1 9G7         0.0383
     17 F11        35.0700   -9.6270  -14.0620 F         1 9G7        -0.1739
     18 C12        34.5320   -8.9510  -16.2280 C.ar      1 9G7        -0.0001
     19 C14        32.2320   -8.5690  -16.8020 C.ar      1 9G7        -0.0428
     20 C16        30.3000   -8.8560  -15.1700 C.3       1 9G7         0.0543
     21 O17        29.5910   -8.5890  -16.3840 O.3       1 9G7        -0.4286
     22 C18        29.9220   -7.7450  -14.1640 C.3       1 9G7        -0.0497
     23 C19        30.5840   -6.3830  -14.3850 C.3       1 9G7        -0.0386
     24 N21        29.0650   -5.1920  -12.8390 N.am      1 9G7        -0.2626
     25 O23        28.9070   -3.2530  -13.9880 O.2       1 9G7        -0.3776
     26 O24        27.0730   -4.3250  -13.2320 O.3       1 9G7        -0.2673
     27 C25        26.2530   -3.2110  -13.6760 C.3       1 9G7         0.0663
     28 C29        29.4900  -12.7600  -15.4460 C.3       1 9G7        -0.0329
     29 C30        27.9860  -12.7090  -15.2100 C.3       1 9G7         0.0338
     30 N31        27.6080  -11.5950  -14.2640 N.am      1 9G7        -0.2737
     31 C32        28.0920  -10.3230  -14.8260 C.3       1 9G7         0.0309
     32 C33        26.9210  -11.8110  -13.0990 C.2       1 9G7         0.1787
     33 O34        26.5710  -12.9350  -12.7650 O.2       1 9G7        -0.3969
     34 C35        26.5500  -10.6260  -12.2090 C.3       1 9G7         0.0406
     35 C36        26.9610  -10.7530  -10.7430 C.3       1 9G7        -0.0146
     36 C37        28.3940  -10.2780  -10.5280 C.3       1 9G7        -0.0075
     37 C38        28.7620  -10.1370   -9.0630 C.3       1 9G7        -0.0333
     38 N39        27.8240   -9.2370   -8.3700 N.4       1 9G7         0.2270
     39 C40        26.5220   -9.7900   -8.3720 C.3       1 9G7        -0.0333
     40 C41        26.0060   -9.9430   -9.8270 C.3       1 9G7        -0.0075
     41 H1         33.8704   -8.3233  -18.1594 H         1 9G7         0.0686
     42 H2         30.9624   -4.5249  -13.3995 H         1 9G7         0.0519
     43 H3         30.9357   -5.9603  -12.3199 H         1 9G7         0.0519
     44 H4         30.0709  -10.6204  -13.9248 H         1 9G7         0.0239
     45 H5         31.1239  -11.4668  -16.0015 H         1 9G7         0.0261
     46 H6         29.5895  -11.1536  -16.8813 H         1 9G7         0.0261
     47 H7         30.9945   -6.5141   -8.7683 H         1 9G7         0.0252
     48 H8         30.1163   -7.9613   -9.3690 H         1 9G7         0.0252
     49 H9         30.7373   -6.7408  -10.5315 H         1 9G7         0.0252
     50 H10        32.4257   -8.5052   -8.7065 H         1 9G7         0.0424
     51 H11        33.0466   -7.2847   -9.8691 H         1 9G7         0.0424
     52 H12        31.9805  -10.7159   -9.4224 H         1 9G7         0.0600
     53 H13        32.0638  -12.4320  -11.1848 H         1 9G7         0.0614
     54 H14        32.4623  -11.7902  -13.5323 H         1 9G7         0.0610
     55 H15        32.6427   -7.6762  -12.3564 H         1 9G7         0.0600
     56 H16        35.5821   -8.9718  -16.4961 H         1 9G7         0.0832
     57 H17        31.4948   -8.2795  -17.5422 H         1 9G7         0.0806
     58 H18        28.6564   -8.6081  -16.2144 H         1 9G7         0.1942
     59 H19        30.1988   -8.0939  -13.1582 H         1 9G7         0.0184
     60 H20        28.8326   -7.6014  -14.2154 H         1 9G7         0.0184
     61 H21        31.6524   -6.5396  -14.5947 H         1 9G7         0.0277
     62 H22        30.1084   -5.8952  -15.2486 H         1 9G7         0.0277
     63 H23        28.6024   -5.7673  -12.1645 H         1 9G7         0.1867
     64 H24        25.1934   -3.4373  -13.4864 H         1 9G7         0.0575
     65 H25        26.4063   -3.0493  -14.7532 H         1 9G7         0.0575
     66 H26        26.5383   -2.3030  -13.1246 H         1 9G7         0.0575
     67 H27        29.9897  -13.0454  -14.5086 H         1 9G7         0.0284
     68 H28        29.7054  -13.5115  -16.2199 H         1 9G7         0.0284
     69 H29        27.6596  -13.6677  -14.7806 H         1 9G7         0.0522
     70 H30        27.4791  -12.5468  -16.1727 H         1 9G7         0.0522
     71 H31        27.6801  -10.1962  -15.8380 H         1 9G7         0.0517
     72 H32        27.7541   -9.4945  -14.1861 H         1 9G7         0.0517
     73 H33        25.4575  -10.5031  -12.2456 H         1 9G7         0.0505
     74 H34        27.0340   -9.7280  -12.6204 H         1 9G7         0.0505
     75 H35        26.8996  -11.8143  -10.4603 H         1 9G7         0.0329
     76 H36        28.5149   -9.2990  -11.0148 H         1 9G7         0.0321
     77 H37        29.0769  -11.0050  -10.9918 H         1 9G7         0.0321
     78 H38        29.7794   -9.7262   -8.9851 H         1 9G7         0.0814
     79 H39        28.7291  -11.1278   -8.5863 H         1 9G7         0.0814
     80 H40        27.8078   -8.3463   -8.8416 H         1 9G7         0.2013
     81 H41        28.1290   -9.1077   -7.4180 H         1 9G7         0.2013
     82 H42        25.8447   -9.1264   -7.8144 H         1 9G7         0.0814
     83 H43        26.5464  -10.7783   -7.8896 H         1 9G7         0.0814
     84 H44        25.0332  -10.4557   -9.7988 H         1 9G7         0.0321
     85 H45        25.8790   -8.9391  -10.2582 H         1 9G7         0.0321
@<TRIPOS>BOND
     1   16    1 ar 
     2    1   17 1  
     3    1   18 ar 
     4    2   18 ar 
     5   19    2 ar 
     6    3   16 ar 
     7    3   19 ar 
     8   20    3 1  
     9   23    4 1  
    10    4   24 1  
    11   24    5 am 
    12    5   25 2  
    13    5   26 1  
    14    6    7 1  
    15   20    6 1  
    16    6   31 1  
    17    7   28 1  
    18    9    8 1  
    19   10    9 1  
    20   10   11 ar 
    21   15   10 ar 
    22   12   11 ar 
    23   13   12 ar 
    24   14   13 ar 
    25   14   15 ar 
    26   16   14 1  
    27   20   21 1  
    28   22   20 1  
    29   22   23 1  
    30   26   27 1  
    31   28   29 1  
    32   29   30 1  
    33   30   31 1  
    34   30   32 am 
    35   32   33 2  
    36   32   34 1  
    37   34   35 1  
    38   35   36 1  
    39   35   40 1  
    40   36   37 1  
    41   37   38 1  
    42   38   39 1  
    43   39   40 1  
    44    2   41 1  
    45    4   42 1  
    46    4   43 1  
    47    6   44 1  
    48    7   45 1  
    49    7   46 1  
    50    8   47 1  
    51    8   48 1  
    52    8   49 1  
    53    9   50 1  
    54    9   51 1  
    55   11   52 1  
    56   12   53 1  
    57   13   54 1  
    58   15   55 1  
    59   18   56 1  
    60   19   57 1  
    61   21   58 1  
    62   22   59 1  
    63   22   60 1  
    64   23   61 1  
    65   23   62 1  
    66   24   63 1  
    67   27   64 1  
    68   27   65 1  
    69   27   66 1  
    70   28   67 1  
    71   28   68 1  
    72   29   69 1  
    73   29   70 1  
    74   31   71 1  
    75   31   72 1  
    76   34   73 1  
    77   34   74 1  
    78   35   75 1  
    79   36   76 1  
    80   36   77 1  
    81   37   78 1  
    82   37   79 1  
    83   38   80 1  
    84   38   81 1  
    85   39   82 1  
    86   39   83 1  
    87   40   84 1  
    88   40   85 1  
@<TRIPOS>SUBSTRUCTURE
     1 9G7         1

