### 
### Created by X-TOOL on Wed Jan  1 15:39:35 2020
### 

@<TRIPOS>MOLECULE
5vqe_ligand
   22    22     1     0     0
SMALL
GAST_HUCK


@<TRIPOS>ATOM
      1 C1         42.4100   64.4770   61.6060 C.3       1 G2F         0.0818
      2 C2         43.5190   63.9820   60.6220 C.3       1 G2F         0.1523
      3 C3         44.7890   63.6480   61.4600 C.3       1 G2F         0.1166
      4 C4         45.1780   64.9060   62.2960 C.3       1 G2F         0.1120
      5 C5         43.9550   65.2920   63.1960 C.3       1 G2F         0.1100
      6 C6         44.2560   66.6080   64.0180 C.3       1 G2F         0.0729
      7 O3         45.8460   63.4340   60.5620 O.3       1 G2F        -0.3862
      8 O4         46.2160   64.5290   63.1610 O.3       1 G2F        -0.3865
      9 O5         42.8550   65.5840   62.3510 O.3       1 G2F        -0.3687
     10 O6         44.6880   67.5970   63.1270 O.3       1 G2F        -0.3924
     11 F2         43.1080   62.8630   59.9860 F         1 G2F        -0.2403
     12 H1         42.1502   63.6603   62.2956 H         1 G2F         0.0589
     13 H2         41.5197   64.7665   61.0285 H         1 G2F         0.0589
     14 H3         43.7454   64.7669   59.8854 H         1 G2F         0.0701
     15 H4         44.6206   62.7728   62.1047 H         1 G2F         0.0650
     16 H5         45.4770   65.7411   61.6455 H         1 G2F         0.0647
     17 H6         43.7143   64.4631   63.8779 H         1 G2F         0.0646
     18 H7         45.0416   66.4097   64.7620 H         1 G2F         0.0584
     19 H8         43.3421   66.9432   64.5302 H         1 G2F         0.0584
     20 H9         45.6556   62.6730   60.0261 H         1 G2F         0.2100
     21 H10        46.9796   64.2864   62.6506 H         1 G2F         0.2100
     22 H11        44.0074   67.7627   62.4853 H         1 G2F         0.2095
@<TRIPOS>BOND
     1    1    2 1  
     2    1    9 1  
     3    2    3 1  
     4    2   11 1  
     5    3    4 1  
     6    3    7 1  
     7    4    5 1  
     8    4    8 1  
     9    5    6 1  
    10    5    9 1  
    11    6   10 1  
    12    1   12 1  
    13    1   13 1  
    14    2   14 1  
    15    3   15 1  
    16    4   16 1  
    17    5   17 1  
    18    6   18 1  
    19    6   19 1  
    20    7   20 1  
    21    8   21 1  
    22   10   22 1  
@<TRIPOS>SUBSTRUCTURE
     1 G2F         1

