### 
### Created by X-TOOL on Mon Sep 10 21:13:34 2018
### 

@<TRIPOS>MOLECULE
5vqq_ligand
   60    63     1     0     0
SMALL
GAST_HUCK


@<TRIPOS>ATOM
      1 C4        847.5250  -33.3090  144.7380 C.ar      1 9JP        -0.0371
      2 N1        844.9530  -35.8750  140.1170 N.am      1 9JP        -0.1868
      3 C1        848.2800  -33.0440  142.0760 C.ar      1 9JP        -0.0405
      4 C10       844.4210  -38.2620  141.5040 C.2       1 9JP         0.1822
      5 C11       843.6550  -37.0580  141.7540 C.2       1 9JP         0.0061
      6 C12       843.9610  -35.9480  141.0590 C.2       1 9JP         0.0564
      7 C13       844.3750  -33.2420  144.8660 C.ar      1 9JP         0.1001
      8 C14       843.7030  -34.1210  145.7100 C.ar      1 9JP        -0.0191
      9 C15       842.7820  -33.6380  146.6900 C.ar      1 9JP        -0.0204
     10 C16       842.5450  -32.2320  146.7960 C.ar      1 9JP         0.0050
     11 C17       843.2410  -31.3410  145.9140 C.ar      1 9JP         0.0759
     12 C18       844.1320  -31.8710  144.9660 C.ar      1 9JP        -0.0116
     13 C19       842.0840  -34.5140  147.5740 C.ar      1 9JP        -0.0285
     14 C2        846.9570  -33.3600  142.3950 C.ar      1 9JP         0.1244
     15 C20       841.1860  -34.0480  148.5300 C.ar      1 9JP         0.0867
     16 C21       840.9620  -32.6820  148.6320 C.ar      1 9JP        -0.0388
     17 C22       841.6200  -31.7890  147.7830 C.ar      1 9JP        -0.0558
     18 C23       840.5000  -34.9950  149.4080 C.1       1 9JP         0.0957
     19 C24       843.9700  -35.6190  145.5840 C.3       1 9JP        -0.0404
     20 C25       843.8290  -29.1090  146.7440 C.2       1 9JP         0.2384
     21 C26       844.9490  -29.7300  147.5840 C.3       1 9JP         0.1854
     22 C27       841.9700  -29.3870  145.1440 C.3       1 9JP         0.0453
     23 C3        846.5630  -33.4860  143.7310 C.ar      1 9JP         0.1425
     24 C5        848.8480  -32.9950  144.4050 C.ar      1 9JP        -0.0810
     25 C6        849.2360  -32.8610  143.0730 C.ar      1 9JP        -0.0813
     26 C7        846.4360  -33.8940  140.0390 C.3       1 9JP         0.0958
     27 C8        845.2470  -34.6290  139.3980 C.3       1 9JP         0.0934
     28 C9        845.7240  -36.9880  139.8330 C.2       1 9JP         0.3306
     29 F1        845.6220  -28.7980  148.2600 F         1 9JP        -0.2250
     30 N2        845.3900  -38.1040  140.5570 N.am      1 9JP        -0.1866
     31 N3        843.0530  -29.9310  145.9670 N.am      1 9JP        -0.2208
     32 N4        839.9590  -35.7520  150.1030 N.1       1 9JP        -0.3311
     33 O1        845.2370  -33.8090  143.9530 O.3       1 9JP        -0.2702
     34 O2        846.0670  -33.5180  141.3520 O.3       1 9JP        -0.3182
     35 O3        846.6410  -37.0240  139.0100 O.2       1 9JP        -0.3815
     36 O4        844.2180  -39.3240  142.0860 O.2       1 9JP        -0.4124
     37 O5        843.6810  -27.8780  146.8050 O.2       1 9JP        -0.3810
     38 H1        847.2419  -33.4160  145.7789 H         1 9JP         0.0518
     39 H2        848.5674  -32.9395  141.0360 H         1 9JP         0.0510
     40 H3        842.8502  -37.0519  142.4876 H         1 9JP         0.0258
     41 H4        843.3818  -35.0476  141.2583 H         1 9JP         0.1177
     42 H5        844.6461  -31.1953  144.2921 H         1 9JP         0.0418
     43 H6        842.2594  -35.5810  147.4983 H         1 9JP         0.0709
     44 H7        840.2705  -32.3050  149.3768 H         1 9JP         0.0609
     45 H8        841.4204  -30.7278  147.8786 H         1 9JP         0.0615
     46 H9        844.7015  -35.7948  144.7815 H         1 9JP         0.0340
     47 H10       843.0312  -36.1400  145.3449 H         1 9JP         0.0340
     48 H11       844.3698  -36.0015  146.5347 H         1 9JP         0.0340
     49 H12       845.6444  -30.2611  146.9174 H         1 9JP         0.0866
     50 H13       844.5089  -30.4422  148.2975 H         1 9JP         0.0866
     51 H14       841.4743  -30.2060  144.6023 H         1 9JP         0.0554
     52 H15       842.3839  -28.6676  144.4221 H         1 9JP         0.0554
     53 H16       841.2385  -28.8790  145.7896 H         1 9JP         0.0554
     54 H17       849.5795  -32.8544  145.1926 H         1 9JP         0.0496
     55 H18       850.2614  -32.6192  142.8177 H         1 9JP         0.0499
     56 H19       846.6813  -32.9979  139.4501 H         1 9JP         0.0637
     57 H20       847.3105  -34.5603  140.0743 H         1 9JP         0.0637
     58 H21       844.3614  -33.9774  139.4293 H         1 9JP         0.0643
     59 H22       845.4913  -34.8657  138.3519 H         1 9JP         0.0643
     60 H23       845.9354  -38.9193  140.3626 H         1 9JP         0.2259
@<TRIPOS>BOND
     1   23    1 ar 
     2    1   24 ar 
     3    2    6 1  
     4   27    2 1  
     5    2   28 am 
     6   14    3 ar 
     7    3   25 ar 
     8    5    4 1  
     9    4   30 am 
    10    4   36 2  
    11    6    5 2  
    12    7    8 ar 
    13    7   12 ar 
    14   33    7 1  
    15    8    9 ar 
    16    8   19 1  
    17    9   10 ar 
    18    9   13 ar 
    19   11   10 ar 
    20   10   17 ar 
    21   12   11 ar 
    22   11   31 1  
    23   13   15 ar 
    24   14   23 ar 
    25   34   14 1  
    26   15   16 ar 
    27   15   18 1  
    28   17   16 ar 
    29   18   32 3  
    30   20   21 1  
    31   31   20 am 
    32   20   37 2  
    33   21   29 1  
    34   31   22 1  
    35   23   33 1  
    36   25   24 ar 
    37   26   27 1  
    38   26   34 1  
    39   28   30 am 
    40   28   35 2  
    41    1   38 1  
    42    3   39 1  
    43    5   40 1  
    44    6   41 1  
    45   12   42 1  
    46   13   43 1  
    47   16   44 1  
    48   17   45 1  
    49   19   46 1  
    50   19   47 1  
    51   19   48 1  
    52   21   49 1  
    53   21   50 1  
    54   22   51 1  
    55   22   52 1  
    56   22   53 1  
    57   24   54 1  
    58   25   55 1  
    59   26   56 1  
    60   26   57 1  
    61   27   58 1  
    62   27   59 1  
    63   30   60 1  
@<TRIPOS>SUBSTRUCTURE
     1 9JP         1

