### 
### Created by X-TOOL on Mon Sep 10 21:13:34 2018
### 

@<TRIPOS>MOLECULE
5vqr_ligand
   61    64     1     0     0
SMALL
GAST_HUCK


@<TRIPOS>ATOM
      1 N1        844.1670  -36.9820  140.1940 N.am      1 9KG        -0.1868
      2 C2        846.2800  -34.2800  142.2790 C.ar      1 9KG         0.1244
      3 N2        844.6070  -39.2160  140.6110 N.am      1 9KG        -0.1866
      4 N3        842.1540  -30.9160  145.6990 N.am      1 9KG        -0.2235
      5 C4        846.8160  -34.2860  144.6400 C.ar      1 9KG        -0.0371
      6 N4        839.3650  -36.7170  150.0280 N.1       1 9KG        -0.3311
      7 C6        848.5610  -33.9090  143.0060 C.ar      1 9KG        -0.0813
      8 C7        845.7470  -35.0920  140.0190 C.3       1 9KG         0.0958
      9 C9        844.9290  -38.0940  139.8890 C.2       1 9KG         0.3306
     10 C1        847.6230  -34.0300  141.9870 C.ar      1 9KG        -0.0405
     11 C10       843.6570  -39.3840  141.5760 C.2       1 9KG         0.1822
     12 C11       842.8990  -38.1770  141.8470 C.2       1 9KG         0.0061
     13 C12       843.1900  -37.0570  141.1560 C.2       1 9KG         0.0564
     14 C13       843.6330  -34.1660  144.7050 C.ar      1 9KG         0.1002
     15 C14       843.0130  -35.0650  145.5690 C.ar      1 9KG        -0.0190
     16 C15       842.0750  -34.6030  146.5390 C.ar      1 9KG        -0.0203
     17 C16       841.7740  -33.2040  146.6020 C.ar      1 9KG         0.0051
     18 C17       842.4300  -32.3050  145.6960 C.ar      1 9KG         0.0755
     19 C18       843.3350  -32.8080  144.7550 C.ar      1 9KG        -0.0116
     20 C19       841.4300  -35.4950  147.4430 C.ar      1 9KG        -0.0285
     21 C20       840.5180  -35.0330  148.3870 C.ar      1 9KG         0.0867
     22 C21       840.2330  -33.6750  148.4490 C.ar      1 9KG        -0.0387
     23 C22       840.8340  -32.7700  147.5800 C.ar      1 9KG        -0.0558
     24 C23       839.8740  -35.9700  149.3020 C.1       1 9KG         0.0958
     25 C24       843.3420  -36.5540  145.4900 C.3       1 9KG        -0.0403
     26 C25       842.7500  -30.0170  146.5480 C.2       1 9KG         0.2261
     27 C26       843.7350  -30.4950  147.5040 C.2       1 9KG         0.0148
     28 C27       841.1490  -30.5140  144.7050 C.3       1 9KG         0.0446
     29 C28       844.3990  -29.6550  148.3210 C.2       1 9KG        -0.0783
     30 C3        845.8600  -34.4010  143.6130 C.ar      1 9KG         0.1425
     31 C5        848.1550  -34.0370  144.3310 C.ar      1 9KG        -0.0810
     32 C8        844.4700  -35.7450  139.4650 C.3       1 9KG         0.0934
     33 O1        844.5110  -34.6590  143.7730 O.3       1 9KG        -0.2702
     34 O2        845.4230  -34.3780  141.1980 O.3       1 9KG        -0.3182
     35 O3        845.8310  -38.1340  139.0480 O.2       1 9KG        -0.3815
     36 O4        843.4750  -40.4560  142.1440 O.2       1 9KG        -0.4124
     37 O5        842.4680  -28.8120  146.5100 O.2       1 9KG        -0.3754
     38 H1        845.1480  -40.0298  140.3987 H         1 9KG         0.2259
     39 H2        846.5115  -34.3912  145.6750 H         1 9KG         0.0518
     40 H3        849.6013  -33.7163  142.7701 H         1 9KG         0.0499
     41 H4        846.1624  -34.4006  139.2711 H         1 9KG         0.0637
     42 H5        846.4889  -35.8703  140.2509 H         1 9KG         0.0637
     43 H6        847.9373  -33.9292  140.9545 H         1 9KG         0.0510
     44 H7        842.1084  -38.1760  142.5959 H         1 9KG         0.0258
     45 H8        842.6159  -36.1576  141.3737 H         1 9KG         0.1177
     46 H9        843.8105  -32.1303  144.0553 H         1 9KG         0.0419
     47 H10       841.6540  -36.5545  147.3946 H         1 9KG         0.0709
     48 H11       839.5284  -33.3132  149.1891 H         1 9KG         0.0609
     49 H12       840.5828  -31.7177  147.6483 H         1 9KG         0.0615
     50 H13       844.0783  -36.7249  144.6908 H         1 9KG         0.0341
     51 H14       842.4252  -37.1210  145.2712 H         1 9KG         0.0341
     52 H15       843.7596  -36.8888  146.4510 H         1 9KG         0.0341
     53 H16       843.9420  -31.5626  147.5613 H         1 9KG         0.0698
     54 H17       840.8153  -31.3985  144.1426 H         1 9KG         0.0554
     55 H18       841.5911  -29.7838  144.0112 H         1 9KG         0.0554
     56 H19       840.2884  -30.0589  145.2171 H         1 9KG         0.0554
     57 H20       845.1309  -30.0463  149.0260 H         1 9KG         0.0685
     58 H21       844.2039  -28.5845  148.2766 H         1 9KG         0.0685
     59 H22       848.8830  -33.9428  145.1286 H         1 9KG         0.0496
     60 H23       843.6287  -35.0449  139.5747 H         1 9KG         0.0643
     61 H24       844.6159  -35.9789  138.4001 H         1 9KG         0.0643
@<TRIPOS>BOND
     1    1    9 am 
     2    1   13 1  
     3   32    1 1  
     4    2   10 ar 
     5   30    2 ar 
     6    2   34 1  
     7    9    3 am 
     8    3   11 am 
     9   18    4 1  
    10    4   26 am 
    11    4   28 1  
    12   30    5 ar 
    13    5   31 ar 
    14   24    6 3  
    15   10    7 ar 
    16   31    7 ar 
    17    8   32 1  
    18   34    8 1  
    19    9   35 2  
    20   12   11 1  
    21   11   36 2  
    22   13   12 2  
    23   14   15 ar 
    24   14   19 ar 
    25   33   14 1  
    26   15   16 ar 
    27   15   25 1  
    28   16   17 ar 
    29   16   20 ar 
    30   18   17 ar 
    31   17   23 ar 
    32   19   18 ar 
    33   20   21 ar 
    34   21   22 ar 
    35   21   24 1  
    36   23   22 ar 
    37   26   27 1  
    38   26   37 2  
    39   27   29 2  
    40   30   33 1  
    41    3   38 1  
    42    5   39 1  
    43    7   40 1  
    44    8   41 1  
    45    8   42 1  
    46   10   43 1  
    47   12   44 1  
    48   13   45 1  
    49   19   46 1  
    50   20   47 1  
    51   22   48 1  
    52   23   49 1  
    53   25   50 1  
    54   25   51 1  
    55   25   52 1  
    56   27   53 1  
    57   28   54 1  
    58   28   55 1  
    59   28   56 1  
    60   29   57 1  
    61   29   58 1  
    62   31   59 1  
    63   32   60 1  
    64   32   61 1  
@<TRIPOS>SUBSTRUCTURE
     1 9KG         1

