### 
### Created by X-TOOL on Mon Sep 10 21:13:34 2018
### 

@<TRIPOS>MOLECULE
5vqs_ligand
   58    61     1     0     0
SMALL
GAST_HUCK


@<TRIPOS>ATOM
      1 C1        460.2940    3.2700  117.7770 C.ar      1 9KD        -0.0405
      2 C2        460.5510    2.7230  119.0580 C.ar      1 9KD         0.1244
      3 C4        462.8310    3.6080  118.9490 C.ar      1 9KD        -0.0371
      4 O5        458.4560    5.2220  124.5350 O.2       1 9KD        -0.3756
      5 C7        458.4780    1.5470  119.0800 C.3       1 9KD         0.0958
      6 C9        458.7950   -1.5020  120.0550 C.2       1 9KD         0.3306
      7 C11       459.6110   -1.0350  122.7160 C.2       1 9KD         0.0061
      8 C13       461.9680    3.1180  122.0200 C.ar      1 9KD         0.1002
      9 C14       462.6910    2.7100  123.1600 C.ar      1 9KD        -0.0190
     10 C15       462.5910    3.4350  124.3680 C.ar      1 9KD        -0.0203
     11 C16       461.7520    4.5820  124.4370 C.ar      1 9KD         0.0049
     12 C17       461.0250    4.9960  123.2890 C.ar      1 9KD         0.0729
     13 C19       463.3220    3.0250  125.5080 C.ar      1 9KD        -0.0285
     14 C21       462.4000    4.8740  126.7840 C.ar      1 9KD        -0.0387
     15 C22       461.6680    5.2940  125.6580 C.ar      1 9KD        -0.0558
     16 C23       463.9830    3.3110  127.8790 C.1       1 9KD         0.0958
     17 C24       463.5850    1.4830  123.0670 C.3       1 9KD        -0.0403
     18 C25       458.9810    6.1880  123.9850 C.2       1 9KD         0.2239
     19 C26       458.3680    7.5000  123.9120 C.2       1 9KD         0.0146
     20 C27       457.1620    7.6770  124.4780 C.2       1 9KD        -0.0783
     21 C3        461.8250    2.9050  119.6400 C.ar      1 9KD         0.1425
     22 C5        462.5680    4.1500  117.6770 C.ar      1 9KD        -0.0810
     23 C6        461.2980    3.9800  117.0930 C.ar      1 9KD        -0.0813
     24 O1        462.1000    2.3750  120.8730 O.3       1 9KD        -0.2702
     25 O2        459.6180    2.0190  119.7840 O.3       1 9KD        -0.3182
     26 C8        457.6560    0.6660  120.0280 C.3       1 9KD         0.0934
     27 N1        458.4500   -0.3110  120.7350 N.am      1 9KD        -0.1868
     28 N2        459.5540   -2.4270  120.7580 N.am      1 9KD        -0.1866
     29 C10       460.0000   -2.2820  122.0680 C.2       1 9KD         0.1822
     30 C12       458.8700   -0.1240  122.0420 C.2       1 9KD         0.0564
     31 C18       461.1350    4.2540  122.0900 C.ar      1 9KD        -0.0117
     32 C20       463.2280    3.7400  126.7130 C.ar      1 9KD         0.0867
     33 O3        458.4600   -1.7410  118.8970 O.2       1 9KD        -0.3815
     34 O4        460.6670   -3.1710  122.5890 O.2       1 9KD        -0.4124
     35 N3        460.1810    6.1420  123.3800 N.am      1 9KD        -0.2344
     36 N4        464.5820    2.9700  128.8060 N.1       1 9KD        -0.3311
     37 H1        459.3189    3.1410  117.3213 H         1 9KD         0.0510
     38 H2        463.8099    3.7319  119.3978 H         1 9KD         0.0518
     39 H3        458.7974    0.9575  118.2079 H         1 9KD         0.0637
     40 H4        457.8696    2.3994  118.7435 H         1 9KD         0.0637
     41 H5        459.9165   -0.8364  123.7422 H         1 9KD         0.0258
     42 H6        463.9605    2.1509  125.4507 H         1 9KD         0.0709
     43 H7        462.3250    5.4285  127.7124 H         1 9KD         0.0609
     44 H8        461.0340    6.1706  125.7260 H         1 9KD         0.0615
     45 H9        463.5262    1.0626  122.0522 H         1 9KD         0.0341
     46 H10       463.2509    0.7298  123.7958 H         1 9KD         0.0341
     47 H11       464.6244    1.7692  123.2857 H         1 9KD         0.0341
     48 H12       458.8735    8.3235  123.4098 H         1 9KD         0.0698
     49 H13       456.6794    8.6524  124.4375 H         1 9KD         0.0685
     50 H14       456.6674    6.8450  124.9771 H         1 9KD         0.0685
     51 H15       463.3407    4.6966  117.1485 H         1 9KD         0.0496
     52 H16       461.0932    4.3973  116.1137 H         1 9KD         0.0499
     53 H17       456.8940    0.1354  119.4383 H         1 9KD         0.0643
     54 H18       457.1621    1.3145  120.7666 H         1 9KD         0.0643
     55 H19       459.8018   -3.2707  120.2819 H         1 9KD         0.2259
     56 H20       458.5914    0.7978  122.5505 H         1 9KD         0.1177
     57 H21       460.5731    4.5617  121.2155 H         1 9KD         0.0419
     58 H22       460.5107    6.9858  122.9565 H         1 9KD         0.2271
@<TRIPOS>BOND
     1    2    1 ar 
     2    1   23 ar 
     3    2   21 ar 
     4   25    2 1  
     5   21    3 ar 
     6    3   22 ar 
     7   18    4 2  
     8    5   25 1  
     9   26    5 1  
    10   27    6 am 
    11    6   28 am 
    12    6   33 2  
    13    7   29 1  
    14   30    7 2  
    15    8    9 ar 
    16   24    8 1  
    17    8   31 ar 
    18    9   10 ar 
    19    9   17 1  
    20   10   11 ar 
    21   10   13 ar 
    22   12   11 ar 
    23   11   15 ar 
    24   31   12 ar 
    25   12   35 1  
    26   13   32 ar 
    27   15   14 ar 
    28   32   14 ar 
    29   32   16 1  
    30   16   36 3  
    31   18   19 1  
    32   35   18 am 
    33   19   20 2  
    34   21   24 1  
    35   23   22 ar 
    36   27   26 1  
    37   27   30 1  
    38   28   29 am 
    39   29   34 2  
    40    1   37 1  
    41    3   38 1  
    42    5   39 1  
    43    5   40 1  
    44    7   41 1  
    45   13   42 1  
    46   14   43 1  
    47   15   44 1  
    48   17   45 1  
    49   17   46 1  
    50   17   47 1  
    51   19   48 1  
    52   20   49 1  
    53   20   50 1  
    54   22   51 1  
    55   23   52 1  
    56   26   53 1  
    57   26   54 1  
    58   28   55 1  
    59   30   56 1  
    60   31   57 1  
    61   35   58 1  
@<TRIPOS>SUBSTRUCTURE
     1 9KD         1

