### 
### Created by X-TOOL on Mon Sep 10 21:13:34 2018
### 

@<TRIPOS>MOLECULE
5vqt_ligand
   60    63     1     0     0
SMALL
GAST_HUCK


@<TRIPOS>ATOM
      1 C26       844.9190  -29.7650  146.6900 C.3       1 9K7         0.1184
      2 C25       843.6060  -29.4210  145.9810 C.2       1 9K7         0.2219
      3 C27       841.5830  -30.1060  144.7980 C.3       1 9K7         0.0452
      4 N4        840.4780  -36.0380  150.3520 N.1       1 9K7        -0.3311
      5 C24       844.3260  -36.0440  145.7340 C.3       1 9K7        -0.0404
      6 C22       841.6770  -32.2150  147.5410 C.ar      1 9K7        -0.0558
      7 C21       841.1320  -33.0790  148.5090 C.ar      1 9K7        -0.0388
      8 N3        842.8380  -30.4290  145.4880 N.am      1 9K7        -0.2220
      9 C23       840.9280  -35.3260  149.5550 C.1       1 9K7         0.0957
     10 C20       841.4970  -34.4330  148.5510 C.ar      1 9K7         0.0867
     11 C1        848.4710  -33.3930  142.0960 C.ar      1 9K7        -0.0405
     12 C2        847.1270  -33.7640  142.3550 C.ar      1 9K7         0.1244
     13 C7        846.5220  -34.4580  140.1250 C.3       1 9K7         0.0958
     14 C6        849.3610  -33.1820  143.1670 C.ar      1 9K7        -0.0813
     15 C5        848.9110  -33.3390  144.4930 C.ar      1 9K7        -0.0810
     16 C4        847.5740  -33.7060  144.7530 C.ar      1 9K7        -0.0371
     17 C3        846.6820  -33.9080  143.6780 C.ar      1 9K7         0.1425
     18 C8        845.3260  -35.2080  139.5210 C.3       1 9K7         0.0934
     19 C9        845.8770  -37.5470  139.9160 C.2       1 9K7         0.3306
     20 C10       844.6700  -38.8720  141.6180 C.2       1 9K7         0.1822
     21 C11       843.8800  -37.6820  141.9080 C.2       1 9K7         0.0061
     22 C12       844.1090  -36.5350  141.2260 C.2       1 9K7         0.0564
     23 C13       844.4840  -33.7280  144.7300 C.ar      1 9K7         0.1001
     24 O2        846.1550  -33.9960  141.4090 O.3       1 9K7        -0.3182
     25 O1        845.3700  -34.2820  143.8390 O.3       1 9K7        -0.2702
     26 N1        845.0770  -36.4290  140.2400 N.am      1 9K7        -0.1868
     27 C14       843.9170  -34.5750  145.7000 C.ar      1 9K7        -0.0191
     28 N2        845.6300  -38.7150  140.6240 N.am      1 9K7        -0.1866
     29 C15       842.9850  -34.0580  146.6310 C.ar      1 9K7        -0.0204
     30 C19       842.4230  -34.9130  147.6100 C.ar      1 9K7        -0.0285
     31 O5        843.2860  -28.2370  145.8650 O.2       1 9K7        -0.3825
     32 C16       842.6100  -32.6830  146.5860 C.ar      1 9K7         0.0050
     33 C17       843.1800  -31.8230  145.5990 C.ar      1 9K7         0.0759
     34 C18       844.1030  -32.3700  144.6750 C.ar      1 9K7        -0.0116
     35 O4        844.5450  -39.9570  142.1730 O.2       1 9K7        -0.4124
     36 O3        846.7560  -37.5240  139.0560 O.2       1 9K7        -0.3815
     37 CL1       844.8580  -29.7790  148.4740 Cl        1 9K7        -0.1007
     38 H1        845.6721  -29.0240  146.3839 H         1 9K7         0.0676
     39 H2        845.2314  -30.7651  146.3552 H         1 9K7         0.0676
     40 H3        841.4430  -29.0150  144.7832 H         1 9K7         0.0554
     41 H4        840.7416  -30.5765  145.3278 H         1 9K7         0.0554
     42 H5        841.6241  -30.4844  143.7659 H         1 9K7         0.0554
     43 H6        845.0539  -36.2405  144.9330 H         1 9K7         0.0340
     44 H7        843.4377  -36.6755  145.5852 H         1 9K7         0.0340
     45 H8        844.7814  -36.2754  146.7082 H         1 9K7         0.0340
     46 H9        841.3769  -31.1735  147.5269 H         1 9K7         0.0615
     47 H10       840.4214  -32.6935  149.2311 H         1 9K7         0.0609
     48 H11       848.8131  -33.2719  141.0745 H         1 9K7         0.0510
     49 H12       846.7872  -33.6040  139.4845 H         1 9K7         0.0637
     50 H13       847.3837  -35.1368  140.2065 H         1 9K7         0.0637
     51 H14       850.3892  -32.8996  142.9718 H         1 9K7         0.0499
     52 H15       849.5958  -33.1769  145.3176 H         1 9K7         0.0496
     53 H16       847.2331  -33.8324  145.7742 H         1 9K7         0.0518
     54 H17       845.5426  -35.4459  138.4691 H         1 9K7         0.0643
     55 H18       844.4331  -34.5680  139.5759 H         1 9K7         0.0643
     56 H19       843.1057  -37.7154  142.6731 H         1 9K7         0.0258
     57 H20       843.5071  -35.6587  141.4623 H         1 9K7         0.1177
     58 H21       846.1906  -39.5123  140.4001 H         1 9K7         0.2259
     59 H22       842.7127  -35.9573  147.6337 H         1 9K7         0.0709
     60 H23       844.5265  -31.7315  143.9082 H         1 9K7         0.0418
@<TRIPOS>BOND
     1    2    1 1  
     2    1   37 1  
     3    8    2 am 
     4    2   31 2  
     5    8    3 1  
     6    9    4 3  
     7   27    5 1  
     8    6    7 ar 
     9   32    6 ar 
    10    7   10 ar 
    11   33    8 1  
    12   10    9 1  
    13   30   10 ar 
    14   12   11 ar 
    15   11   14 ar 
    16   17   12 ar 
    17   12   24 1  
    18   13   18 1  
    19   24   13 1  
    20   15   14 ar 
    21   16   15 ar 
    22   17   16 ar 
    23   25   17 1  
    24   18   26 1  
    25   26   19 am 
    26   19   28 am 
    27   19   36 2  
    28   21   20 1  
    29   28   20 am 
    30   20   35 2  
    31   22   21 2  
    32   26   22 1  
    33   23   25 1  
    34   27   23 ar 
    35   23   34 ar 
    36   29   27 ar 
    37   29   30 ar 
    38   32   29 ar 
    39   32   33 ar 
    40   33   34 ar 
    41    1   38 1  
    42    1   39 1  
    43    3   40 1  
    44    3   41 1  
    45    3   42 1  
    46    5   43 1  
    47    5   44 1  
    48    5   45 1  
    49    6   46 1  
    50    7   47 1  
    51   11   48 1  
    52   13   49 1  
    53   13   50 1  
    54   14   51 1  
    55   15   52 1  
    56   16   53 1  
    57   18   54 1  
    58   18   55 1  
    59   21   56 1  
    60   22   57 1  
    61   28   58 1  
    62   30   59 1  
    63   34   60 1  
@<TRIPOS>SUBSTRUCTURE
     1 9K7         1

