### 
### Created by X-TOOL on Mon Sep 10 21:13:34 2018
### 

@<TRIPOS>MOLECULE
5vqu_ligand
   60    63     1     0     0
SMALL
GAST_HUCK


@<TRIPOS>ATOM
      1 C4        847.8430  -30.9520  145.3440 C.ar      1 9JP        -0.0371
      2 N1        845.7510  -33.9500  140.6990 N.am      1 9JP        -0.1868
      3 C1        848.7570  -30.9030  142.7050 C.ar      1 9JP        -0.0405
      4 C10       845.2400  -36.3230  142.1320 C.2       1 9JP         0.1822
      5 C11       844.4410  -35.1300  142.3300 C.2       1 9JP         0.0061
      6 C12       844.7330  -34.0260  141.6160 C.2       1 9JP         0.0564
      7 C13       844.8500  -31.0350  145.5160 C.ar      1 9JP         0.1001
      8 C14       844.1840  -31.9410  146.3420 C.ar      1 9JP        -0.0191
      9 C15       843.3290  -31.4790  147.3850 C.ar      1 9JP        -0.0204
     10 C16       843.1550  -30.0700  147.5700 C.ar      1 9JP         0.0050
     11 C17       843.8500  -29.1670  146.7010 C.ar      1 9JP         0.0759
     12 C18       844.6730  -29.6660  145.6920 C.ar      1 9JP        -0.0116
     13 C19       842.6410  -32.3800  148.2470 C.ar      1 9JP        -0.0285
     14 C2        847.4230  -31.2210  142.9650 C.ar      1 9JP         0.1244
     15 C20       841.8120  -31.9130  149.2600 C.ar      1 9JP         0.0867
     16 C21       841.6460  -30.5450  149.4400 C.ar      1 9JP        -0.0388
     17 C22       842.2970  -29.6320  148.6180 C.ar      1 9JP        -0.0558
     18 C23       841.1210  -32.8560  150.1290 C.1       1 9JP         0.0957
     19 C24       844.3730  -33.4440  146.1410 C.3       1 9JP        -0.0404
     20 C25       844.5970  -27.0310  147.5610 C.2       1 9JP         0.2384
     21 C26       845.7360  -27.7420  148.3090 C.3       1 9JP         0.1854
     22 C27       842.6170  -27.1690  146.0660 C.3       1 9JP         0.0453
     23 C3        846.9630  -31.2390  144.2930 C.ar      1 9JP         0.1425
     24 C5        849.1740  -30.6370  145.0690 C.ar      1 9JP        -0.0810
     25 C6        849.6300  -30.6130  143.7530 C.ar      1 9JP        -0.0813
     26 C7        847.1400  -31.9000  140.6220 C.3       1 9JP         0.0958
     27 C8        846.0440  -32.7290  139.9400 C.3       1 9JP         0.0934
     28 C9        846.5550  -35.0490  140.4640 C.2       1 9JP         0.3306
     29 F1        846.2830  -26.9310  149.2150 F         1 9JP        -0.2250
     30 N2        846.2280  -36.1560  141.2070 N.am      1 9JP        -0.1866
     31 N3        843.7290  -27.7670  146.8110 N.am      1 9JP        -0.2208
     32 N4        840.5730  -33.6060  150.8190 N.1       1 9JP        -0.3311
     33 O1        845.6480  -31.5630  144.5250 O.3       1 9JP        -0.2702
     34 O2        846.6230  -31.4930  141.8730 O.3       1 9JP        -0.3182
     35 O3        847.4940  -35.0900  139.6670 O.2       1 9JP        -0.3815
     36 O4        845.0530  -37.3780  142.7310 O.2       1 9JP        -0.4124
     37 O5        844.5030  -25.8030  147.6660 O.2       1 9JP        -0.3810
     38 H1        847.4907  -30.9746  146.3689 H         1 9JP         0.0518
     39 H2        849.1164  -30.8813  141.6825 H         1 9JP         0.0510
     40 H3        843.6186  -35.1264  143.0439 H         1 9JP         0.0258
     41 H4        844.1231  -33.1382  141.7764 H         1 9JP         0.1177
     42 H5        845.1845  -28.9745  145.0323 H         1 9JP         0.0418
     43 H6        842.7660  -33.4481  148.1107 H         1 9JP         0.0709
     44 H7        840.9999  -30.1847  150.2324 H         1 9JP         0.0609
     45 H8        842.1489  -28.5701  148.7777 H         1 9JP         0.0615
     46 H9        845.0596  -33.6179  145.2993 H         1 9JP         0.0340
     47 H10       843.4007  -33.9100  145.9233 H         1 9JP         0.0340
     48 H11       844.7949  -33.8861  147.0556 H         1 9JP         0.0340
     49 H12       846.5067  -28.0482  147.5864 H         1 9JP         0.0866
     50 H13       845.3348  -28.6317  148.8163 H         1 9JP         0.0866
     51 H14       842.0606  -27.9592  145.5407 H         1 9JP         0.0554
     52 H15       843.0113  -26.4493  145.3335 H         1 9JP         0.0554
     53 H16       841.9446  -26.6498  146.7648 H         1 9JP         0.0554
     54 H17       849.8550  -30.4104  145.8814 H         1 9JP         0.0496
     55 H18       850.6650  -30.3685  143.5433 H         1 9JP         0.0499
     56 H19       847.3863  -31.0202  140.0094 H         1 9JP         0.0637
     57 H20       848.0432  -32.5111  140.7659 H         1 9JP         0.0637
     58 H21       845.1287  -32.1232  139.8680 H         1 9JP         0.0643
     59 H22       846.3804  -33.0065  138.9302 H         1 9JP         0.0643
     60 H23       846.7999  -36.9603  141.0458 H         1 9JP         0.2259
@<TRIPOS>BOND
     1   23    1 ar 
     2    1   24 ar 
     3    2    6 1  
     4   27    2 1  
     5    2   28 am 
     6   14    3 ar 
     7    3   25 ar 
     8    5    4 1  
     9    4   30 am 
    10    4   36 2  
    11    6    5 2  
    12    7    8 ar 
    13    7   12 ar 
    14   33    7 1  
    15    8    9 ar 
    16    8   19 1  
    17    9   10 ar 
    18    9   13 ar 
    19   11   10 ar 
    20   10   17 ar 
    21   12   11 ar 
    22   11   31 1  
    23   13   15 ar 
    24   14   23 ar 
    25   34   14 1  
    26   15   16 ar 
    27   15   18 1  
    28   17   16 ar 
    29   18   32 3  
    30   20   21 1  
    31   31   20 am 
    32   20   37 2  
    33   21   29 1  
    34   31   22 1  
    35   23   33 1  
    36   25   24 ar 
    37   26   27 1  
    38   26   34 1  
    39   28   30 am 
    40   28   35 2  
    41    1   38 1  
    42    3   39 1  
    43    5   40 1  
    44    6   41 1  
    45   12   42 1  
    46   13   43 1  
    47   16   44 1  
    48   17   45 1  
    49   19   46 1  
    50   19   47 1  
    51   19   48 1  
    52   21   49 1  
    53   21   50 1  
    54   22   51 1  
    55   22   52 1  
    56   22   53 1  
    57   24   54 1  
    58   25   55 1  
    59   26   56 1  
    60   26   57 1  
    61   27   58 1  
    62   27   59 1  
    63   30   60 1  
@<TRIPOS>SUBSTRUCTURE
     1 9JP         1

