### 
### Created by X-TOOL on Mon Sep 10 21:13:34 2018
### 

@<TRIPOS>MOLECULE
5vqv_ligand
   63    66     1     0     0
SMALL
GAST_HUCK


@<TRIPOS>ATOM
      1 N1        844.9300  -33.3550  141.2160 N.am      1 9J1        -0.1868
      2 C2        846.7470  -30.7280  143.4270 C.ar      1 9J1         0.1244
      3 N2        845.3490  -35.6380  141.7570 N.am      1 9J1        -0.1866
      4 N3        843.0000  -27.0410  147.0240 N.am      1 9J1        -0.2230
      5 C4        847.0050  -30.3970  145.8350 C.ar      1 9J1        -0.0371
      6 N4        839.8470  -32.6630  151.3400 N.1       1 9J1        -0.3311
      7 C6        848.9350  -30.1630  144.3630 C.ar      1 9J1        -0.0813
      8 C7        846.3480  -31.3500  141.1310 C.3       1 9J1         0.0958
      9 C9        845.6860  -34.5270  140.9950 C.2       1 9J1         0.3306
     10 C1        848.1270  -30.4590  143.2500 C.ar      1 9J1        -0.0405
     11 C3        846.1960  -30.6880  144.7220 C.ar      1 9J1         0.1425
     12 C5        848.3760  -30.1320  145.6540 C.ar      1 9J1        -0.0810
     13 O1        844.8600  -30.9590  144.8640 O.3       1 9J1        -0.2702
     14 O2        845.8600  -31.0270  142.4170 O.3       1 9J1        -0.3182
     15 C8        845.2740  -32.1950  140.4340 C.3       1 9J1         0.0934
     16 C10       844.3380  -35.6920  142.7100 C.2       1 9J1         0.1822
     17 C11       843.5970  -34.4510  142.8910 C.2       1 9J1         0.0061
     18 C12       843.9110  -33.3590  142.1570 C.2       1 9J1         0.0564
     19 C13       844.0800  -30.4110  145.8520 C.ar      1 9J1         0.1001
     20 C14       843.4060  -31.2710  146.7450 C.ar      1 9J1        -0.0191
     21 C15       842.5800  -30.7330  147.7640 C.ar      1 9J1        -0.0204
     22 C16       842.4240  -29.3230  147.8850 C.ar      1 9J1         0.0050
     23 C17       843.1050  -28.4640  146.9770 C.ar      1 9J1         0.0758
     24 C18       843.9180  -29.0180  145.9670 C.ar      1 9J1        -0.0116
     25 C19       841.9040  -31.5900  148.6670 C.ar      1 9J1        -0.0285
     26 C20       841.0830  -31.0660  149.6840 C.ar      1 9J1         0.0867
     27 C21       840.9310  -29.6730  149.8060 C.ar      1 9J1        -0.0388
     28 C22       841.5950  -28.8090  148.9140 C.ar      1 9J1        -0.0558
     29 O3        846.6040  -34.5970  140.1780 O.2       1 9J1        -0.3815
     30 O4        844.1300  -36.7350  143.3220 O.2       1 9J1        -0.4124
     31 C23       840.3950  -31.9550  150.6050 C.1       1 9J1         0.0957
     32 C24       843.5860  -32.7780  146.5950 C.3       1 9J1        -0.0404
     33 C25       843.8530  -26.2750  147.7520 C.2       1 9J1         0.2068
     34 O5        843.7690  -25.0460  147.7960 O.2       1 9J1        -0.3839
     35 C26       844.9630  -26.9670  148.5600 C.3       1 9J1         0.0409
     36 C27       841.9220  -26.4360  146.2360 C.3       1 9J1         0.0452
     37 C28       845.9650  -25.9720  149.1580 C.3       1 9J1        -0.0477
     38 H1        845.8799  -36.4721  141.6072 H         1 9J1         0.2259
     39 H2        846.5742  -30.3768  146.8295 H         1 9J1         0.0518
     40 H3        849.9906  -29.9583  144.2258 H         1 9J1         0.0499
     41 H4        847.2822  -31.9245  141.2163 H         1 9J1         0.0637
     42 H5        846.5342  -30.4302  140.5571 H         1 9J1         0.0637
     43 H6        848.5603  -30.4813  142.2566 H         1 9J1         0.0510
     44 H7        849.0012  -29.9040  146.5097 H         1 9J1         0.0496
     45 H8        844.3731  -31.5806  140.2893 H         1 9J1         0.0643
     46 H9        845.6554  -32.5228  139.4557 H         1 9J1         0.0643
     47 H10       842.7884  -34.4022  143.6189 H         1 9J1         0.0258
     48 H11       843.3398  -32.4447  142.3114 H         1 9J1         0.1177
     49 H12       844.4254  -28.3616  145.2693 H         1 9J1         0.0418
     50 H13       842.0203  -32.6637  148.5738 H         1 9J1         0.0709
     51 H14       840.3016  -29.2638  150.5880 H         1 9J1         0.0609
     52 H15       841.4707  -27.7369  149.0154 H         1 9J1         0.0615
     53 H16       844.2604  -32.9845  145.7509 H         1 9J1         0.0340
     54 H17       842.6090  -33.2471  146.4069 H         1 9J1         0.0340
     55 H18       844.0185  -33.1894  147.5189 H         1 9J1         0.0340
     56 H19       845.5048  -27.6563  147.8957 H         1 9J1         0.0505
     57 H20       844.4997  -27.5359  149.3796 H         1 9J1         0.0505
     58 H21       841.3522  -27.2269  145.7263 H         1 9J1         0.0554
     59 H22       842.3528  -25.7543  145.4879 H         1 9J1         0.0554
     60 H23       841.2521  -25.8730  146.9025 H         1 9J1         0.0554
     61 H24       846.7333  -26.5202  149.7229 H         1 9J1         0.0254
     62 H25       845.4377  -25.2809  149.8320 H         1 9J1         0.0254
     63 H26       846.4428  -25.4013  148.3481 H         1 9J1         0.0254
@<TRIPOS>BOND
     1    1    9 am 
     2   15    1 1  
     3    1   18 1  
     4    2   10 ar 
     5   11    2 ar 
     6    2   14 1  
     7    9    3 am 
     8    3   16 am 
     9   23    4 1  
    10    4   33 am 
    11    4   36 1  
    12   11    5 ar 
    13    5   12 ar 
    14   31    6 3  
    15   10    7 ar 
    16   12    7 ar 
    17   14    8 1  
    18    8   15 1  
    19    9   29 2  
    20   13   11 1  
    21   19   13 1  
    22   17   16 1  
    23   16   30 2  
    24   18   17 2  
    25   20   19 ar 
    26   19   24 ar 
    27   21   20 ar 
    28   20   32 1  
    29   21   22 ar 
    30   25   21 ar 
    31   22   23 ar 
    32   22   28 ar 
    33   23   24 ar 
    34   26   25 ar 
    35   26   27 ar 
    36   26   31 1  
    37   27   28 ar 
    38   33   34 2  
    39   33   35 1  
    40   35   37 1  
    41    3   38 1  
    42    5   39 1  
    43    7   40 1  
    44    8   41 1  
    45    8   42 1  
    46   10   43 1  
    47   12   44 1  
    48   15   45 1  
    49   15   46 1  
    50   17   47 1  
    51   18   48 1  
    52   24   49 1  
    53   25   50 1  
    54   27   51 1  
    55   28   52 1  
    56   32   53 1  
    57   32   54 1  
    58   32   55 1  
    59   35   56 1  
    60   35   57 1  
    61   36   58 1  
    62   36   59 1  
    63   36   60 1  
    64   37   61 1  
    65   37   62 1  
    66   37   63 1  
@<TRIPOS>SUBSTRUCTURE
     1 9J1         1

