### 
### Created by X-TOOL on Mon Sep 10 21:13:34 2018
### 

@<TRIPOS>MOLECULE
5vqw_ligand
   58    61     1     0     0
SMALL
GAST_HUCK


@<TRIPOS>ATOM
      1 C1        846.6350  -25.3680  141.0080 C.ar      1 9KD        -0.0405
      2 C2        845.6010  -26.1950  141.5230 C.ar      1 9KD         0.1244
      3 C4        846.6450  -26.1070  143.7190 C.ar      1 9KD        -0.0371
      4 O5        844.1220  -22.5030  143.8540 O.2       1 9KD        -0.3756
      5 C7        844.6880  -26.7340  139.3680 C.3       1 9KD         0.0958
      6 C9        843.8300  -29.8250  139.0480 C.2       1 9KD         0.3306
      7 C11       841.8870  -29.8530  141.0970 C.2       1 9KD         0.0061
      8 C13       843.5020  -26.7650  143.9990 C.ar      1 9KD         0.1002
      9 C14       842.6400  -27.4320  144.9150 C.ar      1 9KD        -0.0190
     10 C15       841.5800  -26.7220  145.5310 C.ar      1 9KD        -0.0203
     11 C16       841.3420  -25.3440  145.2640 C.ar      1 9KD         0.0049
     12 C17       842.1950  -24.6640  144.3450 C.ar      1 9KD         0.0729
     13 C19       840.7390  -27.4060  146.4390 C.ar      1 9KD        -0.0285
     14 C21       839.4200  -25.4210  146.8390 C.ar      1 9KD        -0.0387
     15 C22       840.2510  -24.7170  145.9300 C.ar      1 9KD        -0.0558
     16 C23       838.8520  -27.5750  148.0150 C.1       1 9KD         0.0958
     17 C24       842.8050  -28.9060  145.2680 C.3       1 9KD        -0.0403
     18 C25       842.9100  -22.3040  143.8410 C.2       1 9KD         0.2239
     19 C26       842.3370  -20.9890  143.5930 C.2       1 9KD         0.0146
     20 C27       843.0970  -19.8940  143.7890 C.2       1 9KD        -0.0783
     21 C3        845.5980  -26.5680  142.8830 C.ar      1 9KD         0.1425
     22 C5        847.6730  -25.2840  143.2030 C.ar      1 9KD        -0.0810
     23 C6        847.6710  -24.9130  141.8460 C.ar      1 9KD        -0.0813
     24 O1        844.5690  -27.3700  143.3580 O.3       1 9KD        -0.2702
     25 O2        844.5490  -26.6790  140.7800 O.3       1 9KD        -0.3182
     26 C8        843.4570  -27.4200  138.7570 C.3       1 9KD         0.0934
     27 N1        843.1430  -28.6530  139.4350 N.am      1 9KD        -0.1868
     28 N2        843.5020  -30.9930  139.7270 N.am      1 9KD        -0.1866
     29 C10       842.5600  -31.0980  140.7470 C.2       1 9KD         0.1822
     30 C12       842.2000  -28.7110  140.4430 C.2       1 9KD         0.0564
     31 C18       843.2480  -25.3990  143.7430 C.ar      1 9KD        -0.0117
     32 C20       839.6650  -26.7840  147.0950 C.ar      1 9KD         0.0867
     33 O3        844.6790  -29.8420  138.1610 O.2       1 9KD        -0.3815
     34 O4        842.3550  -32.1880  141.2750 O.2       1 9KD        -0.4124
     35 N3        841.9870  -23.2690  144.0570 N.am      1 9KD        -0.2344
     36 N4        838.2230  -28.2240  148.7400 N.1       1 9KD        -0.3311
     37 H1        846.6263  -25.0850  139.9616 H         1 9KD         0.0510
     38 H2        846.6583  -26.3882  144.7658 H         1 9KD         0.0518
     39 H3        845.5916  -27.3062  139.1108 H         1 9KD         0.0637
     40 H4        844.7744  -25.7129  138.9683 H         1 9KD         0.0637
     41 H5        841.1338  -29.8424  141.8834 H         1 9KD         0.0258
     42 H6        840.9316  -28.4543  146.6367 H         1 9KD         0.0709
     43 H7        838.6006  -24.9124  147.3340 H         1 9KD         0.0609
     44 H8        840.0491  -23.6697  145.7366 H         1 9KD         0.0615
     45 H9        843.6621  -29.3211  144.7175 H         1 9KD         0.0341
     46 H10       841.8919  -29.4537  144.9918 H         1 9KD         0.0341
     47 H11       842.9801  -29.0067  146.3493 H         1 9KD         0.0341
     48 H12       841.3069  -20.8916  143.2533 H         1 9KD         0.0698
     49 H13       842.6821  -18.9036  143.6076 H         1 9KD         0.0685
     50 H14       844.1263  -19.9993  144.1288 H         1 9KD         0.0685
     51 H15       848.4659  -24.9376  143.8560 H         1 9KD         0.0496
     52 H16       848.4591  -24.2832  141.4495 H         1 9KD         0.0499
     53 H17       843.6587  -27.6370  137.6977 H         1 9KD         0.0643
     54 H18       842.5951  -26.7410  138.8346 H         1 9KD         0.0643
     55 H19       843.9832  -31.8281  139.4604 H         1 9KD         0.2259
     56 H20       841.6843  -27.7940  140.7243 H         1 9KD         0.1177
     57 H21       843.8965  -24.8820  143.0450 H         1 9KD         0.0419
     58 H22       841.0327  -22.9739  144.0104 H         1 9KD         0.2271
@<TRIPOS>BOND
     1    2    1 ar 
     2    1   23 ar 
     3    2   21 ar 
     4   25    2 1  
     5   21    3 ar 
     6    3   22 ar 
     7   18    4 2  
     8    5   25 1  
     9   26    5 1  
    10   27    6 am 
    11    6   28 am 
    12    6   33 2  
    13    7   29 1  
    14   30    7 2  
    15    8    9 ar 
    16   24    8 1  
    17    8   31 ar 
    18    9   10 ar 
    19    9   17 1  
    20   10   11 ar 
    21   10   13 ar 
    22   12   11 ar 
    23   11   15 ar 
    24   31   12 ar 
    25   12   35 1  
    26   13   32 ar 
    27   15   14 ar 
    28   32   14 ar 
    29   32   16 1  
    30   16   36 3  
    31   18   19 1  
    32   35   18 am 
    33   19   20 2  
    34   21   24 1  
    35   23   22 ar 
    36   27   26 1  
    37   27   30 1  
    38   28   29 am 
    39   29   34 2  
    40    1   37 1  
    41    3   38 1  
    42    5   39 1  
    43    5   40 1  
    44    7   41 1  
    45   13   42 1  
    46   14   43 1  
    47   15   44 1  
    48   17   45 1  
    49   17   46 1  
    50   17   47 1  
    51   19   48 1  
    52   20   49 1  
    53   20   50 1  
    54   22   51 1  
    55   23   52 1  
    56   26   53 1  
    57   26   54 1  
    58   28   55 1  
    59   30   56 1  
    60   31   57 1  
    61   35   58 1  
@<TRIPOS>SUBSTRUCTURE
     1 9KD         1

