### 
### Created by X-TOOL on Mon Sep 10 21:13:34 2018
### 

@<TRIPOS>MOLECULE
5vqx_ligand
   60    63     1     0     0
SMALL
GAST_HUCK


@<TRIPOS>ATOM
      1 C26       -30.2290  -37.8020   40.3330 C.3       1 9HY         0.0322
      2 C25       -31.5370  -37.2010   39.8120 C.2       1 9HY         0.2040
      3 C27       -33.7640  -37.2980   38.8070 C.3       1 9HY         0.0452
      4 N4        -35.9530  -43.6170   43.3580 N.1       1 9HY        -0.3311
      5 C24       -32.2780  -43.7010   38.6100 C.3       1 9HY        -0.0404
      6 C22       -34.0280  -39.7370   41.1090 C.ar      1 9HY        -0.0558
      7 C21       -34.7320  -40.6020   41.9650 C.ar      1 9HY        -0.0388
      8 N3        -32.5450  -37.9560   39.2930 N.am      1 9HY        -0.2232
      9 C23       -35.3780  -42.8970   42.6580 C.1       1 9HY         0.0957
     10 C20       -34.6540  -41.9940   41.7780 C.ar      1 9HY         0.0867
     11 C1        -27.6360  -41.6460   35.3240 C.ar      1 9HY        -0.0405
     12 C2        -29.0240  -41.8300   35.5320 C.ar      1 9HY         0.1244
     13 C7        -29.4970  -42.4370   33.2450 C.3       1 9HY         0.0958
     14 C6        -26.8020  -41.3370   36.4160 C.ar      1 9HY        -0.0813
     15 C5        -27.3460  -41.2110   37.7090 C.ar      1 9HY        -0.0810
     16 C4        -28.7270  -41.3920   37.9170 C.ar      1 9HY        -0.0371
     17 C3        -29.5620  -41.6980   36.8230 C.ar      1 9HY         0.1425
     18 C8        -30.6030  -43.2660   32.5750 C.3       1 9HY         0.0934
     19 C9        -30.0800  -45.5950   33.1120 C.2       1 9HY         0.3306
     20 C10       -31.3710  -46.8210   34.8270 C.2       1 9HY         0.1822
     21 C11       -32.1600  -45.6120   35.0220 C.2       1 9HY         0.0061
     22 C12       -31.8930  -44.5050   34.2910 C.2       1 9HY         0.0564
     23 C13       -31.6560  -41.3340   37.9580 C.ar      1 9HY         0.1001
     24 O2        -29.9380  -42.1320   34.5530 O.3       1 9HY        -0.3182
     25 O1        -30.9150  -41.8940   36.9460 O.3       1 9HY        -0.2702
     26 N1        -30.8830  -44.4560   33.3450 N.am      1 9HY        -0.1868
     27 C14       -32.3690  -42.1930   38.8190 C.ar      1 9HY        -0.0191
     28 N2        -30.3700  -46.7210   33.8670 N.am      1 9HY        -0.1866
     29 C15       -33.1550  -41.6500   39.8640 C.ar      1 9HY        -0.0204
     30 C19       -33.8690  -42.5120   40.7330 C.ar      1 9HY        -0.0285
     31 O5        -31.6340  -35.9760   39.8810 O.2       1 9HY        -0.3842
     32 C16       -33.2320  -40.2410   40.0480 C.ar      1 9HY         0.0050
     33 C17       -32.5080  -39.3790   39.1750 C.ar      1 9HY         0.0758
     34 C18       -31.7390  -39.9380   38.1330 C.ar      1 9HY        -0.0116
     35 O4        -31.5310  -47.8750   35.4330 O.2       1 9HY        -0.4124
     36 O3        -29.1630  -45.6370   32.2950 O.2       1 9HY        -0.3815
     37 H1        -29.5759  -36.9965   40.6998 H         1 9HY         0.0472
     38 H2        -29.7235  -38.3417   39.5187 H         1 9HY         0.0472
     39 H3        -30.4477  -38.4996   41.1549 H         1 9HY         0.0472
     40 H4        -33.6756  -36.2109   38.9496 H         1 9HY         0.0554
     41 H5        -34.6319  -37.6722   39.3697 H         1 9HY         0.0554
     42 H6        -33.8979  -37.5178   37.7375 H         1 9HY         0.0554
     43 H7        -31.6222  -43.9134   37.7528 H         1 9HY         0.0340
     44 H8        -33.2819  -44.1051   38.4126 H         1 9HY         0.0340
     45 H9        -31.8642  -44.1721   39.5138 H         1 9HY         0.0340
     46 H10       -34.0945  -38.6659   41.2623 H         1 9HY         0.0615
     47 H11       -35.3350  -40.1962   42.7692 H         1 9HY         0.0609
     48 H12       -27.2170  -41.7425   34.3289 H         1 9HY         0.0510
     49 H13       -29.3259  -41.5094   32.6791 H         1 9HY         0.0637
     50 H14       -28.5639  -43.0179   33.2877 H         1 9HY         0.0637
     51 H15       -25.7385  -41.1958   36.2609 H         1 9HY         0.0499
     52 H16       -26.6998  -40.9740   38.5465 H         1 9HY         0.0496
     53 H17       -29.1455  -41.2966   38.9124 H         1 9HY         0.0518
     54 H18       -30.2758  -43.5570   31.5659 H         1 9HY         0.0643
     55 H19       -31.5171  -42.6584   32.5032 H         1 9HY         0.0643
     56 H20       -32.9645  -45.5991   35.7559 H         1 9HY         0.0258
     57 H21       -32.4984  -43.6145   34.4537 H         1 9HY         0.1177
     58 H22       -29.8095  -47.5335   33.7070 H         1 9HY         0.2259
     59 H23       -33.8091  -43.5849   40.5902 H         1 9HY         0.0709
     60 H24       -31.2030  -39.2831   37.4556 H         1 9HY         0.0418
@<TRIPOS>BOND
     1    2    1 1  
     2    8    2 am 
     3    2   31 2  
     4    8    3 1  
     5    9    4 3  
     6   27    5 1  
     7    6    7 ar 
     8   32    6 ar 
     9    7   10 ar 
    10   33    8 1  
    11   10    9 1  
    12   30   10 ar 
    13   12   11 ar 
    14   11   14 ar 
    15   17   12 ar 
    16   12   24 1  
    17   13   18 1  
    18   24   13 1  
    19   15   14 ar 
    20   16   15 ar 
    21   17   16 ar 
    22   25   17 1  
    23   18   26 1  
    24   26   19 am 
    25   19   28 am 
    26   19   36 2  
    27   21   20 1  
    28   28   20 am 
    29   20   35 2  
    30   22   21 2  
    31   26   22 1  
    32   23   25 1  
    33   27   23 ar 
    34   23   34 ar 
    35   29   27 ar 
    36   29   30 ar 
    37   32   29 ar 
    38   32   33 ar 
    39   33   34 ar 
    40    1   37 1  
    41    1   38 1  
    42    1   39 1  
    43    3   40 1  
    44    3   41 1  
    45    3   42 1  
    46    5   43 1  
    47    5   44 1  
    48    5   45 1  
    49    6   46 1  
    50    7   47 1  
    51   11   48 1  
    52   13   49 1  
    53   13   50 1  
    54   14   51 1  
    55   15   52 1  
    56   16   53 1  
    57   18   54 1  
    58   18   55 1  
    59   21   56 1  
    60   22   57 1  
    61   28   58 1  
    62   30   59 1  
    63   34   60 1  
@<TRIPOS>SUBSTRUCTURE
     1 9HY         1

