### 
### Created by X-TOOL on Mon Sep 10 21:13:34 2018
### 

@<TRIPOS>MOLECULE
5vqy_ligand
   63    66     1     0     0
SMALL
GAST_HUCK


@<TRIPOS>ATOM
      1 N1         50.3480  -46.2130   33.4470 N.am      1 9J1        -0.1868
      2 C2         52.0730  -43.5570   35.6980 C.ar      1 9J1         0.1244
      3 N2         50.8640  -48.4810   33.9510 N.am      1 9J1        -0.1866
      4 N3         48.2220  -39.7150   39.3870 N.am      1 9J1        -0.2230
      5 C4         52.2280  -42.9570   38.0620 C.ar      1 9J1        -0.0371
      6 N4         45.2490  -45.5930   43.4780 N.1       1 9J1        -0.3311
      7 C6         54.2430  -43.0310   36.6870 C.ar      1 9J1        -0.0813
      8 C7         51.7180  -44.1850   33.3950 C.3       1 9J1         0.0958
      9 C9         51.1570  -47.3440   33.2140 C.2       1 9J1         0.3306
     10 C1         53.4750  -43.4050   35.5690 C.ar      1 9J1        -0.0405
     11 C3         51.4590  -43.3290   36.9440 C.ar      1 9J1         0.1425
     12 C5         53.6220  -42.8070   37.9300 C.ar      1 9J1        -0.0810
     13 O1         50.0990  -43.4930   37.0220 O.3       1 9J1        -0.2702
     14 O2         51.2140  -43.9180   34.6860 O.3       1 9J1        -0.3182
     15 C8         50.6570  -45.0300   32.6830 C.3       1 9J1         0.0934
     16 C10        49.8490  -48.5990   34.8940 C.2       1 9J1         0.1822
     17 C11        49.0510  -47.3960   35.0910 C.2       1 9J1         0.0061
     18 C12        49.3220  -46.2780   34.3790 C.2       1 9J1         0.0564
     19 C13        49.3310  -43.0100   38.0500 C.ar      1 9J1         0.1001
     20 C14        48.6860  -43.9210   38.9120 C.ar      1 9J1        -0.0191
     21 C15        47.8710  -43.4400   39.9670 C.ar      1 9J1        -0.0204
     22 C16        47.6950  -42.0390   40.1550 C.ar      1 9J1         0.0050
     23 C17        48.3450  -41.1310   39.2760 C.ar      1 9J1         0.0758
     24 C18        49.1470  -41.6280   38.2290 C.ar      1 9J1        -0.0116
     25 C19        47.2250  -44.3450   40.8400 C.ar      1 9J1        -0.0285
     26 C20        46.4160  -43.8810   41.8920 C.ar      1 9J1         0.0867
     27 C21        46.2430  -42.4980   42.0830 C.ar      1 9J1        -0.0388
     28 C22        46.8760  -41.5840   41.2200 C.ar      1 9J1        -0.0558
     29 O3         52.0830  -47.3540   32.4060 O.2       1 9J1        -0.3815
     30 O4         49.6870  -49.6620   35.4810 O.2       1 9J1        -0.4124
     31 C23        45.7650  -44.8310   42.7760 C.1       1 9J1         0.0957
     32 C24        48.8840  -45.4190   38.6930 C.3       1 9J1        -0.0404
     33 C25        49.1050  -38.9790   40.1090 C.2       1 9J1         0.2068
     34 O5         49.0220  -37.7550   40.2190 O.2       1 9J1        -0.3839
     35 C26        50.2520  -39.7090   40.8250 C.3       1 9J1         0.0409
     36 C27        47.1010  -39.0920   38.6760 C.3       1 9J1         0.0452
     37 C28        51.2830  -38.7440   41.4210 C.3       1 9J1        -0.0477
     38 H1         51.4329  -49.2876   33.7902 H         1 9J1         0.2259
     39 H2         51.7500  -42.7868   39.0199 H         1 9J1         0.0518
     40 H3         55.3165  -42.9150   36.5907 H         1 9J1         0.0499
     41 H4         52.6644  -44.7414   33.4636 H         1 9J1         0.0637
     42 H5         51.8843  -43.2444   32.8494 H         1 9J1         0.0637
     43 H6         53.9549  -43.5762   34.6122 H         1 9J1         0.0510
     44 H7         54.2183  -42.5183   38.7880 H         1 9J1         0.0496
     45 H8         49.7425  -44.4314   32.5593 H         1 9J1         0.0643
     46 H9         51.0368  -45.3279   31.6946 H         1 9J1         0.0643
     47 H10        48.2352  -47.3968   35.8124 H         1 9J1         0.0258
     48 H11        48.7098  -45.3927   34.5441 H         1 9J1         0.1177
     49 H12        49.6296  -40.9334   37.5510 H         1 9J1         0.0418
     50 H13        47.3552  -45.4115   40.6963 H         1 9J1         0.0709
     51 H14        45.6222  -42.1364   42.8947 H         1 9J1         0.0609
     52 H15        46.7360  -40.5197   41.3710 H         1 9J1         0.0615
     53 H16        49.5463  -45.5789   37.8294 H         1 9J1         0.0340
     54 H17        47.9103  -45.8934   38.5011 H         1 9J1         0.0340
     55 H18        49.3381  -45.8640   39.5906 H         1 9J1         0.0340
     56 H19        50.7594  -40.3637   40.1011 H         1 9J1         0.0505
     57 H20        49.8292  -40.3186   41.6372 H         1 9J1         0.0505
     58 H21        46.5170  -39.8685   38.1602 H         1 9J1         0.0554
     59 H22        47.4883  -38.3739   37.9382 H         1 9J1         0.0554
     60 H23        46.4567  -38.5664   39.3961 H         1 9J1         0.0554
     61 H24        52.0778  -39.3185   41.9192 H         1 9J1         0.0254
     62 H25        50.7905  -38.0880   42.1538 H         1 9J1         0.0254
     63 H26        51.7207  -38.1331   40.6178 H         1 9J1         0.0254
@<TRIPOS>BOND
     1    1    9 am 
     2   15    1 1  
     3    1   18 1  
     4    2   10 ar 
     5   11    2 ar 
     6    2   14 1  
     7    9    3 am 
     8    3   16 am 
     9   23    4 1  
    10    4   33 am 
    11    4   36 1  
    12   11    5 ar 
    13    5   12 ar 
    14   31    6 3  
    15   10    7 ar 
    16   12    7 ar 
    17   14    8 1  
    18    8   15 1  
    19    9   29 2  
    20   13   11 1  
    21   19   13 1  
    22   17   16 1  
    23   16   30 2  
    24   18   17 2  
    25   20   19 ar 
    26   19   24 ar 
    27   21   20 ar 
    28   20   32 1  
    29   21   22 ar 
    30   25   21 ar 
    31   22   23 ar 
    32   22   28 ar 
    33   23   24 ar 
    34   26   25 ar 
    35   26   27 ar 
    36   26   31 1  
    37   27   28 ar 
    38   33   34 2  
    39   33   35 1  
    40   35   37 1  
    41    3   38 1  
    42    5   39 1  
    43    7   40 1  
    44    8   41 1  
    45    8   42 1  
    46   10   43 1  
    47   12   44 1  
    48   15   45 1  
    49   15   46 1  
    50   17   47 1  
    51   18   48 1  
    52   24   49 1  
    53   25   50 1  
    54   27   51 1  
    55   28   52 1  
    56   32   53 1  
    57   32   54 1  
    58   32   55 1  
    59   35   56 1  
    60   35   57 1  
    61   36   58 1  
    62   36   59 1  
    63   36   60 1  
    64   37   61 1  
    65   37   62 1  
    66   37   63 1  
@<TRIPOS>SUBSTRUCTURE
     1 9J1         1

