### 
### Created by X-TOOL on Mon Sep 10 21:13:34 2018
### 

@<TRIPOS>MOLECULE
5vqz_ligand
   60    63     1     0     0
SMALL
GAST_HUCK


@<TRIPOS>ATOM
      1 C26       -30.5170  -38.2700   40.3890 C.3       1 9HY         0.0322
      2 C25       -31.8270  -37.6820   39.8560 C.2       1 9HY         0.2040
      3 C27       -34.0390  -37.8410   38.8140 C.3       1 9HY         0.0452
      4 N4        -35.9700  -44.2330   43.4190 N.1       1 9HY        -0.3311
      5 C24       -32.3350  -44.1890   38.6330 C.3       1 9HY        -0.0404
      6 C22       -34.2070  -40.2890   41.1470 C.ar      1 9HY        -0.0558
      7 C21       -34.8690  -41.1810   42.0100 C.ar      1 9HY        -0.0388
      8 N3        -32.8080  -38.4600   39.3180 N.am      1 9HY        -0.2232
      9 C23       -35.4270  -43.4940   42.7120 C.1       1 9HY         0.0957
     10 C20       -34.7440  -42.5680   41.8240 C.ar      1 9HY         0.0867
     11 C1        -27.7400  -42.1800   35.3960 C.ar      1 9HY        -0.0405
     12 C2        -29.1310  -42.3550   35.5840 C.ar      1 9HY         0.1244
     13 C7        -29.5630  -42.9570   33.2870 C.3       1 9HY         0.0958
     14 C6        -26.9330  -41.7960   36.4820 C.ar      1 9HY        -0.0813
     15 C5        -27.5070  -41.5840   37.7490 C.ar      1 9HY        -0.0810
     16 C4        -28.8910  -41.7570   37.9390 C.ar      1 9HY        -0.0371
     17 C3        -29.6990  -42.1410   36.8500 C.ar      1 9HY         0.1425
     18 C8        -30.6280  -43.8170   32.5910 C.3       1 9HY         0.0934
     19 C9        -30.0460  -46.1360   33.1200 C.2       1 9HY         0.3306
     20 C10       -31.3290  -47.4110   34.8050 C.2       1 9HY         0.1822
     21 C11       -32.1570  -46.2280   34.9950 C.2       1 9HY         0.0061
     22 C12       -31.9080  -45.1080   34.2780 C.2       1 9HY         0.0564
     23 C13       -31.8050  -41.8020   37.9760 C.ar      1 9HY         0.1001
     24 O2        -30.0180  -42.7250   34.6050 O.3       1 9HY        -0.3182
     25 O1        -31.0540  -42.3320   36.9550 O.3       1 9HY        -0.2702
     26 N1        -30.8840  -45.0210   33.3480 N.am      1 9HY        -0.1868
     27 C14       -32.4800  -42.6860   38.8440 C.ar      1 9HY        -0.0191
     28 N2        -30.3150  -47.2760   33.8640 N.am      1 9HY        -0.1866
     29 C15       -33.2760  -42.1730   39.8970 C.ar      1 9HY        -0.0204
     30 C19       -33.9510  -43.0580   40.7710 C.ar      1 9HY        -0.0285
     31 O5        -31.9520  -36.4600   39.9310 O.2       1 9HY        -0.3842
     32 C16       -33.4040  -40.7660   40.0800 C.ar      1 9HY         0.0050
     33 C17       -32.7210  -39.8800   39.1990 C.ar      1 9HY         0.0758
     34 C18       -31.9400  -40.4110   38.1510 C.ar      1 9HY        -0.0116
     35 O4        -31.4720  -48.4730   35.4020 O.2       1 9HY        -0.4124
     36 O3        -29.1150  -46.1430   32.3160 O.2       1 9HY        -0.3815
     37 H1        -29.8806  -37.4591   40.7729 H         1 9HY         0.0472
     38 H2        -29.9928  -38.7940   39.5762 H         1 9HY         0.0472
     39 H3        -30.7368  -38.9791   41.2007 H         1 9HY         0.0472
     40 H4        -33.9881  -36.7519   38.9601 H         1 9HY         0.0554
     41 H5        -34.9033  -38.2444   39.3620 H         1 9HY         0.0554
     42 H6        -34.1485  -38.0624   37.7421 H         1 9HY         0.0554
     43 H7        -31.6798  -44.3765   37.7695 H         1 9HY         0.0340
     44 H8        -33.3249  -44.6300   38.4447 H         1 9HY         0.0340
     45 H9        -31.8955  -44.6449   39.5325 H         1 9HY         0.0340
     46 H10       -34.3123  -39.2210   41.2999 H         1 9HY         0.0615
     47 H11       -35.4774  -40.7971   42.8209 H         1 9HY         0.0609
     48 H12       -27.2980  -42.3411   34.4194 H         1 9HY         0.0510
     49 H13       -29.4418  -42.0017   32.7553 H         1 9HY         0.0637
     50 H14       -28.6009  -43.4899   33.3075 H         1 9HY         0.0637
     51 H15       -25.8663  -41.6631   36.3426 H         1 9HY         0.0499
     52 H16       -26.8808  -41.2862   38.5823 H         1 9HY         0.0496
     53 H17       -29.3322  -41.5960   38.9160 H         1 9HY         0.0518
     54 H18       -30.2722  -44.0903   31.5867 H         1 9HY         0.0643
     55 H19       -31.5599  -43.2390   32.5052 H         1 9HY         0.0643
     56 H20       -32.9754  -46.2449   35.7132 H         1 9HY         0.0258
     57 H21       -32.5403  -44.2360   34.4387 H         1 9HY         0.1177
     58 H22       -29.7276  -48.0704   33.7095 H         1 9HY         0.2259
     59 H23       -33.8555  -44.1281   40.6269 H         1 9HY         0.0709
     60 H24       -31.4351  -39.7368   37.4687 H         1 9HY         0.0418
@<TRIPOS>BOND
     1    2    1 1  
     2    8    2 am 
     3    2   31 2  
     4    8    3 1  
     5    9    4 3  
     6   27    5 1  
     7    6    7 ar 
     8   32    6 ar 
     9    7   10 ar 
    10   33    8 1  
    11   10    9 1  
    12   30   10 ar 
    13   12   11 ar 
    14   11   14 ar 
    15   17   12 ar 
    16   12   24 1  
    17   13   18 1  
    18   24   13 1  
    19   15   14 ar 
    20   16   15 ar 
    21   17   16 ar 
    22   25   17 1  
    23   18   26 1  
    24   26   19 am 
    25   19   28 am 
    26   19   36 2  
    27   21   20 1  
    28   28   20 am 
    29   20   35 2  
    30   22   21 2  
    31   26   22 1  
    32   23   25 1  
    33   27   23 ar 
    34   23   34 ar 
    35   29   27 ar 
    36   29   30 ar 
    37   32   29 ar 
    38   32   33 ar 
    39   33   34 ar 
    40    1   37 1  
    41    1   38 1  
    42    1   39 1  
    43    3   40 1  
    44    3   41 1  
    45    3   42 1  
    46    5   43 1  
    47    5   44 1  
    48    5   45 1  
    49    6   46 1  
    50    7   47 1  
    51   11   48 1  
    52   13   49 1  
    53   13   50 1  
    54   14   51 1  
    55   15   52 1  
    56   16   53 1  
    57   18   54 1  
    58   18   55 1  
    59   21   56 1  
    60   22   57 1  
    61   28   58 1  
    62   30   59 1  
    63   34   60 1  
@<TRIPOS>SUBSTRUCTURE
     1 9HY         1

