### 
### Created by X-TOOL on Mon Sep 10 21:13:34 2018
### 

@<TRIPOS>MOLECULE
5vrp_ligand
   79    81     1     0     0
SMALL
GAST_HUCK


@<TRIPOS>ATOM
      1 C10        21.7280   40.8500   14.5480 C.ar      1 9JD         0.1683
      2 C12        21.4750   41.1250   15.8640 C.ar      1 9JD        -0.0001
      3 C13        22.5410   41.4720   16.6720 C.ar      1 9JD        -0.0352
      4 C14        23.8250   41.5370   16.1550 C.ar      1 9JD        -0.0428
      5 C15        24.0780   41.2470   14.8170 C.ar      1 9JD        -0.0220
      6 C16        25.5220   41.3430   14.2720 C.3       1 9JD         0.0543
      7 C18        25.8130   42.6600   13.5180 C.3       1 9JD        -0.0497
      8 C19        24.8440   43.8210   13.7780 C.3       1 9JD        -0.0386
      9 N21        26.3900   45.2710   12.5250 N.am      1 9JD        -0.2626
     10 O23        26.2550   47.3560   13.3880 O.2       1 9JD        -0.3776
     11 O24        28.2430   46.4010   12.9140 O.3       1 9JD        -0.2673
     12 C01        23.1220   43.0540    8.7520 C.3       1 9JD        -0.0553
     13 C02        24.2470   42.2990    9.3570 C.3       1 9JD        -0.0210
     14 C03        23.7830   41.2600   10.2830 C.ar      1 9JD        -0.0377
     15 C04        23.5060   39.9800    9.8330 C.ar      1 9JD        -0.0553
     16 C05        23.0690   39.0040   10.7090 C.ar      1 9JD        -0.0623
     17 C06        22.9000   39.2960   12.0500 C.ar      1 9JD        -0.0532
     18 C07        23.1590   40.5760   12.5300 C.ar      1 9JD        -0.0054
     19 C08        23.6000   41.5440   11.6310 C.ar      1 9JD        -0.0455
     20 C09        22.9910   40.9010   13.9790 C.ar      1 9JD         0.0383
     21 F11        20.6910   40.5100   13.7490 F         1 9JD        -0.1739
     22 O17        26.4240   41.2750   15.3800 O.3       1 9JD        -0.4286
     23 C20        24.9990   44.9190   12.7490 C.3       1 9JD         0.0321
     24 C22        26.9070   46.4200   12.9770 C.2       1 9JD         0.3192
     25 C25        28.9060   47.6150   13.3410 C.3       1 9JD         0.0663
     26 C26        26.0180   39.9820   13.5720 C.3       1 9JD        -0.0192
     27 C28        25.9990   38.7390   14.4670 C.3       1 9JD        -0.0524
     28 C29        26.5350   37.5040   13.7420 C.3       1 9JD        -0.0329
     29 C30        27.8700   37.7970   13.0830 C.3       1 9JD         0.0338
     30 N31        27.7950   39.0230   12.2810 N.am      1 9JD        -0.2736
     31 C32        27.3720   40.1580   13.0990 C.3       1 9JD         0.0309
     32 C33        28.0740   39.0630   10.9580 C.2       1 9JD         0.1811
     33 O34        28.4180   38.0610   10.3510 O.2       1 9JD        -0.3968
     34 C35        27.9510   40.3880   10.2280 C.3       1 9JD         0.0684
     35 C36        28.7590   40.4010    8.9410 C.3       1 9JD         0.1113
     36 O38        30.1250   40.6590    9.2650 O.3       1 9JD        -0.3842
     37 C39        28.3340   41.5920    8.0400 C.3       1 9JD        -0.0066
     38 N40        27.6010   41.2140    6.8340 N.4       1 9JD         0.2205
     39 H1         20.4678   41.0723   16.2613 H         1 9JD         0.0832
     40 H2         22.3713   41.6952   17.7191 H         1 9JD         0.0686
     41 H3         24.6467   41.8185   16.8036 H         1 9JD         0.0806
     42 H4         25.7918   42.4408   12.4403 H         1 9JD         0.0184
     43 H5         26.8210   42.9944   13.8044 H         1 9JD         0.0184
     44 H6         25.0452   44.2368   14.7763 H         1 9JD         0.0277
     45 H7         23.8127   43.4401   13.7405 H         1 9JD         0.0277
     46 H8         26.9770   44.6384   12.0198 H         1 9JD         0.1867
     47 H9         23.5193   43.8185    8.0681 H         1 9JD         0.0252
     48 H10        22.5378   43.5410    9.5467 H         1 9JD         0.0252
     49 H11        22.4750   42.3623    8.1927 H         1 9JD         0.0252
     50 H12        24.8902   43.0018    9.9068 H         1 9JD         0.0424
     51 H13        24.8273   41.8231    8.5528 H         1 9JD         0.0424
     52 H14        23.6331   39.7410    8.7833 H         1 9JD         0.0600
     53 H15        22.8579   38.0057   10.3432 H         1 9JD         0.0614
     54 H16        22.5637   38.5230   12.7314 H         1 9JD         0.0610
     55 H17        23.8059   42.5451   11.9922 H         1 9JD         0.0600
     56 H18        26.2820   42.0226   15.9488 H         1 9JD         0.1942
     57 H19        24.4602   45.8115   13.0999 H         1 9JD         0.0519
     58 H20        24.5630   44.5775   11.7986 H         1 9JD         0.0519
     59 H21        29.9950   47.4900   13.2486 H         1 9JD         0.0575
     60 H22        28.6486   47.8239   14.3898 H         1 9JD         0.0575
     61 H23        28.5783   48.4535   12.7090 H         1 9JD         0.0575
     62 H24        25.3579   39.7902   12.7132 H         1 9JD         0.0239
     63 H25        24.9634   38.5442   14.7826 H         1 9JD         0.0261
     64 H26        26.6226   38.9295   15.3529 H         1 9JD         0.0261
     65 H27        25.8128   37.1978   12.9709 H         1 9JD         0.0284
     66 H28        26.6639   36.6881   14.4684 H         1 9JD         0.0284
     67 H29        28.1429   36.9548   12.4302 H         1 9JD         0.0522
     68 H30        28.6373   37.9212   13.8614 H         1 9JD         0.0522
     69 H31        28.0458   40.2485   13.9637 H         1 9JD         0.0517
     70 H32        27.4252   41.0758   12.4950 H         1 9JD         0.0517
     71 H33        28.3152   41.1916   10.8850 H         1 9JD         0.0530
     72 H34        26.8926   40.5639    9.9855 H         1 9JD         0.0530
     73 H35        28.6453   39.4444    8.4099 H         1 9JD         0.0672
     74 H36        30.6418   40.6698    8.4679 H         1 9JD         0.2102
     75 H37        29.2425   42.1313    7.7338 H         1 9JD         0.0840
     76 H38        27.6938   42.2602    8.6347 H         1 9JD         0.0840
     77 H39        27.3654   42.0425    6.3105 H         1 9JD         0.1995
     78 H40        26.7563   40.7284    7.0925 H         1 9JD         0.1995
     79 H41        28.1755   40.6103    6.2669 H         1 9JD         0.1995
@<TRIPOS>BOND
     1    1    2 ar 
     2   20    1 ar 
     3    1   21 1  
     4    2    3 ar 
     5    4    3 ar 
     6    5    4 ar 
     7    5    6 1  
     8   20    5 ar 
     9    6    7 1  
    10    6   22 1  
    11    6   26 1  
    12    7    8 1  
    13    8   23 1  
    14   23    9 1  
    15    9   24 am 
    16   24   10 2  
    17   24   11 1  
    18   11   25 1  
    19   13   12 1  
    20   14   13 1  
    21   14   15 ar 
    22   19   14 ar 
    23   16   15 ar 
    24   17   16 ar 
    25   18   17 ar 
    26   18   19 ar 
    27   18   20 1  
    28   26   27 1  
    29   26   31 1  
    30   27   28 1  
    31   28   29 1  
    32   29   30 1  
    33   30   31 1  
    34   30   32 am 
    35   32   33 2  
    36   32   34 1  
    37   34   35 1  
    38   35   36 1  
    39   35   37 1  
    40   37   38 1  
    41    2   39 1  
    42    3   40 1  
    43    4   41 1  
    44    7   42 1  
    45    7   43 1  
    46    8   44 1  
    47    8   45 1  
    48    9   46 1  
    49   12   47 1  
    50   12   48 1  
    51   12   49 1  
    52   13   50 1  
    53   13   51 1  
    54   15   52 1  
    55   16   53 1  
    56   17   54 1  
    57   19   55 1  
    58   22   56 1  
    59   23   57 1  
    60   23   58 1  
    61   25   59 1  
    62   25   60 1  
    63   25   61 1  
    64   26   62 1  
    65   27   63 1  
    66   27   64 1  
    67   28   65 1  
    68   28   66 1  
    69   29   67 1  
    70   29   68 1  
    71   31   69 1  
    72   31   70 1  
    73   34   71 1  
    74   34   72 1  
    75   35   73 1  
    76   36   74 1  
    77   37   75 1  
    78   37   76 1  
    79   38   77 1  
    80   38   78 1  
    81   38   79 1  
@<TRIPOS>SUBSTRUCTURE
     1 9JD         1

