### 
### Created by X-TOOL on Mon Sep 10 21:13:32 2018
### 

@<TRIPOS>MOLECULE
5vs6_ligand
   86    90     1     0     0
SMALL
GAST_HUCK


@<TRIPOS>ATOM
      1 N1         86.3230  -53.9590  148.6460 N.am      1 9QD        -0.2729
      2 N3         96.4520  -52.9720  151.4630 N.am      1 9QD        -0.2325
      3 C4         85.8770  -54.0850  150.0320 C.3       1 9QD         0.0366
      4 C5         85.4560  -54.1440  147.6380 C.2       1 9QD         0.1807
      5 C6         85.9640  -54.2700  146.2080 C.3       1 9QD         0.0496
      6 C7         85.5740  -55.6440  145.6370 C.3       1 9QD         0.0066
      7 C8         85.9210  -55.8310  144.1590 C.3       1 9QD        -0.0504
      8 C10        85.5820  -57.4350  147.3400 C.ar      1 9QD        -0.0599
      9 C13        88.3230  -57.8350  146.9790 C.ar      1 9QD        -0.0685
     10 C15        87.7110  -53.5570  148.4410 C.3       1 9QD         0.0366
     11 C17        90.7340  -54.2300  152.5510 C.2       1 9QD         0.1289
     12 C20        95.2430  -53.5450  151.2570 C.ar      1 9QD         0.0643
     13 C21        96.6520  -52.0200  152.3720 C.2       1 9QD         0.2101
     14 C22        97.9400  -52.0900  153.1530 C.3       1 9QD         0.0835
     15 C24       101.0960  -52.6530  152.6140 C.3       1 9QD         0.0096
     16 C26       104.3940  -51.6860  154.1190 C.3       1 9QD        -0.0427
     17 C28       101.0860  -50.2800  153.0600 C.3       1 9QD         0.0096
     18 N          90.4630  -55.0520  151.5170 N.am      1 9QD        -0.1834
     19 C          91.4490  -55.3840  150.5620 C.2       1 9QD         0.2308
     20 O          91.2190  -56.1560  149.6000 O.2       1 9QD        -0.3909
     21 C1         89.1240  -55.6090  151.4090 C.3       1 9QD         0.0998
     22 C11        86.2600  -58.4130  148.0790 C.ar      1 9QD        -0.0685
     23 C12        87.6250  -58.6170  147.8990 C.ar      1 9QD        -0.0687
     24 C14        87.6490  -56.8660  146.2280 C.ar      1 9QD        -0.0599
     25 C16        88.6100  -54.4940  149.2430 C.3       1 9QD        -0.0007
     26 C18        92.9680  -53.8840  151.9170 C.ar      1 9QD         0.0099
     27 C19        94.1980  -53.2920  152.1370 C.ar      1 9QD        -0.0310
     28 C2         88.2170  -54.6140  150.7090 C.3       1 9QD         0.0986
     29 C23        99.0500  -51.3820  152.3840 C.3       1 9QD        -0.0139
     30 C25       102.3790  -52.8130  153.4210 C.3       1 9QD         0.0092
     31 C27       102.3440  -50.4540  153.9010 C.3       1 9QD         0.0092
     32 C29        95.0720  -54.3950  150.1600 C.ar      1 9QD        -0.0412
     33 C3         86.7740  -55.0840  150.7600 C.3       1 9QD        -0.0007
     34 C30        93.8500  -55.0120  149.8870 C.ar      1 9QD        -0.0596
     35 C31        92.7850  -54.7790  150.7460 C.ar      1 9QD         0.0496
     36 C9         86.2820  -56.6760  146.4120 C.ar      1 9QD        -0.0380
     37 N2         91.9340  -53.6660  152.7540 N.2       1 9QD        -0.3003
     38 N4        100.3070  -51.5250  153.1390 N.4       1 9QD         0.2444
     39 N5        103.1450  -51.5610  153.3530 N.4       1 9QD         0.2405
     40 O1         88.3400  -53.3610  151.3840 O.3       1 9QD        -0.3856
     41 O2         84.2650  -54.2180  147.8560 O.2       1 9QD        -0.3967
     42 O3         95.8800  -51.0980  152.5690 O.2       1 9QD        -0.3839
     43 H1         97.2272  -53.2764  150.9094 H         1 9QD         0.2275
     44 H2         84.8367  -54.4418  150.0526 H         1 9QD         0.0523
     45 H3         85.9386  -53.1055  150.5287 H         1 9QD         0.0523
     46 H4         87.0592  -54.1681  146.1990 H         1 9QD         0.0527
     47 H5         85.5169  -53.4773  145.5902 H         1 9QD         0.0527
     48 H6         84.4882  -55.7737  145.7563 H         1 9QD         0.0483
     49 H7         85.6100  -56.8346  143.8335 H         1 9QD         0.0256
     50 H8         87.0066  -55.7207  144.0204 H         1 9QD         0.0256
     51 H9         85.3959  -55.0722  143.5602 H         1 9QD         0.0256
     52 H10        84.5210  -57.2724  147.4913 H         1 9QD         0.0557
     53 H11        89.3892  -57.9782  146.8457 H         1 9QD         0.0599
     54 H12        87.8524  -52.5220  148.7857 H         1 9QD         0.0523
     55 H13        87.9632  -53.6253  147.3725 H         1 9QD         0.0523
     56 H14        89.9359  -54.0124  153.2592 H         1 9QD         0.1520
     57 H15        98.2170  -53.1434  153.3067 H         1 9QD         0.0561
     58 H16        97.8025  -51.6008  154.1286 H         1 9QD         0.0561
     59 H17       100.5030  -53.5767  152.6858 H         1 9QD         0.0868
     60 H18       101.3497  -52.4610  151.5610 H         1 9QD         0.0868
     61 H19       104.9934  -52.5129  153.7105 H         1 9QD         0.0778
     62 H20       104.1584  -51.8903  155.1739 H         1 9QD         0.0778
     63 H21       104.9646  -50.7484  154.0456 H         1 9QD         0.0778
     64 H22       101.3616  -50.0785  152.0143 H         1 9QD         0.0868
     65 H23       100.4898  -49.4419  153.4501 H         1 9QD         0.0868
     66 H24        88.7316  -55.8180  152.4151 H         1 9QD         0.0662
     67 H25        89.1610  -56.5427  150.8286 H         1 9QD         0.0662
     68 H26        85.7168  -59.0162  148.7974 H         1 9QD         0.0599
     69 H27        88.1425  -59.3791  148.4704 H         1 9QD         0.0559
     70 H28        88.1892  -56.2652  145.5053 H         1 9QD         0.0557
     71 H29        89.6414  -54.1153  149.1900 H         1 9QD         0.0313
     72 H30        88.5628  -55.4943  148.7880 H         1 9QD         0.0313
     73 H31        94.3456  -52.6368  152.9879 H         1 9QD         0.0440
     74 H32        98.8030  -50.3158  152.2734 H         1 9QD         0.0841
     75 H33        99.1610  -51.8378  151.3891 H         1 9QD         0.0841
     76 H34       102.9780  -53.6352  153.0025 H         1 9QD         0.0868
     77 H35       102.1303  -53.0369  154.4689 H         1 9QD         0.0868
     78 H36       102.0632  -50.6825  154.9397 H         1 9QD         0.0868
     79 H37       102.9340  -49.5260  153.8763 H         1 9QD         0.0868
     80 H38        95.9133  -54.5803  149.5021 H         1 9QD         0.0473
     81 H39        86.6934  -56.0679  150.2748 H         1 9QD         0.0313
     82 H40        86.4535  -55.1651  151.8091 H         1 9QD         0.0313
     83 H41        93.7355  -55.6581  149.0242 H         1 9QD         0.0615
     84 H42       100.0851  -51.7080  154.1051 H         1 9QD         0.2039
     85 H43       103.3671  -51.3638  152.3897 H         1 9QD         0.2035
     86 H44        89.2409  -53.0636  151.3356 H         1 9QD         0.2103
@<TRIPOS>BOND
     1    3    1 1  
     2    1    4 am 
     3   10    1 1  
     4    2   12 1  
     5   13    2 am 
     6   33    3 1  
     7    4    5 1  
     8    4   41 2  
     9    5    6 1  
    10    6    7 1  
    11    6   36 1  
    12    8   22 ar 
    13   36    8 ar 
    14    9   23 ar 
    15   24    9 ar 
    16   25   10 1  
    17   11   18 1  
    18   37   11 2  
    19   12   27 ar 
    20   12   32 ar 
    21   14   13 1  
    22   13   42 2  
    23   29   14 1  
    24   30   15 1  
    25   15   38 1  
    26   39   16 1  
    27   17   31 1  
    28   38   17 1  
    29   19   18 am 
    30   18   21 1  
    31   19   20 2  
    32   35   19 1  
    33   21   28 1  
    34   22   23 ar 
    35   36   24 ar 
    36   28   25 1  
    37   27   26 ar 
    38   26   35 ar 
    39   26   37 1  
    40   28   33 1  
    41   28   40 1  
    42   38   29 1  
    43   30   39 1  
    44   31   39 1  
    45   32   34 ar 
    46   34   35 ar 
    47    2   43 1  
    48    3   44 1  
    49    3   45 1  
    50    5   46 1  
    51    5   47 1  
    52    6   48 1  
    53    7   49 1  
    54    7   50 1  
    55    7   51 1  
    56    8   52 1  
    57    9   53 1  
    58   10   54 1  
    59   10   55 1  
    60   11   56 1  
    61   14   57 1  
    62   14   58 1  
    63   15   59 1  
    64   15   60 1  
    65   16   61 1  
    66   16   62 1  
    67   16   63 1  
    68   17   64 1  
    69   17   65 1  
    70   21   66 1  
    71   21   67 1  
    72   22   68 1  
    73   23   69 1  
    74   24   70 1  
    75   25   71 1  
    76   25   72 1  
    77   27   73 1  
    78   29   74 1  
    79   29   75 1  
    80   30   76 1  
    81   30   77 1  
    82   31   78 1  
    83   31   79 1  
    84   32   80 1  
    85   33   81 1  
    86   33   82 1  
    87   34   83 1  
    88   38   84 1  
    89   39   85 1  
    90   40   86 1  
@<TRIPOS>SUBSTRUCTURE
     1 9QD         1

