### 
### Created by X-TOOL on Mon Sep 10 21:13:34 2018
### 

@<TRIPOS>MOLECULE
5vsb_ligand
   54    57     1     0     0
SMALL
GAST_HUCK


@<TRIPOS>ATOM
      1 C01       109.5840   -6.8610   93.1730 C.ar      1 9QA        -0.0687
      2 C02       108.6980   -5.8600   92.8050 C.ar      1 9QA        -0.0686
      3 C03       107.4400   -6.1890   92.3200 C.ar      1 9QA        -0.0602
      4 C04       107.0680   -7.5200   92.2070 C.ar      1 9QA        -0.0408
      5 C05       107.9600   -8.5210   92.5730 C.ar      1 9QA        -0.0602
      6 C06       109.2140   -8.1910   93.0590 C.ar      1 9QA        -0.0686
      7 C07       105.6800   -7.8890   91.6710 C.3       1 9QA        -0.0022
      8 C08       104.6460   -8.0570   92.7870 C.3       1 9QA         0.0470
      9 C09       105.1960   -8.8870   93.9480 C.2       1 9QA         0.1804
     10 O10       105.4130  -10.0360   93.7790 O.2       1 9QA        -0.3967
     11 N11       105.4710   -8.3010   95.2530 N.am      1 9QA        -0.2729
     12 C12       106.0160   -9.0840   96.4180 C.3       1 9QA         0.0366
     13 C13       107.2610   -8.4310   97.0110 C.3       1 9QA        -0.0007
     14 C14       106.9760   -7.0280   97.4280 C.3       1 9QA         0.0986
     15 C15       106.4810   -6.2230   96.2910 C.3       1 9QA        -0.0007
     16 C16       105.2520   -6.8550   95.6390 C.3       1 9QA         0.0366
     17 C17       108.2420   -6.3820   97.9990 C.3       1 9QA         0.1002
     18 N18       107.8830   -5.1830   98.7460 N.am      1 9QA        -0.1813
     19 C19       107.5050   -5.2950  100.0200 C.2       1 9QA         0.1298
     20 N20       107.1600   -4.2400  100.7550 N.2       1 9QA        -0.2957
     21 C21       107.1910   -2.9870  100.2060 C.ar      1 9QA         0.0246
     22 C22       106.8240   -1.8480  100.9870 C.ar      1 9QA        -0.0360
     23 C23       106.8580   -0.5780  100.4230 C.ar      1 9QA         0.0384
     24 C24       107.2500   -0.4140   99.0920 C.ar      1 9QA        -0.0495
     25 C25       107.6080   -1.5250   98.3290 C.ar      1 9QA        -0.0475
     26 C26       107.5740   -2.8270   98.9070 C.ar      1 9QA         0.0645
     27 C27       107.9320   -3.9900   98.1670 C.2       1 9QA         0.2409
     28 O28       108.2660   -3.8850   97.0370 O.2       1 9QA        -0.3847
     29 CL1       106.3990    0.8440  101.4010 Cl        1 9QA        -0.0687
     30 O30       105.9420   -7.0680   98.4510 O.3       1 9QA        -0.3856
     31 H1        110.5669   -6.6026   93.5502 H         1 9QA         0.0559
     32 H2        108.9882   -4.8195   92.8962 H         1 9QA         0.0599
     33 H3        106.7487   -5.4061   92.0297 H         1 9QA         0.0557
     34 H4        107.6735   -9.5621   92.4778 H         1 9QA         0.0557
     35 H5        109.9058   -8.9731   93.3501 H         1 9QA         0.0599
     36 H6        105.7565   -8.8355   91.1157 H         1 9QA         0.0451
     37 H7        105.3405   -7.0923   90.9927 H         1 9QA         0.0451
     38 H8        103.7583   -8.5613   92.3775 H         1 9QA         0.0525
     39 H9        104.3623   -7.0628   93.1627 H         1 9QA         0.0525
     40 H10       106.2747  -10.0968   96.0757 H         1 9QA         0.0523
     41 H11       105.2422   -9.1468   97.1973 H         1 9QA         0.0523
     42 H12       108.0607   -8.4272   96.2557 H         1 9QA         0.0313
     43 H13       107.5879   -9.0085   97.8883 H         1 9QA         0.0313
     44 H14       107.2797   -6.1403   95.5392 H         1 9QA         0.0313
     45 H15       106.2144   -5.2197   96.6547 H         1 9QA         0.0313
     46 H16       104.4127   -6.8039   96.3482 H         1 9QA         0.0523
     47 H17       105.0019   -6.2835   94.7330 H         1 9QA         0.0523
     48 H18       108.9188   -6.1114   97.1752 H         1 9QA         0.0663
     49 H19       108.7463   -7.0938   98.6691 H         1 9QA         0.0663
     50 H20       107.4776   -6.2840  100.4750 H         1 9QA         0.1521
     51 H21       106.5190   -1.9744  102.0195 H         1 9QA         0.0578
     52 H22       107.2758    0.5766   98.6526 H         1 9QA         0.0575
     53 H23       107.9121   -1.3982   97.2963 H         1 9QA         0.0648
     54 H24       105.7489   -6.1836   98.7392 H         1 9QA         0.2103
@<TRIPOS>BOND
     1    1    2 ar 
     2    1    6 ar 
     3    2    3 ar 
     4    3    4 ar 
     5    4    5 ar 
     6    4    7 1  
     7    5    6 ar 
     8    7    8 1  
     9    8    9 1  
    10    9   10 2  
    11    9   11 am 
    12   11   12 1  
    13   11   16 1  
    14   12   13 1  
    15   13   14 1  
    16   14   15 1  
    17   14   17 1  
    18   14   30 1  
    19   15   16 1  
    20   17   18 1  
    21   18   19 1  
    22   18   27 am 
    23   19   20 2  
    24   20   21 1  
    25   21   22 ar 
    26   21   26 ar 
    27   22   23 ar 
    28   23   24 ar 
    29   23   29 1  
    30   24   25 ar 
    31   25   26 ar 
    32   26   27 1  
    33   27   28 2  
    34    1   31 1  
    35    2   32 1  
    36    3   33 1  
    37    5   34 1  
    38    6   35 1  
    39    7   36 1  
    40    7   37 1  
    41    8   38 1  
    42    8   39 1  
    43   12   40 1  
    44   12   41 1  
    45   13   42 1  
    46   13   43 1  
    47   15   44 1  
    48   15   45 1  
    49   16   46 1  
    50   16   47 1  
    51   17   48 1  
    52   17   49 1  
    53   19   50 1  
    54   22   51 1  
    55   24   52 1  
    56   25   53 1  
    57   30   54 1  
@<TRIPOS>SUBSTRUCTURE
     1 9QA         1

