### 
### Created by X-TOOL on Mon Sep 10 21:13:31 2018
### 

@<TRIPOS>MOLECULE
5vsc_ligand
   59    61     1     0     0
SMALL
GAST_HUCK


@<TRIPOS>ATOM
      1 C4          7.4660   14.8050   28.0890 C.ar      1 9HJ         0.0078
      2 C5          6.1310   15.1860   28.1300 C.ar      1 9HJ         0.0267
      3 C6          5.7790   16.4940   27.7930 C.ar      1 9HJ         0.1243
      4 C7         12.2560   18.4770   28.4020 C.3       1 9HJ        -0.0634
      5 N1          6.7360   17.3780   27.4320 N.ar      1 9HJ        -0.2471
      6 N3          8.4030   15.7240   27.7300 N.ar      1 9HJ        -0.3043
      7 C1          8.6380   19.3020   26.7580 C.3       1 9HJ         0.0218
      8 C2          8.0420   16.9930   27.4040 C.ar      1 9HJ         0.1556
      9 CAB         8.5100   10.8630   29.1770 C.3       1 9HJ         0.0599
     10 CAC         3.2080   12.3750   29.4250 C.3       1 9HJ         0.0572
     11 CAD         1.4790   21.2890   26.5790 C.3       1 9HJ        -0.0431
     12 CAE         7.8110   13.4930   28.4270 C.ar      1 9HJ        -0.0244
     13 CAF         5.1520   14.2590   28.4960 C.ar      1 9HJ        -0.0226
     14 CAJ        10.9600   17.6950   28.3720 C.3       1 9HJ        -0.0351
     15 CAK        10.4260   17.5570   26.9520 C.3       1 9HJ         0.0325
     16 CAL         3.5420   18.1940   26.0830 C.3       1 9HJ         0.0116
     17 CAM         4.2650   19.2700   28.1440 C.3       1 9HJ         0.0116
     18 CAN         2.4210   19.2110   25.8930 C.3       1 9HJ        -0.0299
     19 CAO         3.1440   20.3030   28.0060 C.3       1 9HJ        -0.0299
     20 CAW         6.8260   12.5740   28.7980 C.ar      1 9HJ         0.1276
     21 CAX         5.4990   12.9520   28.8340 C.ar      1 9HJ         0.1272
     22 CBB         3.6710   17.9900   27.5820 C.3       1 9HJ         0.0528
     23 NAR         9.0260   17.9280   27.0400 N.pl3     1 9HJ        -0.2853
     24 NAS         4.4560   16.7780   27.8430 N.pl3     1 9HJ        -0.2935
     25 NBC         2.7040   20.4750   26.6020 N.4       1 9HJ         0.2332
     26 OAT         7.1450   11.2820   29.1280 O.3       1 9HJ        -0.3173
     27 OAU         4.5730   12.0060   29.1990 O.3       1 9HJ        -0.3230
     28 H1         12.6120   18.5571   29.4397 H         1 9HJ         0.0230
     29 H2         12.0860   19.4843   27.9940 H         1 9HJ         0.0230
     30 H3         13.0117   17.9579   27.7942 H         1 9HJ         0.0230
     31 H4          9.5303   19.8877   26.4919 H         1 9HJ         0.0490
     32 H5          8.1645   19.7396   27.6492 H         1 9HJ         0.0490
     33 H6          7.9260   19.3173   25.9197 H         1 9HJ         0.0490
     34 H7          8.5575    9.8006   29.4582 H         1 9HJ         0.0579
     35 H8          9.0516   11.4641   29.9222 H         1 9HJ         0.0579
     36 H9          8.9718   11.0016   28.1883 H         1 9HJ         0.0579
     37 H10         2.6289   11.4831   29.7064 H         1 9HJ         0.0573
     38 H11         2.7885   12.8095   28.5056 H         1 9HJ         0.0573
     39 H12         3.1579   13.1158   30.2366 H         1 9HJ         0.0573
     40 H13         1.1460   21.4211   25.5390 H         1 9HJ         0.0777
     41 H14         1.6841   22.2729   27.0261 H         1 9HJ         0.0777
     42 H15         0.6908   20.7817   27.1547 H         1 9HJ         0.0777
     43 H16         8.8504   13.1864   28.4011 H         1 9HJ         0.0461
     44 H17         4.1107   14.5596   28.5174 H         1 9HJ         0.0541
     45 H18        10.2122   18.2181   28.9861 H         1 9HJ         0.0282
     46 H19        11.1379   16.6917   28.7864 H         1 9HJ         0.0282
     47 H20        10.5298   16.5204   26.5988 H         1 9HJ         0.0526
     48 H21        10.9628   18.2324   26.2696 H         1 9HJ         0.0526
     49 H22         4.4840   18.5811   25.6674 H         1 9HJ         0.0340
     50 H23         3.2855   17.2454   25.5887 H         1 9HJ         0.0340
     51 H24         4.5451   19.1383   29.1995 H         1 9HJ         0.0340
     52 H25         5.1492   19.5755   27.5653 H         1 9HJ         0.0340
     53 H26         1.4842   18.7859   26.2826 H         1 9HJ         0.0815
     54 H27         2.3093   19.4220   24.8192 H         1 9HJ         0.0815
     55 H28         3.5067   21.2704   28.3835 H         1 9HJ         0.0815
     56 H29         2.2841   19.9737   28.6078 H         1 9HJ         0.0815
     57 H30         2.6728   17.8473   28.0216 H         1 9HJ         0.0571
     58 H31         3.8783   15.9728   28.1237 H         1 9HJ         0.1902
     59 H32         3.4347   20.9588   26.1040 H         1 9HJ         0.2030
@<TRIPOS>BOND
     1    2    1 ar 
     2    1    6 ar 
     3    1   12 ar 
     4    3    2 ar 
     5    2   13 ar 
     6    3    5 ar 
     7   24    3 1  
     8   14    4 1  
     9    5    8 ar 
    10    8    6 ar 
    11   23    7 1  
    12    8   23 1  
    13   26    9 1  
    14   27   10 1  
    15   25   11 1  
    16   12   20 ar 
    17   13   21 ar 
    18   15   14 1  
    19   23   15 1  
    20   16   18 1  
    21   22   16 1  
    22   17   19 1  
    23   22   17 1  
    24   18   25 1  
    25   19   25 1  
    26   21   20 ar 
    27   20   26 1  
    28   21   27 1  
    29   22   24 1  
    30    4   28 1  
    31    4   29 1  
    32    4   30 1  
    33    7   31 1  
    34    7   32 1  
    35    7   33 1  
    36    9   34 1  
    37    9   35 1  
    38    9   36 1  
    39   10   37 1  
    40   10   38 1  
    41   10   39 1  
    42   11   40 1  
    43   11   41 1  
    44   11   42 1  
    45   12   43 1  
    46   13   44 1  
    47   14   45 1  
    48   14   46 1  
    49   15   47 1  
    50   15   48 1  
    51   16   49 1  
    52   16   50 1  
    53   17   51 1  
    54   17   52 1  
    55   18   53 1  
    56   18   54 1  
    57   19   55 1  
    58   19   56 1  
    59   22   57 1  
    60   24   58 1  
    61   25   59 1  
@<TRIPOS>SUBSTRUCTURE
     1 9HJ         1

