### 
### Created by X-TOOL on Mon Sep 10 21:13:32 2018
### 

@<TRIPOS>MOLECULE
5vsd_ligand
   59    61     1     0     0
SMALL
GAST_HUCK


@<TRIPOS>ATOM
      1 C4        -21.0180  -14.9740    3.0730 C.ar      1 9HJ         0.0078
      2 C5        -21.2150  -13.7620    2.4240 C.ar      1 9HJ         0.0267
      3 C6        -21.9630  -12.7650    3.0380 C.ar      1 9HJ         0.1243
      4 C7        -22.4020  -17.0890    8.7260 C.3       1 9HJ        -0.0634
      5 N1        -22.5050  -12.9780    4.2620 N.ar      1 9HJ        -0.2471
      6 N3        -21.5700  -15.1570    4.2980 N.ar      1 9HJ        -0.3043
      7 C1        -23.4230  -13.2890    6.8920 C.3       1 9HJ         0.0218
      8 C2        -22.3010  -14.1680    4.8790 C.ar      1 9HJ         0.1556
      9 CAB       -18.7750  -17.9990    1.1840 C.3       1 9HJ         0.0599
     10 CAC       -19.7090  -13.2770   -1.5170 C.3       1 9HJ         0.0572
     11 CAD       -24.3710   -6.7390    3.1970 C.3       1 9HJ        -0.0431
     12 CAE       -20.2750  -15.9800    2.4560 C.ar      1 9HJ        -0.0244
     13 CAF       -20.6620  -13.5300    1.1600 C.ar      1 9HJ        -0.0226
     14 CAJ       -22.4890  -15.7220    8.0620 C.3       1 9HJ        -0.0351
     15 CAK       -22.9590  -15.7760    6.6120 C.3       1 9HJ         0.0325
     16 CAL       -22.2970   -9.7600    3.8870 C.3       1 9HJ         0.0116
     17 CAM       -24.2620  -10.4410    2.5900 C.3       1 9HJ         0.0116
     18 CAN       -22.7060   -8.2970    3.8120 C.3       1 9HJ        -0.0299
     19 CAO       -24.6960   -8.9830    2.4660 C.3       1 9HJ        -0.0299
     20 CAW       -19.7090  -15.7490    1.1990 C.ar      1 9HJ         0.1276
     21 CAX       -19.9150  -14.5410    0.5520 C.ar      1 9HJ         0.1272
     22 CBB       -22.7500  -10.3490    2.5650 C.3       1 9HJ         0.0528
     23 NAR       -22.8750  -14.4020    6.1280 N.pl3     1 9HJ        -0.2853
     24 NAS       -22.0870  -11.6270    2.3110 N.pl3     1 9HJ        -0.2935
     25 NBC       -24.1530   -8.1430    3.5570 N.4       1 9HJ         0.2332
     26 OAT       -18.9570  -16.7180    0.5700 O.3       1 9HJ        -0.3173
     27 OAU       -19.3510  -14.3630   -0.6780 O.3       1 9HJ        -0.3230
     28 H1        -22.0582  -16.9711    9.7642 H         1 9HJ         0.0230
     29 H2        -21.6905  -17.7204    8.1736 H         1 9HJ         0.0230
     30 H3        -23.3944  -17.5634    8.7201 H         1 9HJ         0.0230
     31 H4        -23.8297  -13.6624    7.8434 H         1 9HJ         0.0490
     32 H5        -24.2255  -12.8074    6.3141 H         1 9HJ         0.0490
     33 H6        -22.6276  -12.5570    7.0954 H         1 9HJ         0.0490
     34 H7        -18.1506  -18.6311    0.5354 H         1 9HJ         0.0579
     35 H8        -19.7543  -18.4782    1.3299 H         1 9HJ         0.0579
     36 H9        -18.2802  -17.8717    2.1581 H         1 9HJ         0.0579
     37 H10       -19.1336  -13.3315   -2.4529 H         1 9HJ         0.0573
     38 H11       -19.4869  -12.3292   -1.0048 H         1 9HJ         0.0573
     39 H12       -20.7841  -13.3280   -1.7441 H         1 9HJ         0.0573
     40 H13       -23.9757   -6.0908    3.9929 H         1 9HJ         0.0777
     41 H14       -25.4486   -6.5547    3.0754 H         1 9HJ         0.0777
     42 H15       -23.8523   -6.5178    2.2525 H         1 9HJ         0.0777
     43 H16       -20.1372  -16.9358    2.9485 H         1 9HJ         0.0461
     44 H17       -20.8112  -12.5797    0.6602 H         1 9HJ         0.0541
     45 H18       -21.4915  -15.2591    8.0871 H         1 9HJ         0.0282
     46 H19       -23.1954  -15.1021    8.6336 H         1 9HJ         0.0282
     47 H20       -23.9951  -16.1413    6.5562 H         1 9HJ         0.0526
     48 H21       -22.3059  -16.4336    6.0196 H         1 9HJ         0.0526
     49 H22       -22.7983  -10.2613    4.7281 H         1 9HJ         0.0340
     50 H23       -21.2070   -9.8537    4.0012 H         1 9HJ         0.0340
     51 H24       -24.6358  -11.0381    1.7452 H         1 9HJ         0.0340
     52 H25       -24.6159  -10.8800    3.5345 H         1 9HJ         0.0340
     53 H26       -22.1477   -7.8127    2.9973 H         1 9HJ         0.0815
     54 H27       -22.4590   -7.8091    4.7664 H         1 9HJ         0.0815
     55 H28       -25.7946   -8.9366    2.4966 H         1 9HJ         0.0815
     56 H29       -24.3390   -8.5878    1.5036 H         1 9HJ         0.0815
     57 H30       -22.4632   -9.6609    1.7562 H         1 9HJ         0.0571
     58 H31       -21.6195  -11.6722    1.3943 H         1 9HJ         0.1902
     59 H32       -24.6525   -8.3635    4.4043 H         1 9HJ         0.2030
@<TRIPOS>BOND
     1    2    1 ar 
     2    1    6 ar 
     3    1   12 ar 
     4    3    2 ar 
     5    2   13 ar 
     6    3    5 ar 
     7   24    3 1  
     8   14    4 1  
     9    5    8 ar 
    10    8    6 ar 
    11   23    7 1  
    12    8   23 1  
    13   26    9 1  
    14   27   10 1  
    15   25   11 1  
    16   12   20 ar 
    17   13   21 ar 
    18   15   14 1  
    19   23   15 1  
    20   16   18 1  
    21   22   16 1  
    22   17   19 1  
    23   22   17 1  
    24   18   25 1  
    25   19   25 1  
    26   21   20 ar 
    27   20   26 1  
    28   21   27 1  
    29   22   24 1  
    30    4   28 1  
    31    4   29 1  
    32    4   30 1  
    33    7   31 1  
    34    7   32 1  
    35    7   33 1  
    36    9   34 1  
    37    9   35 1  
    38    9   36 1  
    39   10   37 1  
    40   10   38 1  
    41   10   39 1  
    42   11   40 1  
    43   11   41 1  
    44   11   42 1  
    45   12   43 1  
    46   13   44 1  
    47   14   45 1  
    48   14   46 1  
    49   15   47 1  
    50   15   48 1  
    51   16   49 1  
    52   16   50 1  
    53   17   51 1  
    54   17   52 1  
    55   18   53 1  
    56   18   54 1  
    57   19   55 1  
    58   19   56 1  
    59   22   57 1  
    60   24   58 1  
    61   25   59 1  
@<TRIPOS>SUBSTRUCTURE
     1 9HJ         1

