### 
### Created by X-TOOL on Mon Sep 10 21:13:31 2018
### 

@<TRIPOS>MOLECULE
5vse_ligand
   63    66     1     0     0
SMALL
GAST_HUCK


@<TRIPOS>ATOM
      1 C4          7.2590   14.9250   28.0250 C.ar      1 9HG         0.0078
      2 C5          5.9250   15.3260   28.0360 C.ar      1 9HG         0.0267
      3 C6          5.6120   16.6480   27.6990 C.ar      1 9HG         0.1243
      4 C7         12.3710   18.1230   28.0930 C.3       1 9HG        -0.0509
      5 C8         11.0740   18.3450   26.0440 C.3       1 9HG        -0.0294
      6 N1          6.6010   17.5080   27.3670 N.ar      1 9HG        -0.2471
      7 C3         12.4960   18.2420   26.5770 C.3       1 9HG        -0.0509
      8 N3          8.2190   15.8200   27.6830 N.ar      1 9HG        -0.3043
      9 C1          8.5750   19.3810   26.6610 C.3       1 9HG         0.0221
     10 C2          7.8880   17.0980   27.3620 C.ar      1 9HG         0.1559
     11 CAB         8.2790   11.0090   29.1080 C.3       1 9HG         0.0599
     12 CAC         2.9580   12.6220   29.3310 C.3       1 9HG         0.0572
     13 CAD         1.3230   21.4460   25.9260 C.3       1 9HG        -0.0431
     14 CAE         7.5920   13.6110   28.3620 C.ar      1 9HG        -0.0244
     15 CAF         4.9280   14.4100   28.3860 C.ar      1 9HG        -0.0226
     16 CAJ        10.8850   17.9340   28.3850 C.3       1 9HG        -0.0294
     17 CAK        10.2720   17.5400   27.0490 C.3       1 9HG         0.0439
     18 CAL         3.0010   19.0230   28.2630 C.3       1 9HG         0.0116
     19 CAM         3.4460   18.3710   25.9300 C.3       1 9HG         0.0116
     20 CAN         2.5170   20.3700   27.7310 C.3       1 9HG        -0.0299
     21 CAO         2.9540   19.7410   25.4690 C.3       1 9HG        -0.0299
     22 CAW         6.5900   12.7000   28.7040 C.ar      1 9HG         0.1276
     23 CAX         5.2630   13.1010   28.7250 C.ar      1 9HG         0.1272
     24 CBB         4.0630   18.4730   27.3170 C.3       1 9HG         0.0528
     25 NAR         8.9000   18.0070   27.0230 N.pl3     1 9HG        -0.2823
     26 NAS         4.3280   17.0880   27.6890 N.pl3     1 9HG        -0.2935
     27 NBC         1.9120   20.1840   26.4020 N.4       1 9HG         0.2332
     28 OAT         6.8990   11.4060   29.0350 O.3       1 9HG        -0.3173
     29 OAU         4.2930   12.1840   29.0680 O.3       1 9HG        -0.3230
     30 H1         12.7416   19.0376   28.5790 H         1 9HG         0.0266
     31 H2         12.9439   17.2569   28.4559 H         1 9HG         0.0266
     32 H3         10.9969   17.9090   25.0370 H         1 9HG         0.0288
     33 H4         10.7370   19.3917   26.0172 H         1 9HG         0.0288
     34 H5         12.9952   17.3531   26.1640 H         1 9HG         0.0266
     35 H6         13.0698   19.1418   26.3105 H         1 9HG         0.0266
     36 H7          7.4852   19.5237   26.7047 H         1 9HG         0.0490
     37 H8          8.9309   19.5853   25.6404 H         1 9HG         0.0490
     38 H9          9.0635   20.0710   27.3647 H         1 9HG         0.0490
     39 H10         8.3406    9.9460   29.3842 H         1 9HG         0.0579
     40 H11         8.7954   11.6154   29.8667 H         1 9HG         0.0579
     41 H12         8.7568   11.1617   28.1290 H         1 9HG         0.0579
     42 H13         2.3312   11.7548   29.5864 H         1 9HG         0.0573
     43 H14         2.5517   13.1174   28.4368 H         1 9HG         0.0573
     44 H15         2.9636   13.3308   30.1722 H         1 9HG         0.0573
     45 H16         0.5426   21.7742   26.6283 H         1 9HG         0.0777
     46 H17         0.8796   21.2915   24.9313 H         1 9HG         0.0777
     47 H18         2.1065   22.2155   25.8628 H         1 9HG         0.0777
     48 H19         8.6298   13.2978   28.3581 H         1 9HG         0.0461
     49 H20         3.8893   14.7201   28.3936 H         1 9HG         0.0541
     50 H21        10.4406   18.8702   28.7539 H         1 9HG         0.0288
     51 H22        10.7347   17.1384   29.1296 H         1 9HG         0.0288
     52 H23        10.3314   16.4576   26.8623 H         1 9HG         0.0562
     53 H24         2.1554   18.3216   28.3171 H         1 9HG         0.0340
     54 H25         3.4325   19.1553   29.2661 H         1 9HG         0.0340
     55 H26         4.2021   17.9996   25.2226 H         1 9HG         0.0340
     56 H27         2.5975   17.6717   25.9605 H         1 9HG         0.0340
     57 H28         3.3693   21.0609   27.6524 H         1 9HG         0.0815
     58 H29         1.7681   20.7885   28.4194 H         1 9HG         0.0815
     59 H30         2.5387   19.6665   24.4531 H         1 9HG         0.0815
     60 H31         3.7881   20.4582   25.4725 H         1 9HG         0.0815
     61 H32         4.9731   19.0907   27.3269 H         1 9HG         0.0571
     62 H33         3.5549   16.4552   27.9396 H         1 9HG         0.1902
     63 H34         1.1904   19.4825   26.4583 H         1 9HG         0.2030
@<TRIPOS>BOND
     1    2    1 ar 
     2    1    8 ar 
     3    1   14 ar 
     4    3    2 ar 
     5    2   15 ar 
     6    3    6 ar 
     7   26    3 1  
     8    4    7 1  
     9   16    4 1  
    10    5    7 1  
    11   17    5 1  
    12    6   10 ar 
    13   10    8 ar 
    14   25    9 1  
    15   10   25 1  
    16   28   11 1  
    17   29   12 1  
    18   27   13 1  
    19   14   22 ar 
    20   15   23 ar 
    21   17   16 1  
    22   25   17 1  
    23   18   20 1  
    24   24   18 1  
    25   19   21 1  
    26   24   19 1  
    27   20   27 1  
    28   21   27 1  
    29   23   22 ar 
    30   22   28 1  
    31   23   29 1  
    32   24   26 1  
    33    4   30 1  
    34    4   31 1  
    35    5   32 1  
    36    5   33 1  
    37    7   34 1  
    38    7   35 1  
    39    9   36 1  
    40    9   37 1  
    41    9   38 1  
    42   11   39 1  
    43   11   40 1  
    44   11   41 1  
    45   12   42 1  
    46   12   43 1  
    47   12   44 1  
    48   13   45 1  
    49   13   46 1  
    50   13   47 1  
    51   14   48 1  
    52   15   49 1  
    53   16   50 1  
    54   16   51 1  
    55   17   52 1  
    56   18   53 1  
    57   18   54 1  
    58   19   55 1  
    59   19   56 1  
    60   20   57 1  
    61   20   58 1  
    62   21   59 1  
    63   21   60 1  
    64   24   61 1  
    65   26   62 1  
    66   27   63 1  
@<TRIPOS>SUBSTRUCTURE
     1 9HG         1

