### 
### Created by X-TOOL on Mon Sep 10 21:13:31 2018
### 

@<TRIPOS>MOLECULE
5vsf_ligand
   63    66     1     0     0
SMALL
GAST_HUCK


@<TRIPOS>ATOM
      1 C4         20.8890  -14.7460   -2.8700 C.ar      1 9HG         0.0078
      2 C5         21.0650  -13.5080   -2.2470 C.ar      1 9HG         0.0267
      3 C6         21.8360  -12.5300   -2.8950 C.ar      1 9HG         0.1243
      4 C7         24.2190  -17.3260   -7.1400 C.3       1 9HG        -0.0509
      5 C8         22.7830  -15.5500   -7.9700 C.3       1 9HG        -0.0294
      6 N1         22.3920  -12.8120   -4.0900 N.ar      1 9HG        -0.2471
      7 C3         23.3940  -16.8920   -8.3470 C.3       1 9HG        -0.0509
      8 N3         21.4570  -14.9690   -4.0760 N.ar      1 9HG        -0.3043
      9 C1         23.5710  -13.2750   -6.5980 C.3       1 9HG         0.0221
     10 C2         22.2060  -14.0130   -4.6700 C.ar      1 9HG         0.1559
     11 CAB        18.6160  -17.7400   -1.0250 C.3       1 9HG         0.0599
     12 CAC        19.5640  -12.9970    1.6410 C.3       1 9HG         0.0572
     13 CAD        23.9790   -6.2380   -3.7240 C.3       1 9HG        -0.0431
     14 CAE        20.1310  -15.7540   -2.2660 C.ar      1 9HG        -0.0244
     15 CAF        20.4690  -13.2700   -1.0100 C.ar      1 9HG        -0.0226
     16 CAJ        23.7400  -16.4930   -5.9540 C.3       1 9HG        -0.0294
     17 CAK        22.5950  -15.6220   -6.4640 C.3       1 9HG         0.0439
     18 CAL        23.7860   -9.6190   -2.0990 C.3       1 9HG         0.0116
     19 CAM        21.8630   -9.3130   -3.6040 C.3       1 9HG         0.0116
     20 CAN        24.4340   -8.3860   -2.7310 C.3       1 9HG        -0.0299
     21 CAO        22.5820   -8.1110   -4.2100 C.3       1 9HG        -0.0299
     22 CAW        19.5410  -15.5090   -1.0290 C.ar      1 9HG         0.1276
     23 CAX        19.7160  -14.2800   -0.4080 C.ar      1 9HG         0.1272
     24 CBB        22.8700  -10.3270   -3.0960 C.3       1 9HG         0.0528
     25 NAR        22.7890  -14.2890   -5.9020 N.pl3     1 9HG        -0.2823
     26 NAS        22.0540  -11.3030   -2.3610 N.pl3     1 9HG        -0.2935
     27 NBC        23.3830   -7.4600   -3.1640 N.4       1 9HG         0.2332
     28 OAT        18.7820  -16.4630   -0.3980 O.3       1 9HG        -0.3173
     29 OAU        19.1260  -14.0790    0.8070 O.3       1 9HG        -0.3230
     30 H1         25.2873  -17.1409   -7.3255 H         1 9HG         0.0266
     31 H2         24.0617  -18.3960   -6.9390 H         1 9HG         0.0266
     32 H3         21.8163  -15.4081   -8.4753 H         1 9HG         0.0288
     33 H4         23.4610  -14.7261   -8.2374 H         1 9HG         0.0288
     34 H5         22.6034  -17.6279   -8.5554 H         1 9HG         0.0266
     35 H6         24.0377  -16.7847   -9.2325 H         1 9HG         0.0266
     36 H7         23.5881  -12.3514   -6.0009 H         1 9HG         0.0490
     37 H8         23.1158  -13.0696   -7.5781 H         1 9HG         0.0490
     38 H9         24.5993  -13.6387   -6.7403 H         1 9HG         0.0490
     39 H10        17.9850  -18.3804   -0.3911 H         1 9HG         0.0579
     40 H11        19.5999  -18.2130   -1.1598 H         1 9HG         0.0579
     41 H12        18.1355  -17.6074   -2.0056 H         1 9HG         0.0579
     42 H13        18.9787  -12.9919    2.5724 H         1 9HG         0.0573
     43 H14        19.4188  -12.0439    1.1115 H         1 9HG         0.0573
     44 H15        20.6303  -13.1257    1.8787 H         1 9HG         0.0573
     45 H16        24.5829   -5.7378   -2.9525 H         1 9HG         0.0777
     46 H17        23.1798   -5.5610   -4.0601 H         1 9HG         0.0777
     47 H18        24.6202   -6.5010   -4.5782 H         1 9HG         0.0777
     48 H19        20.0045  -16.7134   -2.7544 H         1 9HG         0.0461
     49 H20        20.5888  -12.3105   -0.5201 H         1 9HG         0.0541
     50 H21        24.5588  -15.8614   -5.5789 H         1 9HG         0.0288
     51 H22        23.3853  -17.1511   -5.1471 H         1 9HG         0.0288
     52 H23        21.6105  -16.0324   -6.1949 H         1 9HG         0.0562
     53 H24        23.1944   -9.3069   -1.2257 H         1 9HG         0.0340
     54 H25        24.5747  -10.3153   -1.7778 H         1 9HG         0.0340
     55 H26        21.2307   -9.7828   -4.3718 H         1 9HG         0.0340
     56 H27        21.2339   -8.9756   -2.7671 H         1 9HG         0.0340
     57 H28        25.0367   -8.6909   -3.5992 H         1 9HG         0.0815
     58 H29        25.0803   -7.8899   -1.9919 H         1 9HG         0.0815
     59 H30        21.8427   -7.3992   -4.6059 H         1 9HG         0.0815
     60 H31        23.2407   -8.4465   -5.0246 H         1 9HG         0.0815
     61 H32        23.4436  -10.7924   -3.9111 H         1 9HG         0.0571
     62 H33        21.6502  -11.0567   -1.4460 H         1 9HG         0.1902
     63 H34        22.7967   -7.2225   -2.3792 H         1 9HG         0.2030
@<TRIPOS>BOND
     1    2    1 ar 
     2    1    8 ar 
     3    1   14 ar 
     4    3    2 ar 
     5    2   15 ar 
     6    3    6 ar 
     7   26    3 1  
     8    4    7 1  
     9   16    4 1  
    10    5    7 1  
    11   17    5 1  
    12    6   10 ar 
    13   10    8 ar 
    14   25    9 1  
    15   10   25 1  
    16   28   11 1  
    17   29   12 1  
    18   27   13 1  
    19   14   22 ar 
    20   15   23 ar 
    21   17   16 1  
    22   25   17 1  
    23   18   20 1  
    24   24   18 1  
    25   19   21 1  
    26   24   19 1  
    27   20   27 1  
    28   21   27 1  
    29   23   22 ar 
    30   22   28 1  
    31   23   29 1  
    32   24   26 1  
    33    4   30 1  
    34    4   31 1  
    35    5   32 1  
    36    5   33 1  
    37    7   34 1  
    38    7   35 1  
    39    9   36 1  
    40    9   37 1  
    41    9   38 1  
    42   11   39 1  
    43   11   40 1  
    44   11   41 1  
    45   12   42 1  
    46   12   43 1  
    47   12   44 1  
    48   13   45 1  
    49   13   46 1  
    50   13   47 1  
    51   14   48 1  
    52   15   49 1  
    53   16   50 1  
    54   16   51 1  
    55   17   52 1  
    56   18   53 1  
    57   18   54 1  
    58   19   55 1  
    59   19   56 1  
    60   20   57 1  
    61   20   58 1  
    62   21   59 1  
    63   21   60 1  
    64   24   61 1  
    65   26   62 1  
    66   27   63 1  
@<TRIPOS>SUBSTRUCTURE
     1 9HG         1

