### 
### Created by X-TOOL on Mon Sep 10 21:13:34 2018
### 

@<TRIPOS>MOLECULE
5vsk_ligand
   58    61     1     0     0
SMALL
GAST_HUCK


@<TRIPOS>ATOM
      1 C7         77.9440  -57.2150  181.2090 C.ar      1 9HS         0.0503
      2 C9         74.7520  -58.6580  180.2300 C.2       1 9HS         0.1846
      3 N1         76.0560  -58.3260  180.2390 N.pl3     1 9HS        -0.1726
      4 C2         74.3030  -57.4350  182.2410 C.2       1 9HS         0.2523
      5 N2         69.8700  -56.4500  178.5730 N.am      1 9HS        -0.2729
      6 C10        72.1080  -57.0440  179.1620 C.3       1 9HS        -0.0023
      7 C4         76.2720  -56.2530  183.2890 C.ar      1 9HS         0.0063
      8 C6         78.4500  -56.4140  182.2290 C.ar      1 9HS         0.0916
      9 N          73.8820  -58.2500  181.1700 N.2       1 9HS        -0.2540
     10 C          71.6140  -57.5260  180.5220 C.3       1 9HS         0.0839
     11 O          71.6450  -56.4250  181.4370 O.3       1 9HS        -0.3872
     12 C1         72.4780  -58.6620  181.0690 C.3       1 9HS         0.0543
     13 C11        71.2240  -55.9200  178.6360 C.3       1 9HS         0.0365
     14 C12        69.2030  -56.5460  177.4250 C.2       1 9HS         0.1807
     15 C13        68.8520  -57.9450  176.9890 C.3       1 9HS         0.0496
     16 C14        69.9110  -58.4250  175.9900 C.3       1 9HS         0.0066
     17 C15        69.3270  -58.5280  174.5830 C.3       1 9HS        -0.0504
     18 C16        70.5620  -59.7220  176.3320 C.ar      1 9HS        -0.0380
     19 C17        69.9650  -60.7120  177.1130 C.ar      1 9HS        -0.0599
     20 C18        70.6440  -61.8950  177.3800 C.ar      1 9HS        -0.0685
     21 C19        71.9150  -62.1030  176.8620 C.ar      1 9HS        -0.0687
     22 C20        72.5090  -61.1240  176.0770 C.ar      1 9HS        -0.0685
     23 C21        71.8330  -59.9400  175.8130 C.ar      1 9HS        -0.0599
     24 C22        69.2900  -56.8730  179.8410 C.3       1 9HS         0.0365
     25 C23        70.1720  -57.9920  180.3810 C.3       1 9HS        -0.0023
     26 C3         75.7320  -57.0490  182.2900 C.ar      1 9HS         0.1438
     27 C5         77.6280  -55.9400  183.2530 C.ar      1 9HS         0.0015
     28 C8         76.5980  -57.5530  181.2050 C.ar      1 9HS         0.1917
     29 O1         73.5030  -57.0530  183.1200 O.2       1 9HS        -0.3215
     30 O2         68.8890  -55.5850  176.7430 O.2       1 9HS        -0.3967
     31 CL         80.1910  -55.9840  182.2250 Cl        1 9HS        -0.0500
     32 H1         78.5979  -57.5728  180.4220 H         1 9HS         0.0886
     33 H2         74.3835  -59.2880  179.4217 H         1 9HS         0.1797
     34 H3         76.6623  -58.6737  179.4824 H         1 9HS         0.2970
     35 H4         72.0860  -57.8834  178.4514 H         1 9HS         0.0313
     36 H5         73.1395  -56.6754  179.2623 H         1 9HS         0.0313
     37 H6         75.6446  -55.8784  184.0897 H         1 9HS         0.0813
     38 H7         72.5352  -56.1020  181.5120 H         1 9HS         0.2102
     39 H8         72.1126  -58.9435  182.0676 H         1 9HS         0.0469
     40 H9         72.4043  -59.5275  180.3941 H         1 9HS         0.0469
     41 H10        71.2624  -55.0569  179.3169 H         1 9HS         0.0523
     42 H11        71.5579  -55.6119  177.6342 H         1 9HS         0.0523
     43 H12        67.8621  -57.9465  176.5093 H         1 9HS         0.0527
     44 H13        68.8370  -58.6129  177.8629 H         1 9HS         0.0527
     45 H14        70.7011  -57.6598  175.9747 H         1 9HS         0.0483
     46 H15        70.1057  -58.8737  173.8872 H         1 9HS         0.0256
     47 H16        68.9625  -57.5404  174.2640 H         1 9HS         0.0256
     48 H17        68.4921  -59.2442  174.5840 H         1 9HS         0.0256
     49 H18        68.9691  -60.5582  177.5126 H         1 9HS         0.0557
     50 H19        70.1796  -62.6576  177.9947 H         1 9HS         0.0599
     51 H20        72.4422  -63.0271  177.0698 H         1 9HS         0.0559
     52 H21        73.5009  -61.2839  175.6700 H         1 9HS         0.0599
     53 H22        72.3001  -59.1798  175.1974 H         1 9HS         0.0557
     54 H23        68.2655  -57.2415  179.6840 H         1 9HS         0.0523
     55 H24        69.2724  -56.0308  180.5484 H         1 9HS         0.0523
     56 H25        69.7959  -58.3032  181.3667 H         1 9HS         0.0313
     57 H26        70.1353  -58.8457  179.6883 H         1 9HS         0.0313
     58 H27        78.0525  -55.3181  184.0328 H         1 9HS         0.1008
@<TRIPOS>BOND
     1    1    8 ar 
     2   28    1 ar 
     3    2    3 1  
     4    9    2 2  
     5    3   28 1  
     6    9    4 1  
     7    4   26 1  
     8    4   29 2  
     9   13    5 1  
    10    5   14 am 
    11    5   24 1  
    12   10    6 1  
    13    6   13 1  
    14   26    7 ar 
    15    7   27 ar 
    16   27    8 ar 
    17    8   31 1  
    18   12    9 1  
    19   10   11 1  
    20   10   12 1  
    21   10   25 1  
    22   14   15 1  
    23   14   30 2  
    24   15   16 1  
    25   16   17 1  
    26   16   18 1  
    27   18   19 ar 
    28   18   23 ar 
    29   19   20 ar 
    30   20   21 ar 
    31   21   22 ar 
    32   22   23 ar 
    33   24   25 1  
    34   26   28 ar 
    35    1   32 1  
    36    2   33 1  
    37    3   34 1  
    38    6   35 1  
    39    6   36 1  
    40    7   37 1  
    41   11   38 1  
    42   12   39 1  
    43   12   40 1  
    44   13   41 1  
    45   13   42 1  
    46   15   43 1  
    47   15   44 1  
    48   16   45 1  
    49   17   46 1  
    50   17   47 1  
    51   17   48 1  
    52   19   49 1  
    53   20   50 1  
    54   21   51 1  
    55   22   52 1  
    56   23   53 1  
    57   24   54 1  
    58   24   55 1  
    59   25   56 1  
    60   25   57 1  
    61   27   58 1  
@<TRIPOS>SUBSTRUCTURE
     1 9HS         1

