### 
### Created by X-TOOL on Wed Jan  1 15:39:34 2020
### 

@<TRIPOS>MOLECULE
5vt1_ligand
   41    43     1     0     0
SMALL
GAST_HUCK


@<TRIPOS>ATOM
      1 C4         23.6630   56.8260   27.7510 C.ar      1 9JS        -0.0156
      2 C14        31.3530   49.4460   31.4110 C.ar      1 9JS         0.0380
      3 C5         22.6130   57.2410   26.9450 C.ar      1 9JS         0.0807
      4 C6         21.9640   56.3480   26.0910 C.ar      1 9JS        -0.0275
      5 C11        29.3510   51.3600   30.9920 C.ar      1 9JS         0.0737
      6 C7         20.8230   56.8090   25.2280 C.3       1 9JS        -0.0380
      7 C8         25.9220   54.0250   28.6250 C.2       1 9JS         0.2171
      8 C9         27.5890   52.6400   29.7620 C.2       1 9JS         0.2201
      9 C10        26.7130   53.7410   29.7650 C.2       1 9JS         0.2899
     10 C12        30.2050   50.9760   29.9440 C.ar      1 9JS        -0.0312
     11 C13        31.1820   50.0220   30.1560 C.ar      1 9JS        -0.0509
     12 N1         25.1220   55.1320   28.6120 N.pl3     1 9JS        -0.2434
     13 N2         25.9210   53.2700   27.5240 N.2       1 9JS        -0.2445
     14 C3         24.0560   55.4960   27.7420 C.ar      1 9JS         0.0531
     15 N3         27.5430   51.6780   28.8520 N.2       1 9JS        -0.2426
     16 C1         22.3710   55.0160   26.0980 C.ar      1 9JS        -0.0774
     17 C2         23.4030   54.5910   26.9150 C.ar      1 9JS        -0.0547
     18 O1         22.2260   58.5430   27.0000 O.3       1 9JS        -0.3394
     19 S1         26.8520   51.9040   27.4250 S.3       1 9JS        -0.0059
     20 O2         26.5760   54.4130   30.8120 O.2       1 9JS        -0.3188
     21 N4         28.3660   52.3790   30.8270 N.pl3     1 9JS        -0.2346
     22 C15        30.5370   49.8620   32.4570 C.ar      1 9JS        -0.0509
     23 C16        29.5350   50.7900   32.2540 C.ar      1 9JS        -0.0312
     24 C17        32.4230   48.4330   31.6700 C.2       1 9JS         0.1941
     25 O3         32.4870   47.8910   32.7810 O.2       1 9JS        -0.3902
     26 N5         33.2960   48.1660   30.7080 N.am      1 9JS        -0.3018
     27 H1         24.1751   57.5396   28.3863 H         1 9JS         0.0444
     28 H2         20.4492   55.9634   24.6320 H         1 9JS         0.0348
     29 H3         21.1711   57.6064   24.5550 H         1 9JS         0.0348
     30 H4         20.0136   57.1945   25.8654 H         1 9JS         0.0348
     31 H5         30.0969   51.4299   28.9656 H         1 9JS         0.0554
     32 H6         31.8223   49.7190   29.3355 H         1 9JS         0.0641
     33 H7         25.3235   55.8166   29.3547 H         1 9JS         0.2203
     34 H8         21.8715   54.3017   25.4535 H         1 9JS         0.0501
     35 H9         23.7029   53.5493   26.9099 H         1 9JS         0.0433
     36 H10        22.7683   59.0072   27.6268 H         1 9JS         0.2454
     37 H11        28.2318   53.0011   31.6368 H         1 9JS         0.2238
     38 H12        30.6900   49.4510   33.4483 H         1 9JS         0.0641
     39 H13        28.8894   51.0770   33.0761 H         1 9JS         0.0554
     40 H14        34.0186   47.4920   30.8615 H         1 9JS         0.1805
     41 H15        33.2316   48.6386   29.8291 H         1 9JS         0.1805
@<TRIPOS>BOND
     1    1    3 ar 
     2   14    1 ar 
     3   11    2 ar 
     4    2   22 ar 
     5    2   24 1  
     6    3    4 ar 
     7    3   18 1  
     8    4    6 1  
     9    4   16 ar 
    10    5   10 ar 
    11   21    5 1  
    12    5   23 ar 
    13    7    9 1  
    14   12    7 1  
    15    7   13 2  
    16    9    8 1  
    17    8   15 2  
    18    8   21 1  
    19    9   20 2  
    20   10   11 ar 
    21   12   14 1  
    22   13   19 1  
    23   14   17 ar 
    24   15   19 1  
    25   16   17 ar 
    26   22   23 ar 
    27   24   25 2  
    28   24   26 am 
    29    1   27 1  
    30    6   28 1  
    31    6   29 1  
    32    6   30 1  
    33   10   31 1  
    34   11   32 1  
    35   12   33 1  
    36   16   34 1  
    37   17   35 1  
    38   18   36 1  
    39   21   37 1  
    40   22   38 1  
    41   23   39 1  
    42   26   40 1  
    43   26   41 1  
@<TRIPOS>SUBSTRUCTURE
     1 9JS         1

