### 
### Created by X-TOOL on Wed Jan  1 15:39:36 2020
### 

@<TRIPOS>MOLECULE
5vyy_ligand
   46    48     1     0     0
SMALL
GAST_HUCK


@<TRIPOS>ATOM
      1 CAA        -3.9220  -35.1170    7.4240 C.3       1 9QY         0.0640
      2 CAF         1.9970  -29.9070    4.3410 C.ar      1 9QY        -0.0687
      3 CAG         1.9660  -30.9220    5.2890 C.ar      1 9QY        -0.0685
      4 CAH         1.8400  -30.2260    2.9900 C.ar      1 9QY        -0.0685
      5 CAI         1.5930  -36.3170    5.6310 C.2       1 9QY        -0.0364
      6 CAJ         1.8040  -32.2640    4.8910 C.ar      1 9QY        -0.0577
      7 CAK         1.6630  -31.5480    2.5950 C.ar      1 9QY        -0.0577
      8 CAL         2.1690  -35.4580    4.7780 C.2       1 9QY         0.0301
      9 CAM        -5.5380  -33.3480    2.0760 C.ar      1 9QY        -0.0048
     10 CAN        -1.3590  -35.1010    3.8770 C.3       1 9QY         0.0339
     11 CAO        -1.9060  -33.7280    4.2640 C.3       1 9QY        -0.0037
     12 CAP         1.4770  -33.9000    3.0160 C.3       1 9QY         0.0909
     13 CAS        -4.4360  -33.8550    5.5860 C.2       1 9QY         0.2442
     14 CAT         1.6340  -32.5830    3.5330 C.ar      1 9QY        -0.0128
     15 CAU        -4.3280  -33.2640    1.4000 C.ar      1 9QY         0.0927
     16 CAV        -5.5380  -33.5460    3.4410 C.ar      1 9QY         0.0967
     17 CAW        -3.1460  -33.3950    2.1300 C.ar      1 9QY         0.0633
     18 CAX         0.0380  -35.4040    4.4600 C.2       1 9QY         0.1180
     19 CAY        -3.1490  -33.5990    3.5250 C.ar      1 9QY        -0.0206
     20 CAZ        -4.3680  -33.6490    4.1950 C.ar      1 9QY         0.0814
     21 NAQ         0.2670  -36.2920    5.4310 N.2       1 9QY        -0.3386
     22 NBA         1.2100  -34.9010    4.0410 N.pl3     1 9QY        -0.2388
     23 OAB        -4.9450  -33.0360    6.3700 O.2       1 9QY        -0.3727
     24 OAC        -4.2400  -33.1340    0.0310 O.3       1 9QY        -0.3331
     25 OAD        -6.7290  -33.5870    4.0890 O.3       1 9QY        -0.3314
     26 OAR        -3.9470  -35.0550    5.9840 O.3       1 9QY        -0.2852
     27 CL         -1.6860  -33.2150    1.1990 Cl        1 9QY        -0.0937
     28 H1         -3.5246  -36.0921    7.7421 H         1 9QY         0.0574
     29 H2         -4.9428  -34.9921    7.8142 H         1 9QY         0.0574
     30 H3         -3.2794  -34.3142    7.8145 H         1 9QY         0.0574
     31 H4          2.1417  -28.8771    4.6467 H         1 9QY         0.0559
     32 H5          2.0670  -30.6803    6.3409 H         1 9QY         0.0599
     33 H6          1.8562  -29.4387    2.2451 H         1 9QY         0.0599
     34 H7          2.1142  -36.9318    6.3633 H         1 9QY         0.0408
     35 H8          1.8105  -33.0527    5.6346 H         1 9QY         0.0558
     36 H9          1.5457  -31.7789    1.5424 H         1 9QY         0.0558
     37 H10         3.2355  -35.2517    4.7012 H         1 9QY         0.0797
     38 H11        -6.4737  -33.2588    1.5361 H         1 9QY         0.0423
     39 H12        -1.2951  -35.1519    2.7801 H         1 9QY         0.0522
     40 H13        -2.0594  -35.8678    4.2395 H         1 9QY         0.0522
     41 H14        -1.2003  -32.9350    3.9757 H         1 9QY         0.0467
     42 H15        -2.0926  -33.6769    5.3468 H         1 9QY         0.0467
     43 H16         2.4015  -34.1795    2.4895 H         1 9QY         0.0782
     44 H17         0.6371  -33.8970    2.3057 H         1 9QY         0.0782
     45 H18        -5.1129  -33.0542   -0.3352 H         1 9QY         0.2502
     46 H19        -7.4345  -33.5067    3.4579 H         1 9QY         0.2508
@<TRIPOS>BOND
     1   26    1 1  
     2    3    2 ar 
     3    4    2 ar 
     4    6    3 ar 
     5    7    4 ar 
     6    5    8 2  
     7   21    5 1  
     8   14    6 ar 
     9   14    7 ar 
    10    8   22 1  
    11   15    9 ar 
    12    9   16 ar 
    13   10   11 1  
    14   18   10 1  
    15   11   19 1  
    16   12   14 1  
    17   22   12 1  
    18   20   13 1  
    19   13   23 2  
    20   13   26 1  
    21   17   15 ar 
    22   15   24 1  
    23   16   20 ar 
    24   16   25 1  
    25   19   17 ar 
    26   17   27 1  
    27   18   21 2  
    28   18   22 1  
    29   19   20 ar 
    30    1   28 1  
    31    1   29 1  
    32    1   30 1  
    33    2   31 1  
    34    3   32 1  
    35    4   33 1  
    36    5   34 1  
    37    6   35 1  
    38    7   36 1  
    39    8   37 1  
    40    9   38 1  
    41   10   39 1  
    42   10   40 1  
    43   11   41 1  
    44   11   42 1  
    45   12   43 1  
    46   12   44 1  
    47   24   45 1  
    48   25   46 1  
@<TRIPOS>SUBSTRUCTURE
     1 9QY         1

