### 
### Created by X-TOOL on Wed Jan  1 15:39:38 2020
### 

@<TRIPOS>MOLECULE
5w0e_ligand
   71    76     1     0     0
SMALL
GAST_HUCK


@<TRIPOS>ATOM
      1 C14         0.0490    3.1150    6.4670 C.3       1 9U4         0.0013
      2 C6         -5.1510    1.1700    4.5500 C.3       1 9U4         0.0466
      3 C7         -4.0590    1.8710    5.3410 C.3       1 9U4         0.0231
      4 C8         -2.7670    1.7090    4.6080 C.2       1 9U4         0.0630
      5 C9         -2.6570    1.4280    3.2790 C.2       1 9U4         0.0127
      6 C10        -1.2250    1.3680    3.0270 C.2       1 9U4         0.0984
      7 C13        -1.0750    2.0910    6.4750 C.3       1 9U4         0.0765
      8 N2         -6.0910    2.1790    1.1690 N.am      1 9U4        -0.2760
      9 C3         -6.1750    2.0500    2.4960 C.2       1 9U4         0.2606
     10 C1         -7.2270    2.6490    0.3980 C.3       1 9U4         0.0199
     11 C15         0.6160    3.2980    7.8560 C.3       1 9U4         0.0504
     12 C17        -0.0450    1.1540    8.5150 C.3       1 9U4         0.0504
     13 C18        -0.6170    0.8170    7.1600 C.3       1 9U4         0.0013
     14 C20        -0.9250    0.0350    0.9500 C.3       1 9U4         0.0419
     15 C21         0.2740   -0.3400    0.1230 C.3       1 9U4        -0.0229
     16 C22         0.6660    0.8080   -0.7670 C.3       1 9U4        -0.0237
     17 C23         0.7320    2.1070   -0.0040 C.ar      1 9U4        -0.0305
     18 C24         0.0280    2.3080    1.1900 C.ar      1 9U4         0.0509
     19 C25         0.0400    3.5610    1.7980 C.ar      1 9U4        -0.0426
     20 C26         0.7700    4.6200    1.2640 C.ar      1 9U4         0.0074
     21 C27         1.5020    4.4110    0.0880 C.ar      1 9U4        -0.0450
     22 C28         1.4710    3.1630   -0.5350 C.ar      1 9U4        -0.0753
     23 C29         2.3400    5.4750   -0.5160 C.2       1 9U4        -0.0123
     24 C30         2.0440    6.8320   -0.7410 C.2       1 9U4         0.0020
     25 C33         3.6230    5.3330   -0.9910 C.2       1 9U4         0.0566
     26 C34         5.2910    6.8940   -2.0320 C.3       1 9U4         0.0602
     27 C35         0.7340    5.9430    2.0210 C.3       1 9U4         0.2683
     28 C38        -3.8590    1.2520    2.3950 C.3       1 9U4         0.0498
     29 F36         0.2760    5.7290    3.2840 F         1 9U4        -0.1954
     30 F37        -0.1670    6.7850    1.4520 F         1 9U4        -0.1954
     31 N11        -0.5590    1.5760    4.1280 N.2       1 9U4        -0.2324
     32 N12        -1.5130    1.8000    5.0970 N.pl3     1 9U4        -0.2243
     33 N19        -0.6150    1.2040    1.7910 N.pl3     1 9U4        -0.2700
     34 N31         3.0550    7.4780   -1.2940 N.2       1 9U4        -0.2161
     35 N32         4.0090    6.5320   -1.4410 N.pl3     1 9U4        -0.2098
     36 N5         -5.0890    1.5350    3.1320 N.am      1 9U4        -0.2545
     37 O16         1.0520    2.0610    8.4070 O.3       1 9U4        -0.3796
     38 O4         -7.1850    2.3480    3.1140 O.2       1 9U4        -0.4006
     39 H1         -0.3425    4.0779    6.1073 H         1 9U4         0.0317
     40 H2          0.8474    2.7693    5.7939 H         1 9U4         0.0317
     41 H3         -6.1316    1.4618    4.9540 H         1 9U4         0.0544
     42 H4         -5.0235    0.0818    4.6472 H         1 9U4         0.0544
     43 H5         -3.9775    1.4206    6.3412 H         1 9U4         0.0467
     44 H6         -4.2991    2.9400    5.4386 H         1 9U4         0.0467
     45 H7         -1.9261    2.5062    7.0347 H         1 9U4         0.0653
     46 H8         -5.2369    1.9494    0.7024 H         1 9U4         0.1842
     47 H9         -6.9571    2.6851   -0.6678 H         1 9U4         0.0481
     48 H10        -7.5102    3.6558    0.7388 H         1 9U4         0.0481
     49 H11        -8.0748    1.9624    0.5384 H         1 9U4         0.0481
     50 H12        -0.1616    3.7249    8.5064 H         1 9U4         0.0561
     51 H13         1.4711    3.9881    7.8052 H         1 9U4         0.0561
     52 H14         0.3024    0.2283    8.9970 H         1 9U4         0.0561
     53 H15        -0.8313    1.6153    9.1306 H         1 9U4         0.0561
     54 H16         0.1546    0.3279    6.5473 H         1 9U4         0.0317
     55 H17        -1.4735    0.1376    7.2820 H         1 9U4         0.0317
     56 H18        -1.2025   -0.8128    1.5937 H         1 9U4         0.0555
     57 H19        -1.7649    0.2793    0.2830 H         1 9U4         0.0555
     58 H20         0.0292   -1.2146   -0.4976 H         1 9U4         0.0305
     59 H21         1.1134   -0.5868    0.7897 H         1 9U4         0.0305
     60 H22        -0.0771    0.9048   -1.5723 H         1 9U4         0.0390
     61 H23         1.6542    0.6000   -1.2030 H         1 9U4         0.0390
     62 H24        -0.5311    3.7152    2.7063 H         1 9U4         0.0439
     63 H25         2.0325    3.0116   -1.4498 H         1 9U4         0.0466
     64 H26         1.0917    7.2961   -0.4885 H         1 9U4         0.0660
     65 H27         4.2129    4.4176   -0.9992 H         1 9U4         0.0983
     66 H28         5.2846    7.9618   -2.2960 H         1 9U4         0.0605
     67 H29         5.4598    6.2934   -2.9379 H         1 9U4         0.0605
     68 H30         6.0963    6.7001   -1.3082 H         1 9U4         0.0605
     69 H31         1.7366    6.3953    2.0365 H         1 9U4         0.1169
     70 H32        -3.8885    0.2155    2.0280 H         1 9U4         0.0573
     71 H33        -3.7832    1.9413    1.5411 H         1 9U4         0.0573
@<TRIPOS>BOND
     1    7    1 1  
     2    1   11 1  
     3    3    2 1  
     4    2   36 1  
     5    4    3 1  
     6    5    4 2  
     7    4   32 1  
     8    6    5 1  
     9    5   28 1  
    10    6   31 2  
    11   33    6 1  
    12    7   13 1  
    13   32    7 1  
    14    9    8 am 
    15    8   10 1  
    16   36    9 am 
    17    9   38 2  
    18   11   37 1  
    19   13   12 1  
    20   12   37 1  
    21   14   15 1  
    22   14   33 1  
    23   15   16 1  
    24   16   17 1  
    25   17   18 ar 
    26   17   22 ar 
    27   18   19 ar 
    28   18   33 1  
    29   19   20 ar 
    30   20   21 ar 
    31   20   27 1  
    32   21   22 ar 
    33   21   23 1  
    34   23   24 1  
    35   23   25 2  
    36   24   34 2  
    37   25   35 1  
    38   35   26 1  
    39   27   29 1  
    40   27   30 1  
    41   28   36 1  
    42   31   32 1  
    43   34   35 1  
    44    1   39 1  
    45    1   40 1  
    46    2   41 1  
    47    2   42 1  
    48    3   43 1  
    49    3   44 1  
    50    7   45 1  
    51    8   46 1  
    52   10   47 1  
    53   10   48 1  
    54   10   49 1  
    55   11   50 1  
    56   11   51 1  
    57   12   52 1  
    58   12   53 1  
    59   13   54 1  
    60   13   55 1  
    61   14   56 1  
    62   14   57 1  
    63   15   58 1  
    64   15   59 1  
    65   16   60 1  
    66   16   61 1  
    67   19   62 1  
    68   22   63 1  
    69   24   64 1  
    70   25   65 1  
    71   26   66 1  
    72   26   67 1  
    73   26   68 1  
    74   27   69 1  
    75   28   70 1  
    76   28   71 1  
@<TRIPOS>SUBSTRUCTURE
     1 9U4         1

