### 
### Created by X-TOOL on Wed Jan  1 15:39:36 2020
### 

@<TRIPOS>MOLECULE
5w0f_ligand
   63    68     1     0     0
SMALL
GAST_HUCK


@<TRIPOS>ATOM
      1 C7          3.1370    1.7870   -4.3890 C.2       1 9U7         0.0632
      2 C9          1.7020    1.7790   -2.6910 C.2       1 9U7         0.0984
      3 C2          6.6480    1.8460   -2.4580 C.2       1 9U7         0.1763
      4 C6          4.3880    1.6950   -5.2020 C.3       1 9U7         0.0234
      5 C1          6.7640    2.2350   -1.0100 C.3       1 9U7         0.0259
      6 C12         1.5560    2.3950   -6.2480 C.3       1 9U7         0.0976
      7 C14         0.4450    1.4570   -6.7670 C.3       1 9U7         0.0034
      8 C15        -0.6700    2.4390   -7.2220 C.3       1 9U7         0.0507
      9 C17         0.8820    3.7780   -6.2600 C.3       1 9U7         0.0782
     10 C19         1.3770    0.5260   -0.5610 C.3       1 9U7         0.0420
     11 C20         0.0800    0.1800    0.1570 C.3       1 9U7        -0.0220
     12 C21        -0.3110    1.3720    1.0380 C.3       1 9U7        -0.0207
     13 C22        -0.3630    2.6620    0.2630 C.ar      1 9U7        -0.0241
     14 C23         0.3470    2.7790   -0.9210 C.ar      1 9U7         0.0570
     15 C24         0.2850    4.0010   -1.6060 C.ar      1 9U7        -0.0500
     16 C25        -0.4570    5.0670   -1.1250 C.ar      1 9U7        -0.0784
     17 C26        -1.1640    4.9540    0.0670 C.ar      1 9U7        -0.0535
     18 C27        -1.0990    3.7310    0.7550 C.ar      1 9U7        -0.0700
     19 C28        -1.9670    6.0920    0.6130 C.2       1 9U7        -0.0088
     20 C29        -2.8130    6.0180    1.7400 C.2       1 9U7         0.0035
     21 C32        -2.0420    7.3920    0.1540 C.2       1 9U7         0.0593
     22 C33        -3.2840    9.4810    0.8550 C.3       1 9U7         0.0607
     23 C34         4.2450    1.2190   -2.1570 C.3       1 9U7         0.0495
     24 C5          5.4450    0.9900   -4.3670 C.3       1 9U7         0.0462
     25 C8          3.0540    1.5860   -3.0390 C.2       1 9U7         0.0129
     26 N10         1.0270    2.0660   -3.7910 N.2       1 9U7        -0.2324
     27 N11         1.9150    2.0790   -4.8670 N.pl3     1 9U7        -0.2222
     28 N18         1.1190    1.7000   -1.4180 N.pl3     1 9U7        -0.2688
     29 N30        -3.3680    7.1890    1.9430 N.2       1 9U7        -0.2152
     30 N31        -2.9000    8.0660    0.9690 N.pl3     1 9U7        -0.2082
     31 N4          5.4740    1.3920   -2.9590 N.am      1 9U7        -0.2685
     32 O16        -0.5330    3.5570   -6.3260 O.3       1 9U7        -0.3766
     33 O3          7.6030    1.9690   -3.2310 O.2       1 9U7        -0.3971
     34 H1          4.7351    2.7045   -5.4673 H         1 9U7         0.0467
     35 H2          4.1944    1.1208   -6.1200 H         1 9U7         0.0467
     36 H3          7.7894    2.5749   -0.8027 H         1 9U7         0.0467
     37 H4          6.5307    1.3661   -0.3771 H         1 9U7         0.0467
     38 H5          6.0568    3.0486   -0.7911 H         1 9U7         0.0467
     39 H6          2.4453    2.3616   -6.8945 H         1 9U7         0.0676
     40 H7          0.0836    0.7942   -5.9670 H         1 9U7         0.0318
     41 H8          0.8042    0.8505   -7.6114 H         1 9U7         0.0318
     42 H9         -1.6632    1.9769   -7.1222 H         1 9U7         0.0561
     43 H10        -0.5143    2.7520   -8.2650 H         1 9U7         0.0561
     44 H11         1.2154    4.3526   -7.1367 H         1 9U7         0.0590
     45 H12         1.1353    4.3292   -5.3424 H         1 9U7         0.0590
     46 H13         1.7010   -0.3244   -1.1790 H         1 9U7         0.0555
     47 H14         2.1597    0.7643    0.1743 H         1 9U7         0.0555
     48 H15         0.2270   -0.7130    0.7823 H         1 9U7         0.0307
     49 H16        -0.7132   -0.0148   -0.5798 H         1 9U7         0.0307
     50 H17         0.4296    1.4736    1.8449 H         1 9U7         0.0402
     51 H18        -1.3030    1.1803    1.4728 H         1 9U7         0.0402
     52 H19         0.8315    4.1142   -2.5353 H         1 9U7         0.0498
     53 H20        -0.4868    5.9965   -1.6820 H         1 9U7         0.0494
     54 H21        -1.6353    3.6197    1.6905 H         1 9U7         0.0482
     55 H22        -2.9790    5.1285    2.3459 H         1 9U7         0.0666
     56 H23        -1.5117    7.8035   -0.7035 H         1 9U7         0.1005
     57 H24        -3.9921    9.7346    1.6577 H         1 9U7         0.0606
     58 H25        -3.7595    9.6544   -0.1216 H         1 9U7         0.0606
     59 H26        -2.3877   10.1125    0.9437 H         1 9U7         0.0606
     60 H27         4.1579    0.1732   -1.8274 H         1 9U7         0.0576
     61 H28         4.2765    1.8792   -1.2777 H         1 9U7         0.0576
     62 H29         6.4301    1.2057   -4.8062 H         1 9U7         0.0547
     63 H30         5.2527   -0.0921   -4.4115 H         1 9U7         0.0547
@<TRIPOS>BOND
     1    1    4 1  
     2   25    1 2  
     3    1   27 1  
     4   25    2 1  
     5    2   26 2  
     6    2   28 1  
     7    3    5 1  
     8   31    3 am 
     9    3   33 2  
    10    4   24 1  
    11    6    7 1  
    12    6    9 1  
    13   27    6 1  
    14    7    8 1  
    15   32    8 1  
    16    9   32 1  
    17   10   11 1  
    18   28   10 1  
    19   11   12 1  
    20   13   12 1  
    21   14   13 ar 
    22   13   18 ar 
    23   14   15 ar 
    24   28   14 1  
    25   15   16 ar 
    26   16   17 ar 
    27   18   17 ar 
    28   17   19 1  
    29   19   20 1  
    30   19   21 2  
    31   20   29 2  
    32   21   30 1  
    33   30   22 1  
    34   23   25 1  
    35   23   31 1  
    36   24   31 1  
    37   26   27 1  
    38   29   30 1  
    39    4   34 1  
    40    4   35 1  
    41    5   36 1  
    42    5   37 1  
    43    5   38 1  
    44    6   39 1  
    45    7   40 1  
    46    7   41 1  
    47    8   42 1  
    48    8   43 1  
    49    9   44 1  
    50    9   45 1  
    51   10   46 1  
    52   10   47 1  
    53   11   48 1  
    54   11   49 1  
    55   12   50 1  
    56   12   51 1  
    57   15   52 1  
    58   16   53 1  
    59   18   54 1  
    60   20   55 1  
    61   21   56 1  
    62   22   57 1  
    63   22   58 1  
    64   22   59 1  
    65   23   60 1  
    66   23   61 1  
    67   24   62 1  
    68   24   63 1  
@<TRIPOS>SUBSTRUCTURE
     1 9U7         1

