### 
### Created by X-TOOL on Wed Jan  1 15:39:35 2020
### 

@<TRIPOS>MOLECULE
5w0i_ligand
   66    71     1     0     0
SMALL
GAST_HUCK


@<TRIPOS>ATOM
      1 C14        -0.5240    2.1960   -7.1510 C.3       1 9UA         0.0507
      2 C5          5.5370    0.9380   -4.4500 C.3       1 9UA         0.0462
      3 C6          4.4900    1.7300   -5.1890 C.3       1 9UA         0.0234
      4 C7          3.2390    1.7830   -4.3710 C.2       1 9UA         0.0632
      5 C8          3.1700    1.4970   -3.0360 C.2       1 9UA         0.0129
      6 C9          1.8270    1.7030   -2.6750 C.2       1 9UA         0.0985
      7 C12         1.6520    2.5360   -6.1750 C.3       1 9UA         0.0976
      8 C13         0.7660    1.4310   -6.7810 C.3       1 9UA         0.0034
      9 C1          6.8260    2.1670   -1.0640 C.3       1 9UA         0.0259
     10 C16         0.7520    3.7810   -6.1400 C.3       1 9UA         0.0782
     11 C18         1.4770    0.3350   -0.6360 C.3       1 9UA         0.0419
     12 C19         0.1970   -0.0490    0.1150 C.3       1 9UA        -0.0229
     13 C2          6.7040    1.8480   -2.5440 C.2       1 9UA         0.1763
     14 C20        -0.2530    1.0880    1.0320 C.3       1 9UA        -0.0237
     15 C21        -0.3340    2.3900    0.2770 C.ar      1 9UA        -0.0305
     16 C22         0.4060    2.5760   -0.8900 C.ar      1 9UA         0.0509
     17 C23         0.3110    3.8130   -1.5250 C.ar      1 9UA        -0.0426
     18 C24        -0.4740    4.8290   -1.0520 C.ar      1 9UA         0.0074
     19 C25        -1.1960    4.6600    0.1210 C.ar      1 9UA        -0.0450
     20 C26        -1.1310    3.4180    0.7660 C.ar      1 9UA        -0.0753
     21 C27        -2.1010    5.7190    0.6610 C.2       1 9UA        -0.0123
     22 C28        -1.9600    7.1300    0.7410 C.2       1 9UA         0.0020
     23 C31        -3.3590    5.4620    1.1320 C.2       1 9UA         0.0566
     24 C32        -5.2630    6.7910    2.0810 C.3       1 9UA         0.0602
     25 C33        -0.5170    6.1330   -1.8240 C.3       1 9UA         0.2683
     26 C36         4.3790    1.0370   -2.1930 C.3       1 9UA         0.0495
     27 F34         0.0560    5.9190   -3.0770 F         1 9UA        -0.1954
     28 F35         0.2990    7.0800   -1.1870 F         1 9UA        -0.1954
     29 N10         1.1260    2.0790   -3.7400 N.2       1 9UA        -0.2323
     30 N11         2.0260    2.1500   -4.8050 N.pl3     1 9UA        -0.2222
     31 N17         1.2150    1.5600   -1.4230 N.pl3     1 9UA        -0.2700
     32 N29        -3.0430    7.6610    1.2400 N.2       1 9UA        -0.2161
     33 N30        -3.9320    6.6320    1.5100 N.pl3     1 9UA        -0.2098
     34 N4          5.5690    1.2930   -3.0330 N.am      1 9UA        -0.2685
     35 O15        -0.5940    3.2800   -6.1910 O.3       1 9UA        -0.3766
     36 O3          7.6550    2.0950   -3.2880 O.2       1 9UA        -0.3971
     37 H1         -1.4032    1.5409   -7.0618 H         1 9UA         0.0561
     38 H2         -0.4620    2.5889   -8.1765 H         1 9UA         0.0561
     39 H3          6.5221    1.1448   -4.8935 H         1 9UA         0.0547
     40 H4          5.3094   -0.1339   -4.5458 H         1 9UA         0.0547
     41 H5          4.2774    1.2468   -6.1540 H         1 9UA         0.0467
     42 H6          4.8579    2.7518   -5.3637 H         1 9UA         0.0467
     43 H7          2.5513    2.7105   -6.7839 H         1 9UA         0.0676
     44 H8          1.2356    0.9904   -7.6728 H         1 9UA         0.0318
     45 H9          0.5607    0.6392   -6.0456 H         1 9UA         0.0318
     46 H10         7.8134    2.6088   -0.8644 H         1 9UA         0.0467
     47 H11         6.7130    1.2423   -0.4790 H         1 9UA         0.0467
     48 H12         6.0400    2.8809   -0.7768 H         1 9UA         0.0467
     49 H13         0.9552    4.4274   -7.0066 H         1 9UA         0.0590
     50 H14         0.9164    4.3489   -5.2124 H         1 9UA         0.0590
     51 H15         1.7700   -0.4829   -1.3107 H         1 9UA         0.0555
     52 H16         2.2865    0.5239    0.0844 H         1 9UA         0.0555
     53 H17         0.3893   -0.9468    0.7208 H         1 9UA         0.0305
     54 H18        -0.5991   -0.2618   -0.6136 H         1 9UA         0.0305
     55 H19         0.4690    1.1937    1.8551 H         1 9UA         0.0390
     56 H20        -1.2448    0.8480    1.4428 H         1 9UA         0.0390
     57 H21         0.8827    3.9770   -2.4312 H         1 9UA         0.0439
     58 H22        -1.7144    3.2556    1.6650 H         1 9UA         0.0466
     59 H23        -1.0773    7.6875    0.4313 H         1 9UA         0.0660
     60 H24        -3.8243    4.4793    1.1935 H         1 9UA         0.0983
     61 H25        -5.4492    7.8556    2.2860 H         1 9UA         0.0605
     62 H26        -5.3304    6.2198    3.0187 H         1 9UA         0.0605
     63 H27        -6.0143    6.4177    1.3695 H         1 9UA         0.0605
     64 H28        -1.5513    6.4968   -1.9132 H         1 9UA         0.1169
     65 H29         4.2980   -0.0346   -1.9581 H         1 9UA         0.0576
     66 H30         4.4374    1.6140   -1.2583 H         1 9UA         0.0576
@<TRIPOS>BOND
     1    8    1 1  
     2   35    1 1  
     3    2    3 1  
     4   34    2 1  
     5    3    4 1  
     6    4    5 2  
     7    4   30 1  
     8    5    6 1  
     9    5   26 1  
    10    6   29 2  
    11    6   31 1  
    12    7    8 1  
    13    7   10 1  
    14   30    7 1  
    15   13    9 1  
    16   10   35 1  
    17   11   12 1  
    18   31   11 1  
    19   12   14 1  
    20   13   34 am 
    21   13   36 2  
    22   14   15 1  
    23   15   16 ar 
    24   15   20 ar 
    25   16   17 ar 
    26   16   31 1  
    27   17   18 ar 
    28   18   19 ar 
    29   18   25 1  
    30   19   20 ar 
    31   19   21 1  
    32   21   22 1  
    33   21   23 2  
    34   22   32 2  
    35   23   33 1  
    36   33   24 1  
    37   25   27 1  
    38   25   28 1  
    39   26   34 1  
    40   29   30 1  
    41   32   33 1  
    42    1   37 1  
    43    1   38 1  
    44    2   39 1  
    45    2   40 1  
    46    3   41 1  
    47    3   42 1  
    48    7   43 1  
    49    8   44 1  
    50    8   45 1  
    51    9   46 1  
    52    9   47 1  
    53    9   48 1  
    54   10   49 1  
    55   10   50 1  
    56   11   51 1  
    57   11   52 1  
    58   12   53 1  
    59   12   54 1  
    60   14   55 1  
    61   14   56 1  
    62   17   57 1  
    63   20   58 1  
    64   22   59 1  
    65   23   60 1  
    66   24   61 1  
    67   24   62 1  
    68   24   63 1  
    69   25   64 1  
    70   26   65 1  
    71   26   66 1  
@<TRIPOS>SUBSTRUCTURE
     1 9UA         1

