### 
### Created by X-TOOL on Wed Jan  1 15:39:36 2020
### 

@<TRIPOS>MOLECULE
5w0l_ligand
   69    74     1     0     0
SMALL
GAST_HUCK


@<TRIPOS>ATOM
      1 C4         -7.8950    5.6910  -40.3070 C.ar      1 9UD        -0.0450
      2 C5         -9.1620    5.6570  -39.7270 C.ar      1 9UD        -0.0753
      3 C6        -10.1650    4.8290  -40.2110 C.ar      1 9UD        -0.0305
      4 N1         -4.9630    7.5030  -38.9330 N.2       1 9UD        -0.2161
      5 C7         -9.9000    4.0240  -41.3240 C.ar      1 9UD         0.0509
      6 C8         -8.6380    4.0660  -41.9110 C.ar      1 9UD        -0.0426
      7 N2        -10.8990    3.1700  -41.8210 N.pl3     1 9UD        -0.2700
      8 C9         -7.6210    4.8800  -41.4160 C.ar      1 9UD         0.0074
      9 C10        -6.2660    4.7980  -42.1160 C.3       1 9UD         0.2683
     10 C11       -12.1440    2.9910  -41.0560 C.3       1 9UD         0.0419
     11 C12       -12.5930    4.2830  -40.4400 C.3       1 9UD        -0.0229
     12 N3        -10.5390    3.3520  -44.1990 N.2       1 9UD        -0.2324
     13 C13       -11.5160    4.8210  -39.5400 C.3       1 9UD        -0.0237
     14 C14       -10.7930    2.6440  -43.1150 C.2       1 9UD         0.0985
     15 C15       -10.1770    2.8740  -46.5930 C.3       1 9UD         0.0765
     16 N4        -10.4810    2.4280  -45.2190 N.pl3     1 9UD        -0.2243
     17 N          -5.9760    8.3890  -38.8320 N.pl3     1 9UD        -0.2098
     18 C          -5.7190    9.7140  -38.2790 C.3       1 9UD         0.0602
     19 O         -10.0040    5.0270  -48.4650 O.3       1 9UD        -0.3796
     20 C1         -7.1370    7.9060  -39.2880 C.2       1 9UD         0.0566
     21 C16        -9.0330    3.8780  -46.5780 C.3       1 9UD         0.0013
     22 C17        -8.8150    4.4310  -47.9610 C.3       1 9UD         0.0504
     23 C18       -11.0390    4.0460  -48.5850 C.3       1 9UD         0.0504
     24 C19       -11.4130    3.4820  -47.2380 C.3       1 9UD         0.0013
     25 C2         -6.8950    6.6270  -39.7280 C.2       1 9UD        -0.0123
     26 C20       -10.7030    1.1720  -44.7850 C.2       1 9UD         0.0631
     27 C21       -10.9200    1.2310  -43.4320 C.2       1 9UD         0.0129
     28 C22       -11.2400    0.0030  -42.6290 C.3       1 9UD         0.0495
     29 C23       -11.4500   -1.1470  -44.8400 C.3       1 9UD         0.0462
     30 C24       -10.6960   -0.0750  -45.6050 C.3       1 9UD         0.0234
     31 C25       -10.5120   -2.3630  -42.9950 C.2       1 9UD         0.1763
     32 C26       -10.2110   -2.4920  -41.5250 C.3       1 9UD         0.0259
     33 C3         -5.5180    6.4340  -39.4750 C.2       1 9UD         0.0020
     34 F          -6.4310    4.3060  -43.3720 F         1 9UD        -0.1954
     35 F1         -5.7550    6.0470  -42.2750 F         1 9UD        -0.1954
     36 N5        -11.0190   -1.1930  -43.4410 N.am      1 9UD        -0.2685
     37 O1        -10.2770   -3.2720  -43.7800 O.2       1 9UD        -0.3971
     38 H1         -9.3694    6.2944  -38.8751 H         1 9UD         0.0466
     39 H2         -8.4408    3.4471  -42.7788 H         1 9UD         0.0439
     40 H3         -5.5790    4.1655  -41.5347 H         1 9UD         0.1169
     41 H4        -11.9719    2.2538  -40.2579 H         1 9UD         0.0555
     42 H5        -12.9304    2.6233  -41.7315 H         1 9UD         0.0555
     43 H6        -13.5064    4.1091  -39.8523 H         1 9UD         0.0305
     44 H7        -12.8023    5.0133  -41.2355 H         1 9UD         0.0305
     45 H8        -11.7754    5.8508  -39.2534 H         1 9UD         0.0390
     46 H9        -11.4605    4.1925  -38.6390 H         1 9UD         0.0390
     47 H10        -9.8680    2.0000  -47.1852 H         1 9UD         0.0653
     48 H11        -6.6523   10.2962  -38.2733 H         1 9UD         0.0605
     49 H12        -4.9688   10.2298  -38.8964 H         1 9UD         0.0605
     50 H13        -5.3422    9.6152  -37.2503 H         1 9UD         0.0605
     51 H14        -8.0928    8.4275  -39.3069 H         1 9UD         0.0983
     52 H15        -8.1144    3.3785  -46.2365 H         1 9UD         0.0317
     53 H16        -9.2797    4.7012  -45.8913 H         1 9UD         0.0317
     54 H17        -8.0200    5.1903  -47.9235 H         1 9UD         0.0561
     55 H18        -8.5103    3.6137  -48.6312 H         1 9UD         0.0561
     56 H19       -10.6858    3.2286  -49.2309 H         1 9UD         0.0561
     57 H20       -11.9261    4.5135  -49.0372 H         1 9UD         0.0561
     58 H21       -11.8049    4.2861  -46.5979 H         1 9UD         0.0317
     59 H22       -12.1823    2.7059  -47.3643 H         1 9UD         0.0317
     60 H23       -12.2924    0.0388  -42.3111 H         1 9UD         0.0576
     61 H24       -10.5901   -0.0328  -41.7423 H         1 9UD         0.0576
     62 H25       -11.2595   -2.1243  -45.3076 H         1 9UD         0.0547
     63 H26       -12.5269   -0.9261  -44.8778 H         1 9UD         0.0547
     64 H27        -9.6599   -0.4006  -45.7795 H         1 9UD         0.0467
     65 H28       -11.1895    0.1108  -46.5704 H         1 9UD         0.0467
     66 H29        -9.8072   -3.4945  -41.3200 H         1 9UD         0.0467
     67 H30       -11.1351   -2.3438  -40.9471 H         1 9UD         0.0467
     68 H31        -9.4708   -1.7321  -41.2342 H         1 9UD         0.0467
     69 H32        -4.9794    5.5146  -39.6999 H         1 9UD         0.0660
@<TRIPOS>BOND
     1    2    1 ar 
     2    8    1 ar 
     3    1   25 1  
     4    3    2 ar 
     5    5    3 ar 
     6    3   13 1  
     7    4   17 1  
     8   33    4 2  
     9    5    6 ar 
    10    7    5 1  
    11    6    8 ar 
    12    7   10 1  
    13   14    7 1  
    14    8    9 1  
    15    9   34 1  
    16    9   35 1  
    17   10   11 1  
    18   11   13 1  
    19   14   12 2  
    20   16   12 1  
    21   27   14 1  
    22   16   15 1  
    23   15   21 1  
    24   15   24 1  
    25   26   16 1  
    26   17   18 1  
    27   20   17 1  
    28   22   19 1  
    29   23   19 1  
    30   25   20 2  
    31   21   22 1  
    32   24   23 1  
    33   25   33 1  
    34   27   26 2  
    35   30   26 1  
    36   28   27 1  
    37   36   28 1  
    38   29   30 1  
    39   36   29 1  
    40   31   32 1  
    41   31   36 am 
    42   31   37 2  
    43    2   38 1  
    44    6   39 1  
    45    9   40 1  
    46   10   41 1  
    47   10   42 1  
    48   11   43 1  
    49   11   44 1  
    50   13   45 1  
    51   13   46 1  
    52   15   47 1  
    53   18   48 1  
    54   18   49 1  
    55   18   50 1  
    56   20   51 1  
    57   21   52 1  
    58   21   53 1  
    59   22   54 1  
    60   22   55 1  
    61   23   56 1  
    62   23   57 1  
    63   24   58 1  
    64   24   59 1  
    65   28   60 1  
    66   28   61 1  
    67   29   62 1  
    68   29   63 1  
    69   30   64 1  
    70   30   65 1  
    71   32   66 1  
    72   32   67 1  
    73   32   68 1  
    74   33   69 1  
@<TRIPOS>SUBSTRUCTURE
     1 9UD         1

