### 
### Created by X-TOOL on Wed Jan  1 15:39:36 2020
### 

@<TRIPOS>MOLECULE
5w0q_ligand
   32    33     1     0     0
SMALL
GAST_HUCK


@<TRIPOS>ATOM
      1 C4         11.5350   24.9120   -5.4370 C.ar      1 9UG        -0.0556
      2 C5         12.9160   25.0000   -5.5420 C.ar      1 9UG         0.0928
      3 C6         13.7000   25.1500   -4.4020 C.ar      1 9UG         0.1071
      4 C7         13.0960   25.1900   -3.1560 C.ar      1 9UG        -0.0444
      5 C9         15.7040   25.4550   -5.7630 C.3       1 9UG         0.0996
      6 C10        14.7080   25.9460   -6.8290 C.3       1 9UG         0.0824
      7 C12        13.3830   24.1240   -7.7900 C.2       1 9UG         0.2849
      8 C3         10.9400   24.9510   -4.1880 C.ar      1 9UG        -0.0851
      9 C1         11.0760   25.1370   -1.6940 C.3       1 9UG        -0.0406
     10 C15        12.1860   22.2980   -8.8690 C.3       1 9UG         0.0203
     11 C16        16.8470   26.4620   -5.6170 C.3       1 9UG        -0.0324
     12 C2         11.7230   25.0900   -3.0550 C.ar      1 9UG        -0.0697
     13 N11        13.6110   24.9760   -6.7640 N.am      1 9UG        -0.2094
     14 N14        12.3990   23.2050   -7.7390 N.am      1 9UG        -0.2716
     15 O13        14.0860   24.1980   -8.7840 O.2       1 9UG        -0.3922
     16 O8         15.0580   25.2520   -4.4910 O.3       1 9UG        -0.3204
     17 H1         10.9258   24.8133   -6.3282 H         1 9UG         0.0450
     18 H2         13.7000   25.2996   -2.2626 H         1 9UG         0.0438
     19 H3         16.1223   24.4936   -6.0958 H         1 9UG         0.0666
     20 H4         15.1714   25.9456   -7.8266 H         1 9UG         0.0605
     21 H5         14.3491   26.9584   -6.5918 H         1 9UG         0.0605
     22 H6          9.8626   24.8728   -4.0972 H         1 9UG         0.0426
     23 H7         11.8522   25.2500   -0.9228 H         1 9UG         0.0361
     24 H8         10.5195   24.2043   -1.5201 H         1 9UG         0.0361
     25 H9         10.3844   25.9910   -1.6460 H         1 9UG         0.0361
     26 H10        11.3454   21.6247   -8.6453 H         1 9UG         0.0481
     27 H11        13.0961   21.7041   -9.0392 H         1 9UG         0.0481
     28 H12        11.9564   22.8839   -9.7712 H         1 9UG         0.0481
     29 H13        17.5547   26.1053   -4.8542 H         1 9UG         0.0259
     30 H14        16.4398   27.4372   -5.3118 H         1 9UG         0.0259
     31 H15        17.3682   26.5673   -6.5799 H         1 9UG         0.0259
     32 H16        11.8145   23.1423   -6.9301 H         1 9UG         0.1847
@<TRIPOS>BOND
     1    2    1 ar 
     2    1    8 ar 
     3    3    2 ar 
     4    2   13 1  
     5    3    4 ar 
     6   16    3 1  
     7    4   12 ar 
     8    5    6 1  
     9    5   11 1  
    10    5   16 1  
    11    6   13 1  
    12   13    7 am 
    13    7   14 am 
    14    7   15 2  
    15    8   12 ar 
    16   12    9 1  
    17   14   10 1  
    18    1   17 1  
    19    4   18 1  
    20    5   19 1  
    21    6   20 1  
    22    6   21 1  
    23    8   22 1  
    24    9   23 1  
    25    9   24 1  
    26    9   25 1  
    27   10   26 1  
    28   10   27 1  
    29   10   28 1  
    30   11   29 1  
    31   11   30 1  
    32   11   31 1  
    33   14   32 1  
@<TRIPOS>SUBSTRUCTURE
     1 9UG         1

