### 
### Created by X-TOOL on Mon Sep 10 21:13:31 2018
### 

@<TRIPOS>MOLECULE
5w1e_ligand
   15    15     1     0     0
SMALL
GAST_HUCK


@<TRIPOS>ATOM
      1 C1'         0.0280   71.0700   21.1380 C.2       1 PHB         0.0557
      2 O1'         0.8300   70.6370   20.2690 O.co2     1 PHB        -0.5636
      3 O2'        -1.0600   71.5930   20.7770 O.co2     1 PHB        -0.5636
      4 C1          0.3670   70.9580   22.6260 C.ar      1 PHB        -0.0010
      5 C2          1.5620   70.3820   23.0290 C.ar      1 PHB        -0.0562
      6 C3          1.8640   70.2820   24.3790 C.ar      1 PHB        -0.0294
      7 C4          0.9720   70.7560   25.3290 C.ar      1 PHB         0.0909
      8 C5         -0.2230   71.3300   24.9260 C.ar      1 PHB        -0.0294
      9 C6         -0.5240   71.4310   23.5770 C.ar      1 PHB        -0.0562
     10 O4          1.2760   70.6540   26.6940 O.3       1 PHB        -0.3310
     11 H1          2.2607   70.0096   22.2886 H         1 PHB         0.0623
     12 H2          2.7993   69.8323   24.6921 H         1 PHB         0.0551
     13 H3         -0.9229   71.7003   25.6664 H         1 PHB         0.0551
     14 H4         -1.4592   71.8813   23.2644 H         1 PHB         0.0623
     15 H5          0.6118   70.1306   27.1270 H         1 PHB         0.2493
@<TRIPOS>BOND
     1    1    2 ar 
     2    1    3 ar 
     3    1    4 1  
     4    4    5 ar 
     5    4    9 ar 
     6    5    6 ar 
     7    6    7 ar 
     8    7    8 ar 
     9    7   10 1  
    10    8    9 ar 
    11    5   11 1  
    12    6   12 1  
    13    8   13 1  
    14    9   14 1  
    15   10   15 1  
@<TRIPOS>SUBSTRUCTURE
     1 PHB         1

