### 
### Created by X-TOOL on Mon Aug  2 16:11:51 2021
### 

@<TRIPOS>MOLECULE
5w2p_ligand
   35    36     1     0     0
SMALL
GAST_HUCK


@<TRIPOS>ATOM
      1 N1         50.5740   -8.1870  -20.1330 N.2       1 MOL        -0.2153
      2 C4         46.9970   -6.6090  -17.7610 C.ar      1 MOL         0.0553
      3 C5         46.4250   -6.5700  -19.0400 C.ar      1 MOL        -0.0506
      4 C6         47.1750   -6.9640  -20.1290 C.ar      1 MOL        -0.0735
      5 C7         48.4950   -7.4160  -19.9430 C.ar      1 MOL        -0.0043
      6 C8         49.5000   -7.9000  -20.8480 C.2       1 MOL         0.0104
      7 C10        49.0540   -7.4590  -18.6800 C.ar      1 MOL         0.0731
      8 O1         47.7980   -4.8040  -15.1860 O.2       1 MOL        -0.1498
      9 S          46.6900   -5.7630  -15.1450 S.o2      1 MOL         0.0602
     10 O          45.5520   -5.0550  -14.5570 O.2       1 MOL        -0.1498
     11 C3         47.1390   -7.2450  -14.1880 C.3       1 MOL         0.0901
     12 C2         45.9330   -7.8810  -13.4930 C.3       1 MOL        -0.0316
     13 C1         46.3080   -9.2260  -12.8630 C.3       1 MOL        -0.0544
     14 C          45.1330   -9.8930  -12.1420 C.3       1 MOL        -0.0652
     15 N          46.1440   -6.1930  -16.6810 N.am      1 MOL        -0.1934
     16 C11        48.2970   -7.0510  -17.5510 C.ar      1 MOL        -0.0221
     17 N2         50.3240   -7.9240  -18.8260 N.pl3     1 MOL        -0.2121
     18 C9         51.2740   -8.1230  -17.7460 C.3       1 MOL         0.0531
     19 H1         45.4031   -6.2335  -19.1723 H         1 MOL         0.0445
     20 H2         46.7489   -6.9256  -21.1250 H         1 MOL         0.0570
     21 H3         49.3960   -8.0103  -21.9264 H         1 MOL         0.0693
     22 H4         47.8774   -6.9612  -13.4237 H         1 MOL         0.0524
     23 H5         47.5833   -7.9845  -14.8704 H         1 MOL         0.0524
     24 H6         45.1346   -8.0405  -14.2326 H         1 MOL         0.0281
     25 H7         45.5730   -7.2029  -12.7053 H         1 MOL         0.0281
     26 H8         47.1173   -9.0602  -12.1367 H         1 MOL         0.0263
     27 H9         46.6607   -9.8999  -13.6576 H         1 MOL         0.0263
     28 H10        45.4624  -10.8505  -11.7122 H         1 MOL         0.0230
     29 H11        44.3181  -10.0737  -12.8584 H         1 MOL         0.0230
     30 H12        44.7746   -9.2340  -11.3375 H         1 MOL         0.0230
     31 H13        45.1595   -6.1562  -16.8526 H         1 MOL         0.2163
     32 H14        48.7209   -7.0834  -16.5539 H         1 MOL         0.0381
     33 H15        50.8112   -7.8301  -16.7920 H         1 MOL         0.0573
     34 H16        52.1670   -7.5062  -17.9249 H         1 MOL         0.0573
     35 H17        51.5633   -9.1834  -17.7029 H         1 MOL         0.0573
@<TRIPOS>BOND
     1    1    6 2  
     2   17    1 1  
     3    2    3 ar 
     4   15    2 1  
     5    2   16 ar 
     6    3    4 ar 
     7    4    5 ar 
     8    5    6 1  
     9    7    5 ar 
    10   16    7 ar 
    11    7   17 1  
    12    9    8 2  
    13    9   10 2  
    14    9   11 1  
    15    9   15 am 
    16   11   12 1  
    17   12   13 1  
    18   13   14 1  
    19   17   18 1  
    20    3   19 1  
    21    4   20 1  
    22    6   21 1  
    23   11   22 1  
    24   11   23 1  
    25   12   24 1  
    26   12   25 1  
    27   13   26 1  
    28   13   27 1  
    29   14   28 1  
    30   14   29 1  
    31   14   30 1  
    32   15   31 1  
    33   16   32 1  
    34   18   33 1  
    35   18   34 1  
    36   18   35 1  
@<TRIPOS>SUBSTRUCTURE
     1 MOL         1

