### 
### Created by X-TOOL on Mon Aug  2 16:11:51 2021
### 

@<TRIPOS>MOLECULE
5w2q_ligand
   35    36     1     0     0
SMALL
GAST_HUCK


@<TRIPOS>ATOM
      1 N1         50.5590   -8.2120  -20.0850 N.2       1 MOL        -0.2153
      2 C4         46.9400   -6.6580  -17.7770 C.ar      1 MOL         0.0553
      3 C5         46.4050   -6.5730  -19.0660 C.ar      1 MOL        -0.0506
      4 C6         47.1690   -6.9530  -20.1570 C.ar      1 MOL        -0.0735
      5 C7         48.4800   -7.4270  -19.9450 C.ar      1 MOL        -0.0043
      6 C8         49.5110   -7.8880  -20.8250 C.2       1 MOL         0.0104
      7 C10        49.0070   -7.5090  -18.6690 C.ar      1 MOL         0.0731
      8 O1         47.7100   -4.8360  -15.2110 O.2       1 MOL        -0.1498
      9 S          46.5930   -5.7820  -15.1710 S.o2      1 MOL         0.0602
     10 O          45.4640   -5.0800  -14.5750 O.2       1 MOL        -0.1498
     11 C3         47.1090   -7.2150  -14.1720 C.3       1 MOL         0.0901
     12 C2         45.8910   -7.9540  -13.6230 C.3       1 MOL        -0.0316
     13 C1         46.3400   -9.1600  -12.7990 C.3       1 MOL        -0.0544
     14 C          45.1690   -9.9610  -12.2270 C.3       1 MOL        -0.0652
     15 N          46.0720   -6.2590  -16.6990 N.am      1 MOL        -0.1934
     16 C11        48.2310   -7.1230  -17.5460 C.ar      1 MOL        -0.0221
     17 N2         50.2660   -7.9840  -18.7840 N.pl3     1 MOL        -0.2121
     18 C9         51.1800   -8.2140  -17.6810 C.3       1 MOL         0.0531
     19 H1         45.3939   -6.2103  -19.2112 H         1 MOL         0.0445
     20 H2         46.7645   -6.8869  -21.1605 H         1 MOL         0.0570
     21 H3         49.4446   -7.9593  -21.9096 H         1 MOL         0.0693
     22 H4         47.7288   -6.8663  -13.3328 H         1 MOL         0.0524
     23 H5         47.6953   -7.9015  -14.8004 H         1 MOL         0.0524
     24 H6         45.2651   -8.2972  -14.4600 H         1 MOL         0.0281
     25 H7         45.3087   -7.2731  -12.9848 H         1 MOL         0.0281
     26 H8         46.9615   -8.8030  -11.9646 H         1 MOL         0.0263
     27 H9         46.9366   -9.8225  -13.4433 H         1 MOL         0.0263
     28 H10        45.5555  -10.8119  -11.6468 H         1 MOL         0.0230
     29 H11        44.5423  -10.3334  -13.0508 H         1 MOL         0.0230
     30 H12        44.5672   -9.3138  -11.5721 H         1 MOL         0.0230
     31 H13        45.0869   -6.2659  -16.8710 H         1 MOL         0.2163
     32 H14        48.6308   -7.1882  -16.5405 H         1 MOL         0.0381
     33 H15        50.6873   -7.9463  -16.7346 H         1 MOL         0.0573
     34 H16        52.0790   -7.5943  -17.8144 H         1 MOL         0.0573
     35 H17        51.4667   -9.2757  -17.6576 H         1 MOL         0.0573
@<TRIPOS>BOND
     1    1    6 2  
     2   17    1 1  
     3    2    3 ar 
     4   15    2 1  
     5    2   16 ar 
     6    3    4 ar 
     7    4    5 ar 
     8    5    6 1  
     9    7    5 ar 
    10   16    7 ar 
    11    7   17 1  
    12    9    8 2  
    13    9   10 2  
    14    9   11 1  
    15    9   15 am 
    16   11   12 1  
    17   12   13 1  
    18   13   14 1  
    19   17   18 1  
    20    3   19 1  
    21    4   20 1  
    22    6   21 1  
    23   11   22 1  
    24   11   23 1  
    25   12   24 1  
    26   12   25 1  
    27   13   26 1  
    28   13   27 1  
    29   14   28 1  
    30   14   29 1  
    31   14   30 1  
    32   15   31 1  
    33   16   32 1  
    34   18   33 1  
    35   18   34 1  
    36   18   35 1  
@<TRIPOS>SUBSTRUCTURE
     1 MOL         1

