### 
### Created by X-TOOL on Mon Aug  2 16:12:16 2021
### 

@<TRIPOS>MOLECULE
5w2s_ligand
   35    36     1     0     0
SMALL
GAST_HUCK


@<TRIPOS>ATOM
      1 C01        20.0360  -18.2440  -42.0440 C.3       1 KMG         0.0339
      2 C02        20.2430  -19.2150  -43.2030 C.2       1 KMG         0.1343
      3 C05        20.5850  -21.0740  -44.4060 C.ar      1 KMG        -0.0570
      4 C06        20.4480  -20.6390  -43.0980 C.ar      1 KMG         0.0325
      5 C07        20.5240  -21.5660  -42.0300 C.ar      1 KMG        -0.0263
      6 C08        20.7400  -22.9170  -42.3070 C.ar      1 KMG         0.0635
      7 C11        21.1560  -22.4060  -38.7440 C.3       1 KMG         0.0900
      8 C12        22.2680  -23.0970  -37.9620 C.3       1 KMG        -0.0316
      9 C13        23.2870  -22.1020  -37.4080 C.3       1 KMG        -0.0544
     10 C14        24.3580  -22.7920  -36.5670 C.3       1 KMG        -0.0652
     11 C17        20.8790  -23.3560  -43.6360 C.ar      1 KMG        -0.0458
     12 C18        20.8050  -22.4460  -44.6840 C.ar      1 KMG        -0.0798
     13 N03        20.2660  -18.8860  -44.4850 N.pl3     1 KMG        -0.2590
     14 N04        20.4720  -19.9940  -45.2070 N.2       1 KMG        -0.4061
     15 N09        20.8310  -23.8920  -41.2370 N.am      1 KMG        -0.1914
     16 O15        20.0820  -24.8930  -38.9650 O.2       1 KMG        -0.1499
     17 O16        18.7800  -23.1970  -39.7650 O.2       1 KMG        -0.1499
     18 S10        20.1780  -23.6230  -39.6820 S.o2      1 KMG         0.0601
     19 H1         19.9067  -17.2251  -42.4379 H         1 KMG         0.0591
     20 H2         20.9132  -18.2721  -41.3809 H         1 KMG         0.0591
     21 H3         19.1388  -18.5347  -41.4778 H         1 KMG         0.0591
     22 H4         20.4153  -21.2290  -41.0054 H         1 KMG         0.0496
     23 H5         21.6015  -21.6839  -39.4440 H         1 KMG         0.0524
     24 H6         20.4958  -21.8762  -38.0416 H         1 KMG         0.0524
     25 H7         22.7866  -23.8005  -38.6299 H         1 KMG         0.0281
     26 H8         21.8205  -23.6500  -37.1231 H         1 KMG         0.0281
     27 H9         22.7614  -21.3669  -36.7808 H         1 KMG         0.0263
     28 H10        23.7732  -21.5857  -38.2488 H         1 KMG         0.0263
     29 H11        25.0679  -22.0413  -36.1896 H         1 KMG         0.0230
     30 H12        24.8948  -23.5253  -37.1867 H         1 KMG         0.0230
     31 H13        23.8830  -23.3065  -35.7187 H         1 KMG         0.0230
     32 H14        21.0443  -24.4070  -43.8435 H         1 KMG         0.0481
     33 H15        20.9149  -22.7839  -45.7081 H         1 KMG         0.0568
     34 H16        20.1455  -17.9358  -44.8637 H         1 KMG         0.2718
     35 H17        21.2960  -24.7587  -41.4175 H         1 KMG         0.2159
@<TRIPOS>BOND
     1    2    1 1  
     2    4    2 2  
     3    2   13 1  
     4    4    3 ar 
     5   12    3 ar 
     6    3   14 2  
     7    5    4 ar 
     8    6    5 ar 
     9    6   11 ar 
    10   15    6 1  
    11    7    8 1  
    12   18    7 1  
    13    8    9 1  
    14    9   10 1  
    15   11   12 ar 
    16   14   13 1  
    17   15   18 am 
    18   18   16 2  
    19   18   17 2  
    20    1   19 1  
    21    1   20 1  
    22    1   21 1  
    23    5   22 1  
    24    7   23 1  
    25    7   24 1  
    26    8   25 1  
    27    8   26 1  
    28    9   27 1  
    29    9   28 1  
    30   10   29 1  
    31   10   30 1  
    32   10   31 1  
    33   11   32 1  
    34   12   33 1  
    35   13   34 1  
    36   15   35 1  
@<TRIPOS>SUBSTRUCTURE
     1 KMG         1

