### 
### Created by X-TOOL on Tue Oct 16 15:17:50 2018
### 

@<TRIPOS>MOLECULE
5w38_ligand
   77    79     1     0     0
SMALL
GAST_HUCK


@<TRIPOS>ATOM
      1 C1         49.2700    8.5820   19.8270 C.3       1 NAG         0.0736
      2 C2         47.7550    8.6410   19.8530 C.3       1 NAG         0.0936
      3 C3         47.2650    9.7790   20.6680 C.3       1 NAG         0.1088
      4 C4         47.8770    9.7960   22.0560 C.3       1 NAG         0.1179
      5 C5         49.3930    9.7810   21.9590 C.3       1 NAG         0.1104
      6 C6         50.0930    9.6580   23.2870 C.3       1 NAG         0.0729
      7 C7         46.8660    7.6170   17.7040 C.2       1 NAG         0.1733
      8 C8         46.4280    7.7860   16.2520 C.3       1 NAG         0.0257
      9 N2         47.3170    8.7890   18.4320 N.am      1 NAG        -0.2793
     10 O3         45.8240    9.7060   20.7270 O.3       1 NAG        -0.3868
     11 O4         47.5540   11.0000   22.7550 O.3       1 NAG        -0.3404
     12 O5         49.8240    8.6250   21.1960 O.3       1 NAG        -0.3693
     13 O6         49.6350    8.4730   23.8540 O.3       1 NAG        -0.3924
     14 O7         46.8400    6.5520   18.2330 O.2       1 NAG        -0.3974
     15 C1         46.4100   10.9010   23.6150 C.3       1 NAG         0.1854
     16 C2         46.4760   11.9510   24.7120 C.3       1 NAG         0.1210
     17 C3         45.2900   11.9190   25.6010 C.3       1 NAG         0.1114
     18 C4         43.9940   11.9110   24.8500 C.3       1 NAG         0.1181
     19 C5         43.9710   10.9150   23.6900 C.3       1 NAG         0.1134
     20 C6         42.7770   11.1900   22.8380 C.3       1 NAG         0.0730
     21 C7         48.8420   12.6000   25.4360 C.2       1 NAG         0.1733
     22 C8         50.0980   12.2720   26.2270 C.3       1 NAG         0.0257
     23 N2         47.7160   11.6720   25.4880 N.am      1 NAG        -0.2766
     24 O3         45.3500   13.1330   26.3880 O.3       1 NAG        -0.3867
     25 O4         42.9270   11.5700   25.7250 O.3       1 NAG        -0.3401
     26 O5         45.1500   11.0550   22.8370 O.3       1 NAG        -0.3408
     27 O6         42.8360   10.3440   21.7210 O.3       1 NAG        -0.3924
     28 O7         48.7790   13.6000   24.7830 O.2       1 NAG        -0.3974
     29 C1         42.4060   12.7150   26.4200 C.3       1 NAG         0.1884
     30 C2         40.8990   12.4870   26.5280 C.3       1 NAG         0.1341
     31 C3         40.2640   13.6000   27.3480 C.3       1 NAG         0.1141
     32 C4         40.9740   13.7630   28.6920 C.3       1 NAG         0.1119
     33 C5         42.5060   13.8940   28.4890 C.3       1 NAG         0.1130
     34 C6         43.3030   13.9050   29.7970 C.3       1 NAG         0.0730
     35 O2         40.6960   11.2730   27.2020 O.3       1 NAG        -0.3841
     36 O3         38.8450   13.4240   27.5350 O.3       1 NAG        -0.3864
     37 O4         40.4930   14.9320   29.3130 O.3       1 NAG        -0.3865
     38 O5         42.9990   12.7950   27.6750 O.3       1 NAG        -0.3405
     39 O6         42.9260   12.7930   30.5890 O.3       1 NAG        -0.3924
     40 H1         49.6539    9.4404   19.2563 H         1 NAG         0.0584
     41 H2         49.5855    7.6474   19.3403 H         1 NAG         0.0584
     42 H3         47.3555    7.7059   20.2724 H         1 NAG         0.0605
     43 H4         47.5481   10.7149   20.1641 H         1 NAG         0.0644
     44 H5         47.5194    8.9222   22.6205 H         1 NAG         0.0650
     45 H6         49.7180   10.7066   21.4614 H         1 NAG         0.0646
     46 H7         49.8413   10.5126   23.9322 H         1 NAG         0.0584
     47 H8         51.1826    9.6162   23.1422 H         1 NAG         0.0584
     48 H9         46.1177    6.8115   15.8469 H         1 NAG         0.0467
     49 H10        47.2671    8.1791   15.6592 H         1 NAG         0.0467
     50 H11        45.5835    8.4891   16.2032 H         1 NAG         0.0467
     51 H12        47.3344    9.6848   17.9879 H         1 NAG         0.1856
     52 H13        45.4887   10.4615   21.1952 H         1 NAG         0.2100
     53 H14        49.8516    7.7454   23.2827 H         1 NAG         0.2095
     54 H15        46.4120    9.9054   24.0827 H         1 NAG         0.0935
     55 H16        46.5420   12.9494   24.2550 H         1 NAG         0.0633
     56 H17        45.3378   11.0326   26.2506 H         1 NAG         0.0645
     57 H18        43.8256   12.9211   24.4484 H         1 NAG         0.0650
     58 H19        43.9238    9.8917   24.0907 H         1 NAG         0.0647
     59 H20        42.7857   12.2403   22.5113 H         1 NAG         0.0584
     60 H21        41.8578   10.9910   23.4085 H         1 NAG         0.0584
     61 H22        50.8427   13.0679   26.0791 H         1 NAG         0.0467
     62 H23        50.5112   11.3140   25.8784 H         1 NAG         0.0467
     63 H24        49.8491   12.1968   27.2958 H         1 NAG         0.0467
     64 H25        47.7778   10.8453   26.0473 H         1 NAG         0.1857
     65 H26        44.6200   13.1515   26.9957 H         1 NAG         0.2100
     66 H27        43.6333   10.5184   21.2348 H         1 NAG         0.2095
     67 H28        42.6110   13.6374   25.8568 H         1 NAG         0.0938
     68 H29        40.4476   12.4515   25.5255 H         1 NAG         0.0671
     69 H30        40.4024   14.5349   26.7852 H         1 NAG         0.0648
     70 H31        40.7630   12.8897   29.3267 H         1 NAG         0.0647
     71 H32        42.6954   14.8412   27.9628 H         1 NAG         0.0647
     72 H33        43.0930   14.8345   30.3465 H         1 NAG         0.0584
     73 H34        44.3781   13.8470   29.5718 H         1 NAG         0.0584
     74 H35        41.0871   10.5656   26.7027 H         1 NAG         0.2101
     75 H36        38.4886   14.1842   27.9795 H         1 NAG         0.2100
     76 H37        40.6809   15.6824   28.7616 H         1 NAG         0.2100
     77 H38        43.1077   11.9909   30.1136 H         1 NAG         0.2095
@<TRIPOS>BOND
     1    2    1 1  
     2   12    1 1  
     3    3    2 1  
     4    2    9 1  
     5    4    3 1  
     6    3   10 1  
     7    4    5 1  
     8   11    4 1  
     9    5    6 1  
    10    5   12 1  
    11    6   13 1  
    12    7    8 1  
    13    9    7 am 
    14    7   14 2  
    15   15   11 1  
    16   16   15 1  
    17   15   26 1  
    18   16   17 1  
    19   23   16 1  
    20   17   18 1  
    21   17   24 1  
    22   18   19 1  
    23   18   25 1  
    24   19   20 1  
    25   26   19 1  
    26   20   27 1  
    27   21   22 1  
    28   21   23 am 
    29   21   28 2  
    30   25   29 1  
    31   29   30 1  
    32   29   38 1  
    33   30   31 1  
    34   30   35 1  
    35   31   32 1  
    36   31   36 1  
    37   32   33 1  
    38   32   37 1  
    39   33   34 1  
    40   33   38 1  
    41   34   39 1  
    42    1   40 1  
    43    1   41 1  
    44    2   42 1  
    45    3   43 1  
    46    4   44 1  
    47    5   45 1  
    48    6   46 1  
    49    6   47 1  
    50    8   48 1  
    51    8   49 1  
    52    8   50 1  
    53    9   51 1  
    54   10   52 1  
    55   13   53 1  
    56   15   54 1  
    57   16   55 1  
    58   17   56 1  
    59   18   57 1  
    60   19   58 1  
    61   20   59 1  
    62   20   60 1  
    63   22   61 1  
    64   22   62 1  
    65   22   63 1  
    66   23   64 1  
    67   24   65 1  
    68   27   66 1  
    69   29   67 1  
    70   30   68 1  
    71   31   69 1  
    72   32   70 1  
    73   33   71 1  
    74   34   72 1  
    75   34   73 1  
    76   35   74 1  
    77   36   75 1  
    78   37   76 1  
    79   39   77 1  
@<TRIPOS>SUBSTRUCTURE
     1 NAG         1

