### 
### Created by X-TOOL on Mon Sep 10 21:13:31 2018
### 

@<TRIPOS>MOLECULE
5w3i_ligand
   54    56     1     0     0
SMALL
GAST_HUCK


@<TRIPOS>ATOM
      1 N          24.2340  -20.8930    9.4320 N.am      1 GY5        -0.2470
      2 C          25.3710  -17.5580    5.2430 C.ar      1 GY5        -0.0706
      3 O          26.4740  -21.1440    9.6780 O.2       1 GY5        -0.3937
      4 C01        22.7050  -19.5190    7.8630 C.2       1 GY5         0.1641
      5 C02        22.7020  -17.1420    7.7110 C.2       1 GY5         0.1060
      6 C03        22.0800  -17.2010    6.4830 C.2       1 GY5         0.1828
      7 C04        21.7220  -18.5350    5.8540 C.2       1 GY5         0.2603
      8 C05        23.1070  -15.8260    8.4430 C.2       1 GY5         0.2003
      9 C06        24.2320  -14.8750   10.5960 C.3       1 GY5         0.0533
     10 C07        22.2850  -20.6490   10.9140 C.3       1 GY5        -0.0274
     11 C08        21.8490  -21.1740    9.5490 C.3       1 GY5        -0.0084
     12 C09        23.0190  -20.8790    8.5690 C.3       1 GY5         0.1312
     13 C1         25.5750  -15.2530   11.3620 C.3       1 GY5         0.0673
     14 C10        23.8280  -20.5330   10.8160 C.3       1 GY5         0.0378
     15 C11        25.5730  -21.1760    8.9100 C.2       1 GY5         0.2123
     16 C12        25.7910  -21.5510    7.3190 C.3       1 GY5         0.1593
     17 C13        25.8150  -16.5950    6.1530 C.ar      1 GY5        -0.0729
     18 C14        26.5770  -17.0160    7.2350 C.ar      1 GY5        -0.0706
     19 C15        26.8870  -18.3730    7.3980 C.ar      1 GY5        -0.0329
     20 C16        26.4480  -19.3600    6.4860 C.ar      1 GY5         0.0943
     21 C17        25.6770  -18.9120    5.4030 C.ar      1 GY5        -0.0329
     22 N01        23.0120  -18.3590    8.4010 N.2       1 GY5        -0.3043
     23 N02        22.0870  -19.6620    6.6500 N.am      1 GY5        -0.1947
     24 N03        23.7420  -15.9740    9.7070 N.am      1 GY5        -0.2862
     25 O01        21.7490  -16.1510    5.7790 O.3       1 GY5        -0.3268
     26 O02        21.1730  -18.6860    4.7920 O.2       1 GY5        -0.3954
     27 O03        22.8910  -14.7500    7.9810 O.2       1 GY5        -0.3921
     28 O1         26.7510  -20.7150    6.6400 O.3       1 GY5        -0.2976
     29 O11        25.6350  -16.6530   11.6900 O.3       1 GY5        -0.3810
     30 C18        26.2920  -17.4910   10.7400 C.3       1 GY5         0.0365
     31 H1         24.7749  -17.2472    4.3926 H         1 GY5         0.0589
     32 H2         24.4177  -13.9821    9.9810 H         1 GY5         0.0541
     33 H3         23.4536  -14.6521   11.3406 H         1 GY5         0.0541
     34 H4         21.9986  -21.3523   11.7098 H         1 GY5         0.0288
     35 H5         21.8340  -19.6658   11.1137 H         1 GY5         0.0288
     36 H6         20.9360  -20.6580    9.2172 H         1 GY5         0.0321
     37 H7         21.6602  -22.2564    9.6006 H         1 GY5         0.0321
     38 H8         23.1041  -21.6651    7.8043 H         1 GY5         0.0845
     39 H9         25.6296  -14.6681   12.2920 H         1 GY5         0.0580
     40 H10        26.4323  -15.0020   10.7201 H         1 GY5         0.0580
     41 H11        24.1387  -19.5016   11.0388 H         1 GY5         0.0525
     42 H12        24.2994  -21.2210   11.5332 H         1 GY5         0.0525
     43 H13        24.8233  -21.4518    6.8055 H         1 GY5         0.0859
     44 H14        26.1352  -22.5938    7.2545 H         1 GY5         0.0859
     45 H15        25.5712  -15.5474    6.0180 H         1 GY5         0.0523
     46 H16        26.9340  -16.2910    7.9575 H         1 GY5         0.0589
     47 H17        27.4829  -18.6757    8.2514 H         1 GY5         0.0542
     48 H18        25.3119  -19.6294    4.6770 H         1 GY5         0.0542
     49 H19        21.8857  -20.5815    6.3123 H         1 GY5         0.2537
     50 H20        23.8746  -16.9092   10.0354 H         1 GY5         0.1839
     51 H21        22.0084  -15.3645    6.2444 H         1 GY5         0.2490
     52 H22        26.2758  -18.5317   11.0960 H         1 GY5         0.0523
     53 H23        27.3344  -17.1611   10.6190 H         1 GY5         0.0523
     54 H24        25.7723  -17.4263    9.7727 H         1 GY5         0.0523
@<TRIPOS>BOND
     1    1   12 1  
     2    1   14 1  
     3   15    1 am 
     4    2   17 ar 
     5   21    2 ar 
     6   15    3 2  
     7   12    4 1  
     8    4   22 2  
     9    4   23 1  
    10    5    6 2  
    11    5    8 1  
    12   22    5 1  
    13    7    6 1  
    14    6   25 1  
    15   23    7 am 
    16    7   26 2  
    17    8   24 am 
    18    8   27 2  
    19    9   13 1  
    20   24    9 1  
    21   10   11 1  
    22   14   10 1  
    23   12   11 1  
    24   13   29 1  
    25   16   15 1  
    26   28   16 1  
    27   18   17 ar 
    28   19   18 ar 
    29   20   19 ar 
    30   20   21 ar 
    31   20   28 1  
    32   29   30 1  
    33    2   31 1  
    34    9   32 1  
    35    9   33 1  
    36   10   34 1  
    37   10   35 1  
    38   11   36 1  
    39   11   37 1  
    40   12   38 1  
    41   13   39 1  
    42   13   40 1  
    43   14   41 1  
    44   14   42 1  
    45   16   43 1  
    46   16   44 1  
    47   17   45 1  
    48   18   46 1  
    49   19   47 1  
    50   21   48 1  
    51   23   49 1  
    52   24   50 1  
    53   25   51 1  
    54   30   52 1  
    55   30   53 1  
    56   30   54 1  
@<TRIPOS>SUBSTRUCTURE
     1 GY5         1

