### 
### Created by X-TOOL on Wed Jan  1 15:39:37 2020
### 

@<TRIPOS>MOLECULE
5w44_ligand
   56    59     1     0     0
SMALL
GAST_HUCK


@<TRIPOS>ATOM
      1 C01        -8.4920   79.9770   14.9900 C.2       1 GY6         0.1641
      2 C03        -9.8150   80.2900   16.8560 C.2       1 GY6         0.1060
      3 C04       -10.2240   78.9870   16.8270 C.2       1 GY6         0.1828
      4 C07        -9.7350   78.1250   15.8400 C.2       1 GY6         0.2603
      5 C11       -10.3100   81.2240   17.9320 C.2       1 GY6         0.2004
      6 C14        -9.9280   83.3360   19.0640 C.3       1 GY6         0.0395
      7 C17        -9.2770   84.6770   18.8480 C.3       1 GY6         0.0010
      8 C21        -5.9100   81.6140   15.3550 C.3       1 GY6        -0.0275
      9 C24        -6.0540   80.4230   14.4230 C.3       1 GY6        -0.0084
     10 C27        -7.5200   80.5540   13.9870 C.3       1 GY6         0.1307
     11 C30        -6.5830   82.7220   14.5670 C.3       1 GY6         0.0372
     12 C33        -8.6090   82.6230   13.1280 C.2       1 GY6         0.2108
     13 C35        -8.2570   86.8630   12.5290 C.ar      1 GY6        -0.0567
     14 C37        -9.0860   86.3870   13.5170 C.ar      1 GY6        -0.0422
     15 C39        -9.2010   85.0230   13.7120 C.ar      1 GY6         0.0609
     16 C41        -8.5000   84.1070   12.9280 C.ar      1 GY6         0.0776
     17 C42        -7.6670   84.6300   11.9400 C.ar      1 GY6         0.0609
     18 C44        -7.5450   85.9930   11.7360 C.ar      1 GY6        -0.0422
     19 C46        -5.1920   84.3610   17.5560 C.ar      1 GY6        -0.0687
     20 C48        -5.6820   83.4860   18.4980 C.ar      1 GY6        -0.0686
     21 C50        -6.9990   83.5820   18.9190 C.ar      1 GY6        -0.0603
     22 C52        -7.8370   84.5610   18.4060 C.ar      1 GY6        -0.0411
     23 C53        -7.3290   85.4310   17.4550 C.ar      1 GY6        -0.0603
     24 C55        -6.0120   85.3320   17.0350 C.ar      1 GY6        -0.0686
     25 N02        -8.9540   80.7830   15.9500 N.2       1 GY6        -0.3043
     26 N09        -8.8590   78.6660   14.9270 N.am      1 GY6        -0.1947
     27 N13        -9.8450   82.4730   17.8900 N.am      1 GY6        -0.2864
     28 N29        -7.6400   82.0140   13.8250 N.am      1 GY6        -0.2486
     29 O05       -11.0710   78.4470   17.7150 O.3       1 GY6        -0.3268
     30 O08       -10.0510   76.9320   15.7410 O.2       1 GY6        -0.3954
     31 O12       -11.0400   80.8140   18.8320 O.2       1 GY6        -0.3921
     32 O34        -9.5630   81.9960   12.6710 O.2       1 GY6        -0.3844
     33 CL2       -10.2590   84.4710   14.9730 Cl        1 GY6        -0.0647
     34 CL         -6.7550   83.5640   10.9160 Cl        1 GY6        -0.0647
     35 H1        -10.9884   83.4952   19.3092 H         1 GY6         0.0541
     36 H2         -9.4284   82.8339   19.9056 H         1 GY6         0.0541
     37 H3         -9.3111   85.2410   19.7918 H         1 GY6         0.0446
     38 H4         -9.8397   85.2211   18.0751 H         1 GY6         0.0446
     39 H5         -4.8517   81.8460   15.5448 H         1 GY6         0.0288
     40 H6         -6.4237   81.4363   16.3113 H         1 GY6         0.0288
     41 H7         -5.8747   79.4749   14.9512 H         1 GY6         0.0321
     42 H8         -5.3707   80.4993   13.5643 H         1 GY6         0.0321
     43 H9         -7.6819   80.0469   13.0244 H         1 GY6         0.0845
     44 H10        -5.8730   83.2036   13.8786 H         1 GY6         0.0524
     45 H11        -7.0128   83.4791   15.2394 H         1 GY6         0.0524
     46 H12        -8.1636   87.9317   12.3736 H         1 GY6         0.0652
     47 H13        -9.6457   87.0763   14.1389 H         1 GY6         0.0636
     48 H14        -6.8934   86.3725   10.9573 H         1 GY6         0.0636
     49 H15        -4.1623   84.2843   17.2261 H         1 GY6         0.0559
     50 H16        -5.0365   82.7198   18.9118 H         1 GY6         0.0599
     51 H17        -7.3782   82.8845   19.6571 H         1 GY6         0.0557
     52 H18        -7.9691   86.1981   17.0345 H         1 GY6         0.0557
     53 H19        -5.6279   86.0228   16.2932 H         1 GY6         0.0599
     54 H20        -8.4845   78.0861   14.2035 H         1 GY6         0.2537
     55 H21        -9.4358   82.8214   17.0467 H         1 GY6         0.1840
     56 H22       -11.3418   79.1117   18.3373 H         1 GY6         0.2490
@<TRIPOS>BOND
     1    1   10 1  
     2   25    1 2  
     3    1   26 1  
     4    2    3 2  
     5    5    2 1  
     6    2   25 1  
     7    3    4 1  
     8    3   29 1  
     9    4   26 am 
    10    4   30 2  
    11   27    5 am 
    12    5   31 2  
    13    7    6 1  
    14    6   27 1  
    15   22    7 1  
    16    9    8 1  
    17   11    8 1  
    18   10    9 1  
    19   10   28 1  
    20   28   11 1  
    21   12   16 1  
    22   28   12 am 
    23   12   32 2  
    24   14   13 ar 
    25   18   13 ar 
    26   15   14 ar 
    27   16   15 ar 
    28   15   33 1  
    29   16   17 ar 
    30   17   18 ar 
    31   17   34 1  
    32   20   19 ar 
    33   19   24 ar 
    34   21   20 ar 
    35   21   22 ar 
    36   22   23 ar 
    37   23   24 ar 
    38    6   35 1  
    39    6   36 1  
    40    7   37 1  
    41    7   38 1  
    42    8   39 1  
    43    8   40 1  
    44    9   41 1  
    45    9   42 1  
    46   10   43 1  
    47   11   44 1  
    48   11   45 1  
    49   13   46 1  
    50   14   47 1  
    51   18   48 1  
    52   19   49 1  
    53   20   50 1  
    54   21   51 1  
    55   23   52 1  
    56   24   53 1  
    57   26   54 1  
    58   27   55 1  
    59   29   56 1  
@<TRIPOS>SUBSTRUCTURE
     1 GY6         1

