### 
### Created by X-TOOL on Mon Sep 10 21:13:32 2018
### 

@<TRIPOS>MOLECULE
5w4r_ligand
   75    80     1     0     0
SMALL
GAST_HUCK


@<TRIPOS>ATOM
      1 C10       -31.6140    6.6300   -2.6500 C.ar      1 9WD         0.0530
      2 C11       -32.2740    7.6510   -3.5720 C.3       1 9WD         0.0198
      3 C12       -33.7920    7.6090   -3.5320 C.ar      1 9WD        -0.0375
      4 C13       -34.4690    6.5680   -2.8640 C.ar      1 9WD        -0.0613
      5 C14       -35.8770    6.5400   -2.8320 C.ar      1 9WD        -0.0306
      6 C15       -36.6310    7.5560   -3.4690 C.ar      1 9WD         0.1062
      7 C16       -35.9440    8.5960   -4.1360 C.ar      1 9WD        -0.0306
      8 C19       -40.1970    8.0260   -3.7940 C.2       1 9WD        -0.0478
      9 C20       -40.0220    6.9210   -2.9200 C.2       1 9WD        -0.0061
     10 C21       -28.6760    1.0560   -2.1250 C.3       1 9WD         0.0635
     11 C22       -29.6320   -0.0880   -1.8110 C.2       1 9WD         0.0557
     12 C24       -31.3660   -1.4290   -1.7950 C.2       1 9WD         0.1331
     13 C27       -27.8470   -0.3610   -4.1330 C.3       1 9WD        -0.0411
     14 C30       -27.0110    2.0420   -3.9290 C.3       1 9WD        -0.0411
     15 C31       -24.9190    0.1780   -5.9980 C.2       1 9WD         0.1753
     16 C01       -32.0830    8.3180    0.6130 C.3       1 9WD         0.0661
     17 O01       -32.0710    8.0770   -0.7900 O.3       1 9WD        -0.2941
     18 C02       -31.5370    6.8960   -1.2670 C.ar      1 9WD         0.1808
     19 N01       -30.9670    6.0430   -0.3860 N.ar      1 9WD        -0.2694
     20 C03       -30.4400    4.8820   -0.8350 C.ar      1 9WD         0.0424
     21 C04       -29.8450    3.9910    0.0810 C.ar      1 9WD        -0.0394
     22 C05       -29.2870    2.7740   -0.3470 C.ar      1 9WD        -0.0618
     23 C06       -29.3070    2.4030   -1.7090 C.ar      1 9WD        -0.0604
     24 C07       -29.9020    3.2990   -2.6310 C.ar      1 9WD        -0.0403
     25 C08       -30.4660    4.5250   -2.2080 C.ar      1 9WD         0.0273
     26 C09       -31.0650    5.4170   -3.1320 C.ar      1 9WD         0.0771
     27 CL        -31.1260    5.0350   -4.8230 Cl        1 9WD        -0.0578
     28 C17       -34.5370    8.6220   -4.1660 C.ar      1 9WD        -0.0613
     29 N02       -38.0530    7.5490   -3.4480 N.pl3     1 9WD        -0.1678
     30 C18       -38.9220    8.4020   -4.1070 C.2       1 9WD         0.0630
     31 N03       -38.7430    6.6380   -2.7150 N.2       1 9WD        -0.2076
     32 O02       -27.4800    0.8410   -1.3940 O.3       1 9WD        -0.4558
     33 C23       -29.4380   -1.1410   -0.9360 C.2       1 9WD         0.0239
     34 N04       -30.5410   -1.9910   -0.9240 N.2       1 9WD        -0.2666
     35 N05       -30.9100   -0.3050   -2.3650 N.pl3     1 9WD        -0.2393
     36 C25       -31.6610    0.4630   -3.3460 C.3       1 9WD         0.0513
     37 C26       -28.1840    1.0660   -3.6160 C.3       1 9WD        -0.0543
     38 C28       -27.3290   -0.3550   -5.5810 C.3       1 9WD         0.0329
     39 N         -26.1810    0.5520   -5.6770 N.am      1 9WD        -0.2735
     40 C29       -26.5630    1.9420   -5.3980 C.3       1 9WD         0.0329
     41 C         -24.6190   -1.2970   -6.2720 C.3       1 9WD         0.0258
     42 O         -23.9830    0.9800   -6.0690 O.2       1 9WD        -0.3972
     43 H1        -31.9470    7.4520   -4.6032 H         1 9WD         0.0575
     44 H2        -31.9452    8.6565   -3.2706 H         1 9WD         0.0575
     45 H3        -33.9029    5.7851   -2.3725 H         1 9WD         0.0547
     46 H4        -36.3874    5.7348   -2.3160 H         1 9WD         0.0575
     47 H5        -36.5061    9.3809   -4.6290 H         1 9WD         0.0575
     48 H6        -41.1307    8.4704   -4.1354 H         1 9WD         0.0343
     49 H7        -40.8450    6.3685   -2.4691 H         1 9WD         0.0654
     50 H8        -32.3426   -1.8493   -2.0304 H         1 9WD         0.1518
     51 H9        -28.7569   -0.9773   -4.0863 H         1 9WD         0.0274
     52 H10       -27.0743   -0.7983   -3.4836 H         1 9WD         0.0274
     53 H11       -26.1587    1.7949   -3.2790 H         1 9WD         0.0274
     54 H12       -27.3404    3.0717   -3.7263 H         1 9WD         0.0274
     55 H13       -32.5407    9.2981    0.8127 H         1 9WD         0.0590
     56 H14       -31.0516    8.3103    0.9952 H         1 9WD         0.0590
     57 H15       -32.6660    7.5319    1.1151 H         1 9WD         0.0590
     58 H16       -29.8173    4.2488    1.1335 H         1 9WD         0.0633
     59 H17       -28.8341    2.1098    0.3802 H         1 9WD         0.0687
     60 H18       -29.9255    3.0393   -3.6832 H         1 9WD         0.0858
     61 H19       -34.0238    9.4266   -4.6802 H         1 9WD         0.0547
     62 H20       -38.6389    9.2267   -4.7594 H         1 9WD         0.0991
     63 H21       -26.8683    1.5449   -1.5756 H         1 9WD         0.1835
     64 H22       -28.5412   -1.2864   -0.3356 H         1 9WD         0.0946
     65 H23       -31.0702    1.3370   -3.6577 H         1 9WD         0.0590
     66 H24       -32.6082    0.8008   -2.9002 H         1 9WD         0.0590
     67 H25       -31.8724   -0.1680   -4.2219 H         1 9WD         0.0590
     68 H26       -29.0403    1.4217   -4.2078 H         1 9WD         0.0147
     69 H27       -28.1268   -0.0118   -6.2560 H         1 9WD         0.0522
     70 H28       -27.0198   -1.3715   -5.8657 H         1 9WD         0.0522
     71 H29       -25.7017    2.6045   -5.5688 H         1 9WD         0.0522
     72 H30       -27.3906    2.2387   -6.0590 H         1 9WD         0.0522
     73 H31       -23.5527   -1.4153   -6.5150 H         1 9WD         0.0467
     74 H32       -25.2288   -1.6440   -7.1192 H         1 9WD         0.0467
     75 H33       -24.8597   -1.8922   -5.3788 H         1 9WD         0.0467
@<TRIPOS>BOND
     1    1    2 1  
     2    1   18 ar 
     3   26    1 ar 
     4    2    3 1  
     5    3    4 ar 
     6    3   28 ar 
     7    4    5 ar 
     8    5    6 ar 
     9    7    6 ar 
    10    6   29 1  
    11   28    7 ar 
    12    9    8 1  
    13   30    8 2  
    14   31    9 2  
    15   10   11 1  
    16   10   23 1  
    17   10   32 1  
    18   37   10 1  
    19   11   33 2  
    20   11   35 1  
    21   12   34 2  
    22   35   12 1  
    23   13   37 1  
    24   38   13 1  
    25   37   14 1  
    26   14   40 1  
    27   39   15 am 
    28   15   41 1  
    29   15   42 2  
    30   17   16 1  
    31   18   17 1  
    32   19   18 ar 
    33   20   19 ar 
    34   21   20 ar 
    35   25   20 ar 
    36   22   21 ar 
    37   23   22 ar 
    38   23   24 ar 
    39   24   25 ar 
    40   25   26 ar 
    41   26   27 1  
    42   29   30 1  
    43   29   31 1  
    44   33   34 1  
    45   35   36 1  
    46   38   39 1  
    47   39   40 1  
    48    2   43 1  
    49    2   44 1  
    50    4   45 1  
    51    5   46 1  
    52    7   47 1  
    53    8   48 1  
    54    9   49 1  
    55   12   50 1  
    56   13   51 1  
    57   13   52 1  
    58   14   53 1  
    59   14   54 1  
    60   16   55 1  
    61   16   56 1  
    62   16   57 1  
    63   21   58 1  
    64   22   59 1  
    65   24   60 1  
    66   28   61 1  
    67   30   62 1  
    68   32   63 1  
    69   33   64 1  
    70   36   65 1  
    71   36   66 1  
    72   36   67 1  
    73   37   68 1  
    74   38   69 1  
    75   38   70 1  
    76   40   71 1  
    77   40   72 1  
    78   41   73 1  
    79   41   74 1  
    80   41   75 1  
@<TRIPOS>SUBSTRUCTURE
     1 9WD         1

