### 
### Created by X-TOOL on Mon Sep 10 21:13:34 2018
### 

@<TRIPOS>MOLECULE
5w4v_ligand
   67    72     1     0     0
SMALL
GAST_HUCK


@<TRIPOS>ATOM
      1 C4          1.4730   14.5840  -16.2820 C.ar      1 9WA        -0.0636
      2 C16         1.6540   12.4610  -24.3300 C.ar      1 9WA        -0.0613
      3 C12         3.0950   11.9830  -22.5000 C.ar      1 9WA        -0.0613
      4 C26         0.1700   18.8420  -15.5250 C.ar      1 9WA        -0.0183
      5 C3          1.4210   13.2870  -16.7310 C.ar      1 9WA        -0.0401
      6 C15         2.7380   12.5670  -25.1650 C.ar      1 9WA        -0.0306
      7 C13         4.1820   12.0900  -23.3360 C.ar      1 9WA        -0.0306
      8 C27        -0.9510   19.3470  -14.9160 C.ar      1 9WA         0.0038
      9 C18         6.3700   12.6470  -27.2930 C.2       1 9WA        -0.0478
     10 C6          1.1270   15.3420  -18.5030 C.ar      1 9WA        -0.0429
     11 C19         7.1010   12.2600  -26.1430 C.2       1 9WA        -0.0061
     12 C29        -0.9990   16.8340  -15.8950 C.ar      1 9WA         0.0365
     13 C22         2.6900   17.3160  -14.4320 C.2       1 9WA         0.0206
     14 C17         5.0780   12.7800  -26.8410 C.2       1 9WA         0.0630
     15 C23         4.6740   17.2590  -15.1800 C.2       1 9WA         0.1315
     16 C7          1.0800   14.0380  -18.9440 C.ar      1 9WA         0.0257
     17 C11         1.8270   12.1700  -22.9980 C.ar      1 9WA        -0.0375
     18 C5          1.3190   15.6200  -17.1690 C.ar      1 9WA        -0.0620
     19 C25         0.1590   17.5620  -16.0280 C.ar      1 9WA        -0.0206
     20 C9          0.8410   12.4250  -20.6990 C.ar      1 9WA         0.0527
     21 C2          1.2260   12.9960  -18.0580 C.ar      1 9WA         0.0418
     22 C14         4.0060   12.3810  -24.6690 C.ar      1 9WA         0.1062
     23 C8          0.8840   13.7310  -20.2730 C.ar      1 9WA         0.0766
     24 C28        -2.0620   18.5440  -14.8310 C.ar      1 9WA         0.1322
     25 C21         2.5560   17.1560  -15.7940 C.2       1 9WA         0.0547
     26 C1          0.9960   11.4600  -19.7370 C.ar      1 9WA         0.1806
     27 C24         4.2420   16.9610  -17.6260 C.3       1 9WA         0.0512
     28 C           1.5100    9.3440  -19.1130 C.3       1 9WA         0.0660
     29 C10         0.6240   12.0590  -22.1260 C.3       1 9WA         0.0197
     30 C20         1.3880   17.0280  -16.6860 C.3       1 9WA         0.0914
     31 C30        -3.2800   19.0840  -14.1730 C.3       1 9WA         0.4022
     32 N3          4.0050   17.3820  -14.0570 N.2       1 9WA        -0.2698
     33 N5         -2.1050   17.2990  -15.3080 N.ar      1 9WA        -0.2544
     34 N2          6.3310   12.1600  -25.0570 N.2       1 9WA        -0.2076
     35 N           1.1840   11.7220  -18.4450 N.ar      1 9WA        -0.2698
     36 N1          5.1110   12.4810  -25.5090 N.pl3     1 9WA        -0.1678
     37 N4          3.8390   17.1200  -16.2490 N.pl3     1 9WA        -0.2407
     38 O1          1.6580   17.8420  -17.8160 O.3       1 9WA        -0.4592
     39 O           0.9480   10.1430  -20.1480 O.3       1 9WA        -0.2943
     40 F2         -2.9800   20.0390  -13.2520 F         1 9WA        -0.2100
     41 F          -4.1360   19.6620  -15.0570 F         1 9WA        -0.2100
     42 F1         -3.9930   18.1320  -13.5150 F         1 9WA        -0.2100
     43 CL          0.6930   14.9960  -21.4200 Cl        1 9WA        -0.0580
     44 H1          1.6352   14.7888  -15.2300 H         1 9WA         0.0677
     45 H2          0.6547   12.6078  -24.7237 H         1 9WA         0.0547
     46 H3          3.2377   11.7517  -21.4506 H         1 9WA         0.0547
     47 H4          1.0628   19.4509  -15.6096 H         1 9WA         0.0898
     48 H5          1.5365   12.4754  -16.0217 H         1 9WA         0.0633
     49 H6          2.5942   12.7972  -26.2145 H         1 9WA         0.0575
     50 H7          5.1816   11.9444  -22.9428 H         1 9WA         0.0575
     51 H8         -0.9596   20.3531  -14.5126 H         1 9WA         0.0973
     52 H9          6.7451   12.8033  -28.3033 H         1 9WA         0.0343
     53 H10         1.0120   16.1545  -19.2113 H         1 9WA         0.0839
     54 H11         8.1725   12.0656  -26.1446 H         1 9WA         0.0654
     55 H12        -1.0158   15.8243  -16.2891 H         1 9WA         0.1007
     56 H13         1.8526   17.3819  -13.7389 H         1 9WA         0.0916
     57 H14         4.2055   13.0658  -27.4266 H         1 9WA         0.0991
     58 H15         5.7608   17.2670  -15.2491 H         1 9WA         0.1504
     59 H16         5.3401   16.9691  -17.6899 H         1 9WA         0.0590
     60 H17         3.8337   17.7880  -18.2254 H         1 9WA         0.0590
     61 H18         3.8594   16.0047  -18.0120 H         1 9WA         0.0590
     62 H19         1.4856    8.2858  -19.4125 H         1 9WA         0.0590
     63 H20         0.9273    9.4772  -18.1896 H         1 9WA         0.0590
     64 H21         2.5514    9.6513  -18.9370 H         1 9WA         0.0590
     65 H22         0.2731   11.0170  -22.1607 H         1 9WA         0.0575
     66 H23        -0.1540   12.7217  -22.5330 H         1 9WA         0.0575
     67 H24         2.4378   17.5236  -18.2552 H         1 9WA         0.1812
@<TRIPOS>BOND
     1    1    5 ar 
     2   18    1 ar 
     3    2    6 ar 
     4   17    2 ar 
     5    3    7 ar 
     6   17    3 ar 
     7    4    8 ar 
     8   19    4 ar 
     9    5   21 ar 
    10    6   22 ar 
    11    7   22 ar 
    12    8   24 ar 
    13    9   11 1  
    14   14    9 2  
    15   10   16 ar 
    16   18   10 ar 
    17   11   34 2  
    18   19   12 ar 
    19   12   33 ar 
    20   25   13 2  
    21   13   32 1  
    22   36   14 1  
    23   32   15 2  
    24   15   37 1  
    25   16   21 ar 
    26   16   23 ar 
    27   29   17 1  
    28   30   18 1  
    29   30   19 1  
    30   23   20 ar 
    31   20   26 ar 
    32   20   29 1  
    33   21   35 ar 
    34   22   36 1  
    35   23   43 1  
    36   24   31 1  
    37   33   24 ar 
    38   25   30 1  
    39   25   37 1  
    40   26   35 ar 
    41   26   39 1  
    42   37   27 1  
    43   39   28 1  
    44   30   38 1  
    45   31   40 1  
    46   31   41 1  
    47   31   42 1  
    48   34   36 1  
    49    1   44 1  
    50    2   45 1  
    51    3   46 1  
    52    4   47 1  
    53    5   48 1  
    54    6   49 1  
    55    7   50 1  
    56    8   51 1  
    57    9   52 1  
    58   10   53 1  
    59   11   54 1  
    60   12   55 1  
    61   13   56 1  
    62   14   57 1  
    63   15   58 1  
    64   27   59 1  
    65   27   60 1  
    66   27   61 1  
    67   28   62 1  
    68   28   63 1  
    69   28   64 1  
    70   29   65 1  
    71   29   66 1  
    72   38   67 1  
@<TRIPOS>SUBSTRUCTURE
     1 9WA         1

