### 
### Created by X-TOOL on Mon Sep 10 21:13:32 2018
### 

@<TRIPOS>MOLECULE
5w4w_ligand
   39    42     1     0     0
SMALL
GAST_HUCK


@<TRIPOS>ATOM
      1 C4         51.3930   92.6500  117.7890 C.2       1 9WG         0.0215
      2 N2         52.4630   93.4170  116.0500 N.pl3     1 9WG        -0.2012
      3 C7         49.0620   93.5820  116.9720 C.ar      1 9WG        -0.0150
      4 C9         47.1090   94.2330  118.2480 C.ar      1 9WG        -0.0277
      5 C20        53.1040   92.9190  120.5290 C.2       1 9WG         0.2068
      6 C8         48.4670   93.9580  118.1770 C.ar      1 9WG        -0.0558
      7 C18        51.6180   91.2410  121.3260 C.ar      1 9WG         0.0621
      8 C16        49.7150   90.4430  120.3060 C.ar      1 9WG        -0.0011
      9 C19        51.9360   92.0480  120.1930 C.ar      1 9WG         0.0771
     10 C1         53.4840   93.7610  115.0690 C.3       1 9WG         0.0631
     11 C3         52.6280   92.7470  117.1970 C.2       1 9WG         0.0723
     12 C5         50.5160   93.3200  116.8850 C.2       1 9WG         0.0510
     13 N6         51.1750   93.7800  115.8250 N.2       1 9WG        -0.2044
     14 C10        46.3620   94.1040  117.1050 C.ar      1 9WG         0.1326
     15 C11        46.9040   93.7490  115.8930 C.ar      1 9WG        -0.0277
     16 C12        48.2620   93.4840  115.8340 C.ar      1 9WG        -0.0558
     17 F13        45.0130   94.2620  117.1920 F         1 9WG        -0.1831
     18 C14        51.0800   91.9640  119.0720 C.ar      1 9WG        -0.0036
     19 C15        49.9480   91.1530  119.1450 C.ar      1 9WG        -0.0383
     20 N17        50.5250   90.4640  121.3770 N.ar      1 9WG        -0.2993
     21 O21        53.5810   93.8380  119.8860 O.2       1 9WG        -0.3890
     22 N22        53.5310   92.5170  121.7620 N.am      1 9WG        -0.2624
     23 C23        52.7150   91.4410  122.3190 C.3       1 9WG         0.0832
     24 C24        54.6850   93.0630  122.4630 C.3       1 9WG         0.0245
     25 H1         46.6511   94.5413  119.1809 H         1 9WG         0.0605
     26 H2         49.0750   94.0364  119.0710 H         1 9WG         0.0610
     27 H3         48.8223   89.8302  120.3562 H         1 9WG         0.0809
     28 H4         54.4616   93.3915  115.4123 H         1 9WG         0.0612
     29 H5         53.5259   94.8539  114.9512 H         1 9WG         0.0612
     30 H6         53.2354   93.2973  114.1030 H         1 9WG         0.0612
     31 H7         53.5653   92.3530  117.5871 H         1 9WG         0.1097
     32 H8         46.2846   93.6783  115.0062 H         1 9WG         0.0605
     33 H9         48.7096   93.1962  114.8896 H         1 9WG         0.0610
     34 H10        49.2644   91.0814  118.3068 H         1 9WG         0.0616
     35 H11        53.3092   90.5220  122.4303 H         1 9WG         0.0726
     36 H12        52.3042   91.7327  123.2968 H         1 9WG         0.0726
     37 H13        55.1407   93.8585  121.8550 H         1 9WG         0.0487
     38 H14        55.4219   92.2644  122.6338 H         1 9WG         0.0487
     39 H15        54.3640   93.4786  123.4296 H         1 9WG         0.0487
@<TRIPOS>BOND
     1    1   11 2  
     2    1   12 1  
     3   18    1 1  
     4    2   10 1  
     5   11    2 1  
     6    2   13 1  
     7    3    6 ar 
     8   12    3 1  
     9    3   16 ar 
    10    6    4 ar 
    11    4   14 ar 
    12    9    5 1  
    13    5   21 2  
    14    5   22 am 
    15    9    7 ar 
    16    7   20 ar 
    17    7   23 1  
    18    8   19 ar 
    19   20    8 ar 
    20    9   18 ar 
    21   12   13 2  
    22   14   15 ar 
    23   14   17 1  
    24   15   16 ar 
    25   18   19 ar 
    26   22   23 1  
    27   22   24 1  
    28    4   25 1  
    29    6   26 1  
    30    8   27 1  
    31   10   28 1  
    32   10   29 1  
    33   10   30 1  
    34   11   31 1  
    35   15   32 1  
    36   16   33 1  
    37   19   34 1  
    38   23   35 1  
    39   23   36 1  
    40   24   37 1  
    41   24   38 1  
    42   24   39 1  
@<TRIPOS>SUBSTRUCTURE
     1 9WG         1

