### 
### Created by X-TOOL on Mon Sep 10 21:13:34 2018
### 

@<TRIPOS>MOLECULE
5w5j_ligand
   29    31     1     0     0
SMALL
GAST_HUCK


@<TRIPOS>ATOM
      1 C1        -19.9130    4.1540  -19.6010 C.2       1 9WS         0.0627
      2 C2        -20.9020    4.9440  -20.0420 C.2       1 9WS         0.1190
      3 C3        -18.5770    3.9250  -20.1970 C.2       1 9WS         0.1977
      4 C12       -16.1740    1.3770  -20.8030 C.ar      1 9WS         0.0592
      5 C13       -22.1010    6.4970  -21.4240 C.2       1 9WS        -0.0567
      6 C14       -23.1970    6.3440  -20.4510 C.2       1 9WS        -0.0192
      7 C16       -15.5810    3.6940  -20.4510 C.ar      1 9WS        -0.0408
      8 C17       -14.9120    1.1390  -21.3550 C.ar      1 9WS        -0.0616
      9 C18       -14.3190    3.4560  -21.0030 C.ar      1 9WS        -0.0754
     10 C19       -13.9830    2.1780  -21.4560 C.ar      1 9WS        -0.0767
     11 N4        -21.9250    4.8710  -19.2330 N.pl3     1 9WS        -0.1516
     12 N5        -21.6240    4.0200  -18.2310 N.2       1 9WS        -0.2095
     13 C6        -20.4550    3.5520  -18.3710 C.2       1 9WS        -0.0003
     14 N7        -17.8000    2.8930  -19.7880 N.am      1 9WS        -0.2400
     15 C8        -16.5150    2.6570  -20.3480 C.ar      1 9WS         0.0788
     16 C9        -20.9690    5.8130  -21.2330 C.2       1 9WS        -0.0219
     17 C10       -23.0390    5.5290  -19.4000 C.2       1 9WS         0.1010
     18 O11       -18.2040    4.6960  -21.0650 O.2       1 9WS        -0.3982
     19 CL15      -17.3240    0.0590  -20.6860 Cl        1 9WS        -0.0831
     20 H1        -22.2116    7.1561  -22.2838 H         1 9WS         0.0661
     21 H2        -24.1295    6.8901  -20.5856 H         1 9WS         0.0582
     22 H3        -15.8376    4.6873  -20.1008 H         1 9WS         0.0502
     23 H4        -14.6534    0.1463  -21.7055 H         1 9WS         0.0583
     24 H5        -13.6004    4.2639  -21.0796 H         1 9WS         0.0579
     25 H6        -13.0047    1.9928  -21.8845 H         1 9WS         0.0488
     26 H7        -19.9513    2.8454  -17.7130 H         1 9WS         0.0679
     27 H8        -18.1395    2.2813  -19.0734 H         1 9WS         0.2241
     28 H9        -20.1326    5.8933  -21.9258 H         1 9WS         0.0605
     29 H10       -23.8471    5.4147  -18.6790 H         1 9WS         0.1246
@<TRIPOS>BOND
     1    1    2 2  
     2    3    1 1  
     3    1   13 1  
     4    2   11 1  
     5    2   16 1  
     6   14    3 am 
     7    3   18 2  
     8    4    8 ar 
     9   15    4 ar 
    10    4   19 1  
    11    5    6 1  
    12   16    5 2  
    13   17    6 2  
    14    7    9 ar 
    15   15    7 ar 
    16    8   10 ar 
    17    9   10 ar 
    18   12   11 1  
    19   11   17 1  
    20   13   12 2  
    21   14   15 1  
    22    5   20 1  
    23    6   21 1  
    24    7   22 1  
    25    8   23 1  
    26    9   24 1  
    27   10   25 1  
    28   13   26 1  
    29   14   27 1  
    30   16   28 1  
    31   17   29 1  
@<TRIPOS>SUBSTRUCTURE
     1 9WS         1

