### 
### Created by X-TOOL on Mon Aug  2 16:12:16 2021
### 

@<TRIPOS>MOLECULE
5w5k_ligand
   40    43     1     0     0
SMALL
GAST_HUCK


@<TRIPOS>ATOM
      1 C02       -36.3330   -4.4120   19.7840 C.2       1 K70         0.2227
      2 C05       -36.8600   -3.3030   20.7230 C.ar      1 K70         0.0444
      3 C06       -36.3150   -1.9910   20.6830 C.ar      1 K70        -0.0485
      4 C07       -36.7930   -0.9530   21.5440 C.ar      1 K70        -0.0522
      5 C08       -37.8350   -1.1840   22.4780 C.ar      1 K70        -0.0127
      6 C09       -38.3500   -0.0500   23.4060 C.3       1 K70         0.0807
      7 C11       -38.7640    1.7400   21.7120 C.ar      1 K70         0.0808
      8 C12       -40.0770    1.1740   21.4850 C.ar      1 K70        -0.0439
      9 C13       -40.8510    1.5080   20.3420 C.ar      1 K70        -0.0789
     10 C14       -40.3310    2.4160   19.3930 C.ar      1 K70        -0.0797
     11 C15       -39.0330    2.9900   19.5910 C.ar      1 K70        -0.0572
     12 C16       -38.2610    2.6440   20.7520 C.ar      1 K70         0.0533
     13 C18       -36.0890    2.8860   22.8450 C.ar      1 K70         0.0793
     14 C19       -34.9570    3.4380   23.5330 C.ar      1 K70        -0.0390
     15 C20       -34.6820    3.0240   24.8780 C.ar      1 K70        -0.0542
     16 C21       -35.5460    2.0720   25.4800 C.ar      1 K70        -0.0113
     17 C23       -36.9130    1.9400   23.5010 C.ar      1 K70         0.1513
     18 C24       -38.3860   -2.4940   22.5180 C.ar      1 K70        -0.0522
     19 C25       -37.9040   -3.5300   21.6560 C.ar      1 K70        -0.0485
     20 N03       -35.2240   -4.2340   18.9140 N.am      1 K70        -0.1643
     21 N10       -38.0510    1.3420   22.9000 N.pl3     1 K70        -0.2366
     22 N22       -36.6140    1.5570   24.8140 N.ar      1 K70        -0.2888
     23 O01       -36.9180   -5.5280   19.7860 O.2       1 K70        -0.3881
     24 O04       -34.8190   -5.3080   18.0870 O.3       1 K70        -0.2721
     25 S17       -36.5850    3.3040   21.1370 S.3       1 K70        -0.0465
     26 H1        -35.5173   -1.7712   19.9827 H         1 K70         0.0651
     27 H2        -36.3481    0.0335   21.4809 H         1 K70         0.0570
     28 H3        -37.8771   -0.1685   24.3921 H         1 K70         0.0737
     29 H4        -39.4403   -0.1543   23.5073 H         1 K70         0.0737
     30 H5        -40.4811    0.4750   22.2084 H         1 K70         0.0507
     31 H6        -41.8322    1.0700   20.1991 H         1 K70         0.0531
     32 H7        -40.9127    2.6781   18.5167 H         1 K70         0.0498
     33 H8        -38.6329    3.6867   18.8633 H         1 K70         0.0531
     34 H9        -34.3163    4.1607   23.0408 H         1 K70         0.0636
     35 H10       -33.8355    3.4279   25.4215 H         1 K70         0.0583
     36 H11       -35.3496    1.7476   26.4955 H         1 K70         0.0717
     37 H12       -39.1869   -2.7125   23.2150 H         1 K70         0.0570
     38 H13       -38.3495   -4.5163   21.7180 H         1 K70         0.0651
     39 H14       -34.7363   -3.3614   18.8866 H         1 K70         0.2210
     40 H15       -34.0709   -5.0405   17.5661 H         1 K70         0.2491
@<TRIPOS>BOND
     1    2    1 1  
     2    1   20 am 
     3    1   23 2  
     4    3    2 ar 
     5    2   19 ar 
     6    4    3 ar 
     7    5    4 ar 
     8    6    5 1  
     9    5   18 ar 
    10   21    6 1  
    11    7    8 ar 
    12   12    7 ar 
    13    7   21 1  
    14    8    9 ar 
    15   10    9 ar 
    16   11   10 ar 
    17   12   11 ar 
    18   25   12 1  
    19   13   14 ar 
    20   13   17 ar 
    21   13   25 1  
    22   14   15 ar 
    23   15   16 ar 
    24   16   22 ar 
    25   17   21 1  
    26   17   22 ar 
    27   18   19 ar 
    28   20   24 1  
    29    3   26 1  
    30    4   27 1  
    31    6   28 1  
    32    6   29 1  
    33    8   30 1  
    34    9   31 1  
    35   10   32 1  
    36   11   33 1  
    37   14   34 1  
    38   15   35 1  
    39   16   36 1  
    40   18   37 1  
    41   19   38 1  
    42   20   39 1  
    43   24   40 1  
@<TRIPOS>SUBSTRUCTURE
     1 K70         1

