### 
### Created by X-TOOL on Mon Sep 10 21:13:34 2018
### 

@<TRIPOS>MOLECULE
5w5o_ligand
   65    68     1     0     0
SMALL
GAST_HUCK


@<TRIPOS>ATOM
      1 C2          1.9150   15.1330   93.4610 C.2       1 9XA         0.1288
      2 C3          0.8090   14.2390   93.0800 C.2       1 9XA         0.0126
      3 C11        -1.4710   12.6140   92.4370 C.3       1 9XA         0.0860
      4 C12        -2.7200   12.5340   91.5190 C.3       1 9XA         0.0273
      5 C14         3.1950   18.2200   94.8570 C.ar      1 9XA        -0.0042
      6 C15        -4.7050   13.4110   93.0210 C.3       1 9XA         0.0118
      7 C16        -5.8020   14.1820   92.2290 C.3       1 9XA         0.0114
      8 C18        -6.1580   12.1070   90.8440 C.3       1 9XA         0.0114
      9 C19        -4.9750   11.3830   91.5570 C.3       1 9XA         0.0118
     10 C20         2.4720   18.6790   95.9710 C.ar      1 9XA        -0.0231
     11 C21         2.8350   19.8840   96.5920 C.ar      1 9XA         0.0940
     12 C23         4.6410   20.1690   95.0370 C.ar      1 9XA         0.0925
     13 C24         4.2920   18.9650   94.4050 C.ar      1 9XA        -0.0339
     14 C27        -8.0640   13.7040   91.2490 C.3       1 9XA        -0.0127
     15 N1          1.7180   16.3040   93.9960 N.pl3     1 9XA        -0.1988
     16 C4         -0.4430   14.6900   93.2930 C.2       1 9XA         0.1241
     17 C5         -0.5970   16.0810   93.8640 C.2       1 9XA         0.1633
     18 C6          0.5120   16.7960   94.1690 C.2       1 9XA         0.1101
     19 C7          2.8930   16.8830   94.2150 C.2       1 9XA         0.0965
     20 C8          3.8880   16.0260   93.8840 C.2       1 9XA        -0.0198
     21 N9          3.1410   14.9160   93.3590 N.2       1 9XA        -0.3420
     22 O10        -1.5290   13.9500   92.9830 O.3       1 9XA        -0.3093
     23 N13        -4.0340   12.3280   92.2200 N.3       1 9XA        -0.2973
     24 N17        -6.7600   13.1640   91.7110 N.3       1 9XA        -0.3029
     25 N22         3.9080   20.5820   96.1220 N.ar      1 9XA        -0.2824
     26 CL25        6.0090   21.1040   94.3950 Cl        1 9XA        -0.0474
     27 N26         2.1340   20.3480   97.6560 N.pl3     1 9XA        -0.3253
     28 S28        -2.1460   16.8990   94.1010 S.o2      1 9XA         0.0039
     29 O29        -1.8960   18.3390   94.0810 O.2       1 9XA        -0.1710
     30 O30        -3.1020   16.4090   93.1000 O.2       1 9XA        -0.1710
     31 C31        -2.7570   16.4540   95.7640 C.3       1 9XA         0.0826
     32 C32        -1.8740   17.0220   96.9080 C.3       1 9XA        -0.0403
     33 C33        -4.1620   17.0980   95.8640 C.3       1 9XA        -0.0403
     34 C34        -2.8960   14.9250   95.9360 C.3       1 9XA        -0.0403
     35 H1          0.9942   13.2577   92.6457 H         1 9XA         0.0456
     36 H2         -0.5481   12.4678   91.8566 H         1 9XA         0.0633
     37 H3         -1.5241   11.8611   93.2372 H         1 9XA         0.0633
     38 H4         -2.5739   11.6954   90.8223 H         1 9XA         0.0453
     39 H5         -2.7835   13.4747   90.9524 H         1 9XA         0.0453
     40 H6         -5.1719   12.9516   93.9047 H         1 9XA         0.0439
     41 H7         -3.9383   14.1307   93.3438 H         1 9XA         0.0439
     42 H8         -5.3474   14.7333   91.3927 H         1 9XA         0.0439
     43 H9         -6.3226   14.8874   92.8934 H         1 9XA         0.0439
     44 H10        -6.9320   11.3660   90.5954 H         1 9XA         0.0439
     45 H11        -5.7860   12.5730   89.9196 H         1 9XA         0.0439
     46 H12        -4.4180   10.7997   90.8089 H         1 9XA         0.0439
     47 H13        -5.3863   10.7046   92.3189 H         1 9XA         0.0439
     48 H14         1.6353   18.1033   96.3500 H         1 9XA         0.0509
     49 H15         4.8745   18.6098   93.5626 H         1 9XA         0.0522
     50 H16        -8.4146   14.4705   91.9558 H         1 9XA         0.0391
     51 H17        -8.8008   12.8889   91.1970 H         1 9XA         0.0391
     52 H18        -7.9426   14.1527   90.2521 H         1 9XA         0.0391
     53 H19         0.4015   17.8035   94.5674 H         1 9XA         0.1257
     54 H20         4.9654   16.1458   93.9878 H         1 9XA         0.0570
     55 H21         2.4070   21.2333   98.1061 H         1 9XA         0.1759
     56 H22         1.3286   19.8151   98.0141 H         1 9XA         0.1759
     57 H23        -2.2933   16.7202   97.8791 H         1 9XA         0.0251
     58 H24        -1.8518   18.1199   96.8435 H         1 9XA         0.0251
     59 H25        -0.8514   16.6283   96.8119 H         1 9XA         0.0251
     60 H26        -4.5997   16.8722   96.8476 H         1 9XA         0.0251
     61 H27        -4.8089   16.6913   95.0728 H         1 9XA         0.0251
     62 H28        -4.0753   18.1878   95.7428 H         1 9XA         0.0251
     63 H29        -3.2653   14.7020   96.9479 H         1 9XA         0.0251
     64 H30        -1.9151   14.4489   95.7905 H         1 9XA         0.0251
     65 H31        -3.6066   14.5354   95.1922 H         1 9XA         0.0251
@<TRIPOS>BOND
     1    2    1 1  
     2    1   15 1  
     3    1   21 2  
     4   16    2 2  
     5    3    4 1  
     6   22    3 1  
     7    4   23 1  
     8    5   10 ar 
     9    5   13 ar 
    10   19    5 1  
    11    6    7 1  
    12   23    6 1  
    13    7   24 1  
    14    9    8 1  
    15    8   24 1  
    16   23    9 1  
    17   10   11 ar 
    18   11   25 ar 
    19   11   27 1  
    20   13   12 ar 
    21   12   25 ar 
    22   12   26 1  
    23   24   14 1  
    24   15   18 1  
    25   15   19 1  
    26   16   17 1  
    27   16   22 1  
    28   17   18 2  
    29   17   28 1  
    30   19   20 2  
    31   20   21 1  
    32   28   29 2  
    33   28   30 2  
    34   28   31 1  
    35   31   32 1  
    36   31   33 1  
    37   31   34 1  
    38    2   35 1  
    39    3   36 1  
    40    3   37 1  
    41    4   38 1  
    42    4   39 1  
    43    6   40 1  
    44    6   41 1  
    45    7   42 1  
    46    7   43 1  
    47    8   44 1  
    48    8   45 1  
    49    9   46 1  
    50    9   47 1  
    51   10   48 1  
    52   13   49 1  
    53   14   50 1  
    54   14   51 1  
    55   14   52 1  
    56   18   53 1  
    57   20   54 1  
    58   27   55 1  
    59   27   56 1  
    60   32   57 1  
    61   32   58 1  
    62   32   59 1  
    63   33   60 1  
    64   33   61 1  
    65   33   62 1  
    66   34   63 1  
    67   34   64 1  
    68   34   65 1  
@<TRIPOS>SUBSTRUCTURE
     1 9XA         1

