### 
### Created by X-TOOL on Wed Jan  1 15:39:38 2020
### 

@<TRIPOS>MOLECULE
5w5v_ligand
   35    37     1     0     0
SMALL
GAST_HUCK


@<TRIPOS>ATOM
      1 NAA       -39.7140  128.3570   -0.1450 N.ar      1 ANW        -0.2453
      2 NAB       -39.3840  128.9520   -2.4780 N.pl3     1 ANW        -0.3188
      3 CAC       -42.1430  128.2840    8.2750 C.3       1 ANW        -0.0540
      4 CAD       -40.9810  129.1090    7.7250 C.3       1 ANW        -0.0164
      5 CAE       -39.7260  128.8340    8.5520 C.3       1 ANW        -0.0540
      6 CAF       -40.7260  128.7220    6.2700 C.ar      1 ANW        -0.0441
      7 CAG       -40.9100  129.6580    5.2610 C.ar      1 ANW        -0.0484
      8 CAH       -40.6760  129.3040    3.9240 C.ar      1 ANW         0.0593
      9 CAI       -40.2630  128.0250    3.6120 C.ar      1 ANW         0.1381
     10 CAJ       -40.0770  127.0800    4.6320 C.ar      1 ANW        -0.0257
     11 CAK       -40.3090  127.4320    5.9560 C.ar      1 ANW        -0.0616
     12 CAL       -40.0720  128.6790    1.1390 C.ar      1 ANW         0.2001
     13 CAM       -39.7640  129.2960   -1.1200 C.ar      1 ANW         0.1182
     14 CAN       -40.1790  130.5900   -0.8210 C.ar      1 ANW         0.0501
     15 CAO       -40.5350  130.9130    0.4500 C.ar      1 ANW        -0.0285
     16 CAP       -40.4840  129.9600    1.4390 C.ar      1 ANW         0.0825
     17 CAQ       -40.8720  130.3030    2.8360 C.2       1 ANW         0.1436
     18 CAR       -40.2350  131.6480   -1.9210 C.2       1 ANW         0.0581
     19 OAS       -40.0160  127.6510    2.2020 O.3       1 ANW        -0.2319
     20 OAT       -41.3350  131.3660    3.0820 O.2       1 ANW        -0.3922
     21 OAU       -39.8320  131.3710   -3.0820 O.co2     1 ANW        -0.5655
     22 OAV       -40.6840  132.7970   -1.6680 O.co2     1 ANW        -0.5655
     23 H1        -39.4218  129.6656   -3.2198 H         1 ANW         0.1800
     24 H2        -39.0765  127.9943   -2.6998 H         1 ANW         0.1800
     25 H3        -42.3268  128.5627    9.3231 H         1 ANW         0.0252
     26 H4        -41.8924  127.2144    8.2186 H         1 ANW         0.0252
     27 H5        -43.0467  128.4808    7.6795 H         1 ANW         0.0252
     28 H6        -41.2310  130.1787    7.7818 H         1 ANW         0.0438
     29 H7        -38.8888  129.4278    8.1564 H         1 ANW         0.0252
     30 H8        -39.4761  127.7643    8.4946 H         1 ANW         0.0252
     31 H9        -39.9095  129.1119    9.6004 H         1 ANW         0.0252
     32 H10       -41.2346  130.6627    5.5066 H         1 ANW         0.0579
     33 H11       -39.7523  126.0752    4.3873 H         1 ANW         0.0558
     34 H12       -40.1652  126.7019    6.7442 H         1 ANW         0.0574
     35 H13       -40.8587  131.9208    0.6835 H         1 ANW         0.0757
@<TRIPOS>BOND
     1   12    1 ar 
     2    1   13 ar 
     3   13    2 1  
     4    4    3 1  
     5    4    5 1  
     6    6    4 1  
     7    7    6 ar 
     8   11    6 ar 
     9    8    7 ar 
    10    9    8 ar 
    11    8   17 1  
    12    9   10 ar 
    13   19    9 1  
    14   10   11 ar 
    15   12   16 ar 
    16   12   19 1  
    17   13   14 ar 
    18   14   15 ar 
    19   14   18 1  
    20   15   16 ar 
    21   16   17 1  
    22   17   20 2  
    23   18   21 ar 
    24   18   22 ar 
    25    2   23 1  
    26    2   24 1  
    27    3   25 1  
    28    3   26 1  
    29    3   27 1  
    30    4   28 1  
    31    5   29 1  
    32    5   30 1  
    33    5   31 1  
    34    7   32 1  
    35   10   33 1  
    36   11   34 1  
    37   15   35 1  
@<TRIPOS>SUBSTRUCTURE
     1 ANW         1

