### 
### Created by X-TOOL on Wed Jan  1 15:39:37 2020
### 

@<TRIPOS>MOLECULE
5w6o_ligand
   92    99     1     0     0
SMALL
GAST_HUCK


@<TRIPOS>ATOM
      1 C1         -2.7950  -17.5420   31.9830 C.ar      1 9X1         0.0567
      2 C2         -2.1180  -16.6390   32.8160 C.ar      1 9X1        -0.0401
      3 C3         -0.9740  -17.0310   33.5070 C.ar      1 9X1        -0.0590
      4 C4         -0.5010  -18.3310   33.3910 C.ar      1 9X1         0.0266
      5 C5         -1.1600  -19.2380   32.5760 C.ar      1 9X1        -0.0590
      6 C6         -2.2960  -18.8490   31.8690 C.ar      1 9X1        -0.0401
      7 C22        -3.7290  -12.9040   24.7380 C.ar      1 9X1        -0.0616
      8 C24        -6.0640  -13.3030   25.0860 C.ar      1 9X1        -0.0616
      9 C25        -5.9070  -12.9820   26.4420 C.ar      1 9X1        -0.0581
     10 C26        -5.0530  -13.5330   22.8670 C.ar      1 9X1        -0.0283
     11 C27        -5.2740  -14.7570   22.2200 C.ar      1 9X1        -0.0616
     12 C32        -5.1550  -13.6470   18.6180 C.3       1 9X1         0.0741
     13 N33        -5.4000  -12.2700   17.9770 N.pl3     1 9X1        -0.2674
     14 C34        -4.2700  -11.5380   17.5120 C.2       1 9X1         0.0103
     15 C35        -4.4120  -10.2740   16.9410 C.2       1 9X1        -0.0525
     16 C36        -5.6760   -9.6880   16.7700 C.3       1 9X1         0.0792
     17 C37        -6.8080  -10.4170   17.2490 C.ar      1 9X1         0.0100
     18 CL7         0.8810  -18.8210   34.2360 Cl        1 9X1        -0.0826
     19 N1         -3.8670  -17.1840   31.2690 N.pl3     1 9X1        -0.2761
     20 C8         -4.9460  -18.2090   31.1700 C.3       1 9X1         0.0300
     21 C9         -3.9330  -15.9880   30.5590 C.2       1 9X1         0.0463
     22 C10        -5.1790  -15.3990   30.3320 C.2       1 9X1        -0.0548
     23 C11        -5.3200  -14.2230   29.6320 C.3       1 9X1         0.0431
     24 C14        -2.7820  -15.3010   30.0200 C.ar      1 9X1         0.0146
     25 C15        -1.4380  -15.7430   30.1360 C.ar      1 9X1        -0.0669
     26 C16        -0.3470  -15.0530   29.6260 C.ar      1 9X1        -0.0773
     27 C17        -0.5450  -13.8740   28.9430 C.ar      1 9X1        -0.0761
     28 C18        -1.8370  -13.4050   28.8030 C.ar      1 9X1        -0.0451
     29 C13        -2.9660  -14.0780   29.3120 C.ar      1 9X1         0.0529
     30 N12        -4.2140  -13.5550   29.1270 N.pl3     1 9X1        -0.2899
     31 C19        -4.5230  -12.2920   28.3620 C.3       1 9X1         0.0627
     32 C20        -4.6610  -12.6100   26.9710 C.ar      1 9X1        -0.0211
     33 C21        -3.5740  -12.5820   26.0850 C.ar      1 9X1        -0.0581
     34 C23        -4.9690  -13.2860   24.2310 C.ar      1 9X1        -0.0283
     35 C31        -4.8750  -12.3930   22.0970 C.ar      1 9X1        -0.0616
     36 C30        -4.9030  -12.4410   20.7160 C.ar      1 9X1        -0.0578
     37 C28        -5.3100  -14.8000   20.8010 C.ar      1 9X1        -0.0578
     38 C29        -5.1290  -13.6370   20.0350 C.ar      1 9X1        -0.0178
     39 C38        -6.6350  -11.7010   17.8510 C.ar      1 9X1         0.0668
     40 C39        -7.7720  -12.3950   18.3030 C.ar      1 9X1        -0.0461
     41 C40        -9.0540  -11.8570   18.2010 C.ar      1 9X1        -0.0803
     42 C41        -9.2380  -10.6130   17.6150 C.ar      1 9X1        -0.0817
     43 C42        -8.1290   -9.9130   17.1530 C.ar      1 9X1        -0.0673
     44 N43        -5.8320   -8.4200   16.2230 N.pl3     1 9X1        -0.2951
     45 C44        -6.5230   -7.3730   17.0400 C.3       1 9X1         0.0189
     46 C45        -5.2540   -7.9730   15.0560 C.ar      1 9X1         0.0433
     47 C46        -5.4540   -6.6240   14.6450 C.ar      1 9X1        -0.0434
     48 C47        -4.8920   -6.0950   13.4940 C.ar      1 9X1        -0.0597
     49 C48        -4.1020   -6.8950   12.6930 C.ar      1 9X1         0.0261
     50 CL5        -3.4700   -6.2380   11.3300 Cl        1 9X1        -0.0830
     51 C49        -3.8670   -8.2200   13.0510 C.ar      1 9X1        -0.0597
     52 C50        -4.4280   -8.7490   14.2140 C.ar      1 9X1        -0.0434
     53 H1         -2.4889  -15.6260   32.9230 H         1 9X1         0.0525
     54 H2         -0.4520  -16.3196   34.1366 H         1 9X1         0.0590
     55 H3         -0.7904  -20.2533   32.4883 H         1 9X1         0.0590
     56 H4         -2.7987  -19.5619   31.2254 H         1 9X1         0.0525
     57 H5         -2.8725  -12.8565   24.0753 H         1 9X1         0.0600
     58 H6         -7.0437  -13.5655   24.7033 H         1 9X1         0.0600
     59 H7         -6.7691  -13.0221   27.0980 H         1 9X1         0.0558
     60 H8         -5.4162  -15.6629   22.7980 H         1 9X1         0.0600
     61 H9         -4.1869  -14.0263   18.2589 H         1 9X1         0.0723
     62 H10        -5.9579  -14.3253   18.2935 H         1 9X1         0.0723
     63 H11        -3.2763  -11.9739   17.6042 H         1 9X1         0.0807
     64 H12        -3.5243   -9.7303   16.6212 H         1 9X1         0.0350
     65 H13        -5.7737  -10.1400   15.7719 H         1 9X1         0.0758
     66 H14        -4.6943  -19.0691   31.8079 H         1 9X1         0.0522
     67 H15        -5.0407  -18.5421   30.1259 H         1 9X1         0.0522
     68 H16        -5.8988  -17.7718   31.5033 H         1 9X1         0.0522
     69 H17        -6.0702  -15.8878   30.7228 H         1 9X1         0.0371
     70 H18        -5.8309  -13.5181   30.3044 H         1 9X1         0.0625
     71 H19        -5.9695  -14.4464   28.7728 H         1 9X1         0.0625
     72 H20        -1.2524  -16.6766   30.6547 H         1 9X1         0.0559
     73 H21         0.6559  -15.4404   29.7647 H         1 9X1         0.0502
     74 H22         0.2925  -13.3270   28.5253 H         1 9X1         0.0561
     75 H23        -1.9903  -12.4711   28.2744 H         1 9X1         0.0505
     76 H24        -3.7037  -11.5703   28.4956 H         1 9X1         0.0683
     77 H25        -5.4611  -11.8551   28.7351 H         1 9X1         0.0683
     78 H26        -2.5938  -12.3044   26.4554 H         1 9X1         0.0558
     79 H27        -4.7100  -11.4419   22.5901 H         1 9X1         0.0600
     80 H28        -4.7460  -11.5298   20.1502 H         1 9X1         0.0559
     81 H29        -5.4801  -15.7465   20.3007 H         1 9X1         0.0559
     82 H30        -7.6476  -13.3775   18.7438 H         1 9X1         0.0495
     83 H31        -9.9062  -12.4100   18.5791 H         1 9X1         0.0526
     84 H32       -10.2325  -10.1926   17.5187 H         1 9X1         0.0490
     85 H33        -8.2814   -8.9401   16.7000 H         1 9X1         0.0514
     86 H34        -6.5661   -6.4328   16.4706 H         1 9X1         0.0481
     87 H35        -5.9661   -7.2104   17.9746 H         1 9X1         0.0481
     88 H36        -7.5446   -7.7063   17.2751 H         1 9X1         0.0481
     89 H37        -6.0739   -5.9821   15.2604 H         1 9X1         0.0516
     90 H38        -5.0714   -5.0605   13.2246 H         1 9X1         0.0589
     91 H39        -3.2438   -8.8450   12.4217 H         1 9X1         0.0589
     92 H40        -4.2247   -9.7807   14.4774 H         1 9X1         0.0516
@<TRIPOS>BOND
     1    1    2 ar 
     2    1    6 ar 
     3   19    1 1  
     4    2    3 ar 
     5    3    4 ar 
     6    5    4 ar 
     7    4   18 1  
     8    6    5 ar 
     9    7   33 ar 
    10   34    7 ar 
    11    8    9 ar 
    12   34    8 ar 
    13    9   32 ar 
    14   10   11 ar 
    15   10   34 1  
    16   35   10 ar 
    17   11   37 ar 
    18   12   13 1  
    19   38   12 1  
    20   13   14 1  
    21   13   39 1  
    22   14   15 2  
    23   15   16 1  
    24   17   16 1  
    25   16   44 1  
    26   39   17 ar 
    27   17   43 ar 
    28   19   20 1  
    29   21   19 1  
    30   22   21 2  
    31   24   21 1  
    32   23   22 1  
    33   30   23 1  
    34   24   25 ar 
    35   29   24 ar 
    36   25   26 ar 
    37   27   26 ar 
    38   28   27 ar 
    39   29   28 ar 
    40   30   29 1  
    41   31   30 1  
    42   32   31 1  
    43   33   32 ar 
    44   36   35 ar 
    45   36   38 ar 
    46   37   38 ar 
    47   39   40 ar 
    48   40   41 ar 
    49   41   42 ar 
    50   42   43 ar 
    51   44   45 1  
    52   44   46 1  
    53   46   47 ar 
    54   46   52 ar 
    55   47   48 ar 
    56   48   49 ar 
    57   49   50 1  
    58   49   51 ar 
    59   51   52 ar 
    60    2   53 1  
    61    3   54 1  
    62    5   55 1  
    63    6   56 1  
    64    7   57 1  
    65    8   58 1  
    66    9   59 1  
    67   11   60 1  
    68   12   61 1  
    69   12   62 1  
    70   14   63 1  
    71   15   64 1  
    72   16   65 1  
    73   20   66 1  
    74   20   67 1  
    75   20   68 1  
    76   22   69 1  
    77   23   70 1  
    78   23   71 1  
    79   25   72 1  
    80   26   73 1  
    81   27   74 1  
    82   28   75 1  
    83   31   76 1  
    84   31   77 1  
    85   33   78 1  
    86   35   79 1  
    87   36   80 1  
    88   37   81 1  
    89   40   82 1  
    90   41   83 1  
    91   42   84 1  
    92   43   85 1  
    93   45   86 1  
    94   45   87 1  
    95   45   88 1  
    96   47   89 1  
    97   48   90 1  
    98   51   91 1  
    99   52   92 1  
@<TRIPOS>SUBSTRUCTURE
     1 9X1         1

