### 
### Created by X-TOOL on Wed Jan  1 15:39:38 2020
### 

@<TRIPOS>MOLECULE
5w73_ligand
   61    64     1     0     0
SMALL
GAST_HUCK


@<TRIPOS>ATOM
      1 C1        128.3100  103.0500  287.4360 C.2       1 GY9         0.1641
      2 C10       127.6960  101.4420  284.7310 C.2       1 GY9         0.2124
      3 C11       127.4890  102.9150  284.4310 C.3       1 GY9         0.1595
      4 C12       132.8870  103.0660  284.5310 C.3       1 GY9         0.0577
      5 C13       132.3740  103.1220  283.1140 C.3       1 GY9         0.0903
      6 C14       123.8750  105.5060  286.7610 C.ar      1 GY9        -0.0723
      7 C15       124.9730  106.0490  286.1460 C.ar      1 GY9        -0.0566
      8 C16       125.7220  105.2810  285.2640 C.ar      1 GY9         0.0680
      9 C17       125.3750  103.9530  284.9830 C.ar      1 GY9         0.1086
     10 C18       124.2520  103.4290  285.6190 C.ar      1 GY9        -0.0322
     11 C19       123.5140  104.2030  286.5020 C.ar      1 GY9        -0.0704
     12 C2        130.2720  104.1900  287.0010 C.2       1 GY9         0.1060
     13 C20       129.1310  101.9680  279.4950 C.ar      1 GY9        -0.0729
     14 C21       129.0990  100.9160  280.3800 C.ar      1 GY9        -0.0706
     15 C22       129.8750  100.9310  281.5290 C.ar      1 GY9        -0.0331
     16 C23       130.6970  102.0190  281.7820 C.ar      1 GY9         0.0912
     17 C24       130.7290  103.0870  280.8940 C.ar      1 GY9        -0.0331
     18 C25       129.9450  103.0470  279.7520 C.ar      1 GY9        -0.0706
     19 C3        129.9010  105.2240  287.8080 C.2       1 GY9         0.1828
     20 C4        128.6710  105.1790  288.4680 C.2       1 GY9         0.2603
     21 C5        131.5850  104.1930  286.2670 C.2       1 GY9         0.2003
     22 C6        128.7940   99.9760  287.8540 C.3       1 GY9        -0.0274
     23 C7        127.5660  100.7540  288.2990 C.3       1 GY9        -0.0084
     24 C8        127.4540  101.8230  287.1980 C.3       1 GY9         0.1312
     25 C9        128.5060   99.7790  286.3860 C.3       1 GY9         0.0378
     26 N1        129.4890  103.1170  286.8180 N.2       1 GY9        -0.3043
     27 N2        127.8940  104.0660  288.2470 N.am      1 GY9        -0.1947
     28 N3        131.7750  103.1460  285.4630 N.am      1 GY9        -0.2858
     29 N4        127.8660  101.0480  286.0090 N.am      1 GY9        -0.2470
     30 O1        130.6630  106.3050  288.0200 O.3       1 GY9        -0.3268
     31 O2        128.2500  106.0670  289.2240 O.2       1 GY9        -0.3954
     32 O3        132.3990  105.1080  286.3840 O.2       1 GY9        -0.3921
     33 O4        126.1490  103.2570  284.0890 O.3       1 GY9        -0.2967
     34 O5        127.7130  100.6150  283.8240 O.2       1 GY9        -0.3937
     35 O6        131.4640  102.0350  282.9180 O.3       1 GY9        -0.3160
     36 CL1       127.1040  106.0110  284.5030 Cl        1 GY9        -0.0788
     37 H1        128.1413  103.1910  283.5894 H         1 GY9         0.0860
     38 H2        127.7760  103.4925  285.3221 H         1 GY9         0.0860
     39 H3        133.5703  103.9102  284.7052 H         1 GY9         0.0545
     40 H4        133.4260  102.1198  284.6867 H         1 GY9         0.0545
     41 H5        133.2152  103.0332  282.4109 H         1 GY9         0.0634
     42 H6        131.8540  104.0765  282.9449 H         1 GY9         0.0634
     43 H7        123.2905  106.1029  287.4517 H         1 GY9         0.0523
     44 H8        125.2562  107.0758  286.3476 H         1 GY9         0.0595
     45 H9        123.9519  102.4062  285.4218 H         1 GY9         0.0542
     46 H10       122.6455  103.7784  286.9924 H         1 GY9         0.0591
     47 H11       128.5188  101.9473  278.6006 H         1 GY9         0.0523
     48 H12       128.4594  100.0647  280.1769 H         1 GY9         0.0589
     49 H13       129.8395  100.0995  282.2235 H         1 GY9         0.0542
     50 H14       131.3619  103.9443  281.0928 H         1 GY9         0.0542
     51 H15       129.9734  103.8753  279.0533 H         1 GY9         0.0589
     52 H16       128.8734   99.0138  288.3810 H         1 GY9         0.0288
     53 H17       129.7157  100.5561  288.0088 H         1 GY9         0.0288
     54 H18       127.7185  101.2118  289.2875 H         1 GY9         0.0321
     55 H19       126.6732  100.1120  288.3260 H         1 GY9         0.0321
     56 H20       126.4103  102.1550  287.0962 H         1 GY9         0.0845
     57 H21       127.8264   98.9291  286.2257 H         1 GY9         0.0525
     58 H22       129.4341   99.6187  285.8177 H         1 GY9         0.0525
     59 H23       127.0010  103.9993  288.6921 H         1 GY9         0.2537
     60 H24       131.1265  102.3859  285.5031 H         1 GY9         0.1839
     61 H25       131.4688  106.2254  287.5233 H         1 GY9         0.2490
@<TRIPOS>BOND
     1   24    1 1  
     2    1   26 2  
     3    1   27 1  
     4    2    3 1  
     5   29    2 am 
     6    2   34 2  
     7    3   33 1  
     8    4    5 1  
     9   28    4 1  
    10    5   35 1  
    11    7    6 ar 
    12   11    6 ar 
    13    8    7 ar 
    14    9    8 ar 
    15    8   36 1  
    16    9   10 ar 
    17   33    9 1  
    18   10   11 ar 
    19   12   19 2  
    20   12   21 1  
    21   26   12 1  
    22   14   13 ar 
    23   18   13 ar 
    24   15   14 ar 
    25   16   15 ar 
    26   16   17 ar 
    27   35   16 1  
    28   17   18 ar 
    29   20   19 1  
    30   19   30 1  
    31   27   20 am 
    32   20   31 2  
    33   21   28 am 
    34   21   32 2  
    35   23   22 1  
    36   22   25 1  
    37   24   23 1  
    38   24   29 1  
    39   25   29 1  
    40    3   37 1  
    41    3   38 1  
    42    4   39 1  
    43    4   40 1  
    44    5   41 1  
    45    5   42 1  
    46    6   43 1  
    47    7   44 1  
    48   10   45 1  
    49   11   46 1  
    50   13   47 1  
    51   14   48 1  
    52   15   49 1  
    53   17   50 1  
    54   18   51 1  
    55   22   52 1  
    56   22   53 1  
    57   23   54 1  
    58   23   55 1  
    59   24   56 1  
    60   25   57 1  
    61   25   58 1  
    62   27   59 1  
    63   28   60 1  
    64   30   61 1  
@<TRIPOS>SUBSTRUCTURE
     1 GY9         1

