### 
### Created by X-TOOL on Mon Sep 10 21:13:34 2018
### 

@<TRIPOS>MOLECULE
5w7u_ligand
   56    60     1     0     0
SMALL
GAST_HUCK


@<TRIPOS>ATOM
      1 C1        126.3490  105.3210  285.5820 C.ar      1 GY8         0.0887
      2 C10       132.9890  105.2190  282.5730 C.ar      1 GY8        -0.0386
      3 C11       133.0110  103.8530  282.8160 C.ar      1 GY8        -0.0386
      4 C12       132.2650  102.9870  282.0300 C.ar      1 GY8        -0.0668
      5 C13       131.5010  103.5090  281.0000 C.ar      1 GY8        -0.0755
      6 C14       131.4760  104.8700  280.7600 C.ar      1 GY8        -0.0755
      7 C15       132.2210  105.7380  281.5400 C.ar      1 GY8        -0.0668
      8 C16       133.9210  103.5620  283.9810 C.3       1 GY8         0.0031
      9 C17       131.0670  106.4500  288.4460 C.2       1 GY8         0.1828
     10 C18       129.8240  106.3480  289.0800 C.2       1 GY8         0.2603
     11 C19       128.7110  102.0140  287.7230 C.3       1 GY8        -0.0084
     12 C2        127.6490  105.2480  285.0740 C.ar      1 GY8         0.0973
     13 C20       129.8210  101.4680  286.8380 C.3       1 GY8        -0.0274
     14 C21       129.3250  101.8220  285.4510 C.3       1 GY8         0.0374
     15 C22       128.3670  106.4440  285.0110 C.ar      1 GY8         0.0887
     16 C23       127.7630  107.6250  285.4220 C.ar      1 GY8         0.0308
     17 C24       125.8250  106.5440  285.9780 C.ar      1 GY8         0.0308
     18 C3        128.2530  103.9320  284.6760 C.2       1 GY8         0.2208
     19 C4        128.4600  103.4010  287.1070 C.3       1 GY8         0.1310
     20 C5        129.3600  104.5070  287.6150 C.2       1 GY8         0.1641
     21 C6        131.3990  105.5840  287.4420 C.2       1 GY8         0.1060
     22 C7        132.7110  105.6560  286.7090 C.2       1 GY8         0.2007
     23 C8        133.9360  104.9110  284.7270 C.3       1 GY8         0.0581
     24 C9        133.8800  105.9210  283.5630 C.3       1 GY8         0.0031
     25 N1        128.6490  103.1150  285.6640 N.am      1 GY8        -0.2469
     26 N2        130.5480  104.6380  287.0200 N.2       1 GY8        -0.3043
     27 N3        132.7390  105.0110  285.5380 N.am      1 GY8        -0.2819
     28 N4        128.9840  105.3510  288.6320 N.am      1 GY8        -0.1947
     29 N5        126.5210  107.6730  285.8980 N.ar      1 GY8        -0.2911
     30 O1        128.4020  103.6270  283.4930 O.2       1 GY8        -0.3791
     31 O2        133.6780  106.2920  287.1300 O.2       1 GY8        -0.3921
     32 O3        131.8800  107.4170  288.8900 O.3       1 GY8        -0.3268
     33 O4        129.4500  107.0930  290.0040 O.2       1 GY8        -0.3954
     34 CL1       125.3790  103.9020  285.7100 Cl        1 GY8        -0.0550
     35 CL2       129.9840  106.4780  284.4110 Cl        1 GY8        -0.0550
     36 H1        132.2799  101.9197  282.2190 H         1 GY8         0.0537
     37 H2        130.9164  102.8434  280.3753 H         1 GY8         0.0541
     38 H3        130.8671  105.2616  279.9532 H         1 GY8         0.0541
     39 H4        132.2047  106.8046  281.3472 H         1 GY8         0.0537
     40 H5        134.9290  103.2836  283.6399 H         1 GY8         0.0435
     41 H6        133.5139  102.7603  284.6147 H         1 GY8         0.0435
     42 H7        129.0387  102.0956  288.7699 H         1 GY8         0.0321
     43 H8        127.8108  101.3842  287.6686 H         1 GY8         0.0321
     44 H9        129.9283  100.3798  286.9578 H         1 GY8         0.0288
     45 H10       130.7819  101.9574  287.0552 H         1 GY8         0.0288
     46 H11       128.6210  101.0641  285.0769 H         1 GY8         0.0525
     47 H12       130.1625  101.9247  284.7453 H         1 GY8         0.0525
     48 H13       128.3275  108.5478  285.3521 H         1 GY8         0.0842
     49 H14       124.8133  106.5791  286.3658 H         1 GY8         0.0842
     50 H15       127.4214  103.7084  287.2989 H         1 GY8         0.0845
     51 H16       134.8373  105.0396  285.3444 H         1 GY8         0.0597
     52 H17       133.4418  106.8770  283.8856 H         1 GY8         0.0435
     53 H18       134.8804  106.0997  283.1420 H         1 GY8         0.0435
     54 H19       131.8992  104.5798  285.2082 H         1 GY8         0.1844
     55 H20       128.0846  105.2400  289.0549 H         1 GY8         0.2537
     56 H21       132.6816  107.0285  289.2201 H         1 GY8         0.2490
@<TRIPOS>BOND
     1   12    1 ar 
     2    1   17 ar 
     3    1   34 1  
     4    2    3 ar 
     5    2    7 ar 
     6   24    2 1  
     7    3    4 ar 
     8    8    3 1  
     9    4    5 ar 
    10    6    5 ar 
    11    7    6 ar 
    12   23    8 1  
    13    9   10 1  
    14   21    9 2  
    15    9   32 1  
    16   10   28 am 
    17   10   33 2  
    18   11   13 1  
    19   19   11 1  
    20   12   15 ar 
    21   18   12 1  
    22   14   13 1  
    23   25   14 1  
    24   15   16 ar 
    25   15   35 1  
    26   16   29 ar 
    27   17   29 ar 
    28   25   18 am 
    29   18   30 2  
    30   20   19 1  
    31   19   25 1  
    32   26   20 2  
    33   20   28 1  
    34   22   21 1  
    35   21   26 1  
    36   27   22 am 
    37   22   31 2  
    38   23   24 1  
    39   23   27 1  
    40    4   36 1  
    41    5   37 1  
    42    6   38 1  
    43    7   39 1  
    44    8   40 1  
    45    8   41 1  
    46   11   42 1  
    47   11   43 1  
    48   13   44 1  
    49   13   45 1  
    50   14   46 1  
    51   14   47 1  
    52   16   48 1  
    53   17   49 1  
    54   19   50 1  
    55   23   51 1  
    56   24   52 1  
    57   24   53 1  
    58   27   54 1  
    59   28   55 1  
    60   32   56 1  
@<TRIPOS>SUBSTRUCTURE
     1 GY8         1

