### 
### Created by X-TOOL on Mon Sep 10 21:13:33 2018
### 

@<TRIPOS>MOLECULE
5w84_ligand
   47    50     1     0     0
SMALL
GAST_HUCK


@<TRIPOS>ATOM
      1 C13         7.7010   42.7300   11.5200 C.ar      1 9YY        -0.0211
      2 C18         6.9810   43.8920   11.2730 C.ar      1 9YY        -0.0584
      3 C17         7.3420   45.0880   11.8720 C.ar      1 9YY        -0.0685
      4 C16         8.4270   45.1370   12.7270 C.ar      1 9YY        -0.0687
      5 C15         9.1510   43.9880   12.9800 C.ar      1 9YY        -0.0685
      6 C19        11.5240   42.8390    8.0020 C.ar      1 9YY         0.0417
      7 C20        11.3670   43.5020    9.2240 C.ar      1 9YY        -0.0467
      8 C21        12.4150   43.5000   10.1390 C.ar      1 9YY        -0.0098
      9 C22        13.6050   42.8420    9.8370 C.ar      1 9YY         0.0615
     10 C23        13.7710   42.1770    8.6290 C.ar      1 9YY        -0.0549
     11 C24        12.7240   42.1800    7.7160 C.ar      1 9YY        -0.0573
     12 C12         7.3220   41.4170   10.8810 C.3       1 9YY         0.0609
     13 C1          6.4490   42.0590    7.2490 C.ar      1 9YY         0.0807
     14 C2          7.1350   42.4180    6.0930 C.ar      1 9YY         0.0047
     15 N3          8.4470   42.6580    6.0350 N.ar      1 9YY        -0.2929
     16 C4          9.1480   42.5470    7.1650 C.ar      1 9YY         0.1177
     17 C5          8.5730   42.1820    8.3910 C.ar      1 9YY         0.0077
     18 C6          7.1920   41.9290    8.4440 C.ar      1 9YY         0.0687
     19 N7          6.5660   41.5590    9.6440 N.pl3     1 9YY        -0.3023
     20 N8         10.4930   42.8430    7.0390 N.pl3     1 9YY        -0.2707
     21 C9          4.9710   41.8420    7.2110 C.2       1 9YY         0.1936
     22 N10         4.4660   41.1440    6.1950 N.am      1 9YY        -0.3029
     23 O11         4.2580   42.3140    8.1110 O.2       1 9YY        -0.3945
     24 C14         8.7900   42.7920   12.3790 C.ar      1 9YY        -0.0584
     25 C25        12.5530   44.1110   11.5010 C.3       1 9YY         0.0693
     26 C26        13.9510   43.7250   11.9150 C.2       1 9YY         0.2059
     27 N27        14.4960   42.9880   10.8960 N.am      1 9YY        -0.2415
     28 O28        14.5160   44.0140   12.9700 O.2       1 9YY        -0.3902
     29 H1          6.1280   43.8627   10.6048 H         1 9YY         0.0557
     30 H2          6.7721   45.9876   11.6696 H         1 9YY         0.0599
     31 H3          8.7084   46.0725   13.1967 H         1 9YY         0.0559
     32 H4         10.0028   44.0216   13.6496 H         1 9YY         0.0599
     33 H5         10.4387   44.0118    9.4554 H         1 9YY         0.0441
     34 H6         14.6996   41.6655    8.4030 H         1 9YY         0.0461
     35 H7         12.8386   41.6647    6.7692 H         1 9YY         0.0449
     36 H8          6.7112   40.8471   11.5966 H         1 9YY         0.0683
     37 H9          8.2446   40.8598   10.6610 H         1 9YY         0.0683
     38 H10         6.5646   42.5092    5.1757 H         1 9YY         0.0803
     39 H11         9.1837   42.0965    9.2825 H         1 9YY         0.0511
     40 H12         5.5510   41.3842    9.6503 H         1 9YY         0.1842
     41 H13        10.7898   43.1092    6.0893 H         1 9YY         0.2095
     42 H14         3.4808   40.9814    6.1408 H         1 9YY         0.1801
     43 H15         5.0721   40.7826    5.4865 H         1 9YY         0.1801
     44 H16         9.3643   41.8953   12.5820 H         1 9YY         0.0557
     45 H17        11.8078   43.6967   12.1960 H         1 9YY         0.0645
     46 H18        12.4436   45.2046   11.4552 H         1 9YY         0.0645
     47 H19        15.4189   42.6032   10.9116 H         1 9YY         0.2219
@<TRIPOS>BOND
     1    1    2 ar 
     2   12    1 1  
     3    1   24 ar 
     4    2    3 ar 
     5    3    4 ar 
     6    5    4 ar 
     7   24    5 ar 
     8    6    7 ar 
     9    6   11 ar 
    10   20    6 1  
    11    7    8 ar 
    12    8    9 ar 
    13    8   25 1  
    14   10    9 ar 
    15    9   27 1  
    16   11   10 ar 
    17   19   12 1  
    18   13   14 ar 
    19   18   13 ar 
    20   13   21 1  
    21   14   15 ar 
    22   16   15 ar 
    23   17   16 ar 
    24   16   20 1  
    25   18   17 ar 
    26   18   19 1  
    27   21   22 am 
    28   21   23 2  
    29   25   26 1  
    30   26   27 am 
    31   26   28 2  
    32    2   29 1  
    33    3   30 1  
    34    4   31 1  
    35    5   32 1  
    36    7   33 1  
    37   10   34 1  
    38   11   35 1  
    39   12   36 1  
    40   12   37 1  
    41   14   38 1  
    42   17   39 1  
    43   19   40 1  
    44   20   41 1  
    45   22   42 1  
    46   22   43 1  
    47   24   44 1  
    48   25   45 1  
    49   25   46 1  
    50   27   47 1  
@<TRIPOS>SUBSTRUCTURE
     1 9YY         1

