### 
### Created by X-TOOL on Mon Sep 10 21:13:34 2018
### 

@<TRIPOS>MOLECULE
5w85_ligand
   54    57     1     0     0
SMALL
GAST_HUCK


@<TRIPOS>ATOM
      1 C13         7.0450   42.4100   10.7180 C.3       1 9YS         0.0711
      2 C18         6.9430   44.7910   13.4650 C.ar      1 9YS        -0.0603
      3 C17         7.6750   44.2560   12.4080 C.ar      1 9YS        -0.0408
      4 C15         6.2240   41.6240   11.7300 C.3       1 9YS         0.0689
      5 C19         7.5610   45.1210   14.6620 C.ar      1 9YS        -0.0686
      6 C20         8.9200   44.9160   14.8210 C.ar      1 9YS        -0.0687
      7 C21         9.6590   44.3840   13.7780 C.ar      1 9YS        -0.0686
      8 C22         9.0400   44.0550   12.5820 C.ar      1 9YS        -0.0603
      9 C23        11.6280   43.0280    7.9050 C.ar      1 9YS         0.0552
     10 C24        11.4410   43.8230    9.0380 C.ar      1 9YS        -0.0246
     11 C12         3.1580   41.4430    5.6220 C.3       1 9YS         0.0186
     12 C27        13.7640   42.2710    8.7600 C.ar      1 9YS        -0.0605
     13 C1          6.5450   42.4590    6.9600 C.ar      1 9YS         0.0811
     14 C2          7.3080   42.6720    5.8150 C.ar      1 9YS         0.0051
     15 N3          8.6360   42.8380    5.8120 N.ar      1 9YS        -0.2921
     16 C4          9.2740   42.8060    6.9880 C.ar      1 9YS         0.1204
     17 C5          8.6120   42.5990    8.2010 C.ar      1 9YS         0.0084
     18 C6          7.2270   42.4240    8.1960 C.ar      1 9YS         0.0678
     19 N7          6.5090   42.2140    9.3710 N.pl3     1 9YS        -0.3065
     20 N8         10.6470   42.9950    6.9000 N.pl3     1 9YS        -0.2639
     21 C9          5.0600   42.2850    6.8930 C.2       1 9YS         0.1961
     22 N10         4.5830   41.6190    5.8430 N.am      1 9YS        -0.2920
     23 O11         4.3350   42.7410    7.7750 O.2       1 9YS        -0.3941
     24 C14         6.9990   43.9000   11.1060 C.3       1 9YS         0.0061
     25 O16         4.8250   41.8630   11.5700 O.3       1 9YS        -0.3926
     26 C25        12.4250   43.8240   10.0200 C.ar      1 9YS         0.0479
     27 C26        13.5900   43.0580    9.9000 C.ar      1 9YS         0.0272
     28 C28        12.7880   42.2590    7.7710 C.ar      1 9YS        -0.0446
     29 S29        12.4510   44.7030   11.5170 S.3       1 9YS        -0.0040
     30 C30        13.9940   43.9840   11.8590 C.2       1 9YS         0.0759
     31 N31        14.4730   43.1700   10.9750 N.2       1 9YS        -0.3013
     32 H1          8.0874   42.0596   10.7425 H         1 9YS         0.0601
     33 H2          5.8770   44.9515   13.3508 H         1 9YS         0.0557
     34 H3          6.5240   41.9253   12.7445 H         1 9YS         0.0582
     35 H4          6.4208   40.5505   11.5930 H         1 9YS         0.0582
     36 H5          6.9783   45.5402   15.4743 H         1 9YS         0.0599
     37 H6          9.4036   45.1705   15.7572 H         1 9YS         0.0559
     38 H7         10.7246   44.2243   13.8969 H         1 9YS         0.0599
     39 H8          9.6270   43.6360   11.7727 H         1 9YS         0.0557
     40 H9         10.5474   44.4265    9.1493 H         1 9YS         0.0478
     41 H10         2.9986   40.8650    4.6997 H         1 9YS         0.0482
     42 H11         2.6776   42.4278    5.5252 H         1 9YS         0.0482
     43 H12         2.7188   40.9029    6.4737 H         1 9YS         0.0482
     44 H13        14.6591   41.6702    8.6466 H         1 9YS         0.0564
     45 H14         6.7919   42.7056    4.8623 H         1 9YS         0.0804
     46 H15         9.1659   42.5747    9.1325 H         1 9YS         0.0515
     47 H16         5.5322   41.8986    9.2855 H         1 9YS         0.1821
     48 H17        11.0036   43.1333    5.9436 H         1 9YS         0.2128
     49 H18         5.2266   41.2274    5.1854 H         1 9YS         0.1834
     50 H19         5.9427   44.1979   11.1806 H         1 9YS         0.0449
     51 H20         7.4861   44.4738   10.3038 H         1 9YS         0.0449
     52 H21         4.3430   41.3589   12.2150 H         1 9YS         0.2095
     53 H22        12.9273   41.6474    6.8869 H         1 9YS         0.0496
     54 H23        14.5347   44.2084   12.7772 H         1 9YS         0.1219
@<TRIPOS>BOND
     1    1    4 1  
     2   19    1 1  
     3    1   24 1  
     4    3    2 ar 
     5    2    5 ar 
     6    3    8 ar 
     7   24    3 1  
     8    4   25 1  
     9    5    6 ar 
    10    7    6 ar 
    11    8    7 ar 
    12    9   10 ar 
    13   20    9 1  
    14    9   28 ar 
    15   10   26 ar 
    16   22   11 1  
    17   12   27 ar 
    18   28   12 ar 
    19   13   14 ar 
    20   13   18 ar 
    21   21   13 1  
    22   14   15 ar 
    23   15   16 ar 
    24   17   16 ar 
    25   16   20 1  
    26   18   17 ar 
    27   18   19 1  
    28   21   22 am 
    29   21   23 2  
    30   26   27 ar 
    31   26   29 1  
    32   27   31 1  
    33   29   30 1  
    34   30   31 2  
    35    1   32 1  
    36    2   33 1  
    37    4   34 1  
    38    4   35 1  
    39    5   36 1  
    40    6   37 1  
    41    7   38 1  
    42    8   39 1  
    43   10   40 1  
    44   11   41 1  
    45   11   42 1  
    46   11   43 1  
    47   12   44 1  
    48   14   45 1  
    49   17   46 1  
    50   19   47 1  
    51   20   48 1  
    52   22   49 1  
    53   24   50 1  
    54   24   51 1  
    55   25   52 1  
    56   28   53 1  
    57   30   54 1  
@<TRIPOS>SUBSTRUCTURE
     1 9YS         1

