### 
### Created by X-TOOL on Mon Sep 10 21:13:33 2018
### 

@<TRIPOS>MOLECULE
5w86_ligand
   65    68     1     0     0
SMALL
GAST_HUCK


@<TRIPOS>ATOM
      1 C13        17.5620   14.4100   11.9620 C.ar      1 9YV         0.0375
      2 C18        19.3120   15.2560   15.2420 C.3       1 9YV         0.0509
      3 C16        17.8230   15.0530   13.2890 C.2       1 9YV         0.1963
      4 C15        17.7950   12.6040   10.3730 C.ar      1 9YV        -0.0327
      5 C20        20.1820   16.5150   15.1520 C.3       1 9YV         0.0106
      6 C21        21.6490   16.1550   14.9210 C.3       1 9YV        -0.0300
      7 C23        21.3980   13.9920   15.9010 C.3       1 9YV        -0.0300
      8 C24        19.9110   14.2130   16.1920 C.3       1 9YV         0.0106
      9 C11        16.6330   14.6090    9.7420 C.ar      1 9YV        -0.0327
     10 C12        16.8570   15.1340   11.0020 C.ar      1 9YV        -0.0517
     11 C34        19.7810    9.5430   11.0080 C.ar      1 9YV        -0.0584
     12 C33        18.9280    8.8400   11.8490 C.ar      1 9YV        -0.0685
     13 C1         19.0780   10.3280    5.6060 C.ar      1 9YV         0.0813
     14 C2         17.9990   11.1250    5.2080 C.ar      1 9YV         0.0054
     15 N3         17.3560   11.9920    6.0040 N.ar      1 9YV        -0.2916
     16 C4         17.7830   12.1130    7.2610 C.ar      1 9YV         0.1221
     17 C5         18.8720   11.3910    7.7570 C.ar      1 9YV         0.0091
     18 C6         19.5300   10.4720    6.9400 C.ar      1 9YV         0.0694
     19 N7         20.5970    9.7210    7.4350 N.pl3     1 9YV        -0.3021
     20 C8         19.5700    9.2830    4.6490 C.2       1 9YV         0.1940
     21 N9         17.0050   12.9380    8.0560 N.pl3     1 9YV        -0.2587
     22 C10        17.1240   13.3490    9.4080 C.ar      1 9YV         0.0670
     23 C14        18.0130   13.1290   11.6370 C.ar      1 9YV        -0.0517
     24 N17        18.9630   14.7110   13.9270 N.am      1 9YV        -0.2845
     25 O19        17.0340   15.8770   13.7500 O.2       1 9YV        -0.3903
     26 N22        22.1420   15.2520   15.9610 N.4       1 9YV         0.2332
     27 C25        23.5860   15.0090   15.7910 C.3       1 9YV        -0.0431
     28 N26        19.2590    9.4210    3.3620 N.am      1 9YV        -0.3028
     29 O27        20.1640    8.2940    5.0660 O.2       1 9YV        -0.3942
     30 C28        21.0210    9.8180    8.8230 C.3       1 9YV         0.0609
     31 C29        20.1080    9.0480    9.7470 C.ar      1 9YV        -0.0211
     32 C30        19.5470    7.8350    9.3450 C.ar      1 9YV        -0.0584
     33 C31        18.6920    7.1330   10.1850 C.ar      1 9YV        -0.0685
     34 C32        18.3880    7.6310   11.4420 C.ar      1 9YV        -0.0687
     35 H1         18.3623   15.5725   15.6980 H         1 9YV         0.0559
     36 H2         18.1491   11.6076   10.1348 H         1 9YV         0.0548
     37 H3         20.0945   17.0800   16.0917 H         1 9YV         0.0339
     38 H4         19.8288   17.1367   14.3161 H         1 9YV         0.0339
     39 H5         22.2504   17.0760   14.9309 H         1 9YV         0.0815
     40 H6         21.7479   15.6630   13.9422 H         1 9YV         0.0815
     41 H7         21.5065   13.5588   14.8957 H         1 9YV         0.0815
     42 H8         21.8101   13.2961   16.6466 H         1 9YV         0.0815
     43 H9         19.3747   13.2611   16.0647 H         1 9YV         0.0339
     44 H10        19.7959   14.5630   17.2285 H         1 9YV         0.0339
     45 H11        16.0727   15.1808    9.0111 H         1 9YV         0.0548
     46 H12        16.4796   16.1205   11.2458 H         1 9YV         0.0639
     47 H13        20.1975   10.4883   11.3365 H         1 9YV         0.0557
     48 H14        18.6840    9.2387   12.8270 H         1 9YV         0.0599
     49 H15        17.6584   11.0353    4.1828 H         1 9YV         0.0804
     50 H16        19.2053   11.5453    8.7769 H         1 9YV         0.0517
     51 H17        21.0972    9.0815    6.8011 H         1 9YV         0.1842
     52 H18        16.1829   13.3275    7.5730 H         1 9YV         0.2150
     53 H19        18.5383   12.5399   12.3800 H         1 9YV         0.0639
     54 H20        19.5886   14.0657   13.4885 H         1 9YV         0.1844
     55 H21        21.9906   15.6778   16.8620 H         1 9YV         0.2030
     56 H22        24.1269   15.9656   15.8389 H         1 9YV         0.0777
     57 H23        23.7656   14.5348   14.8149 H         1 9YV         0.0777
     58 H24        23.9430   14.3454   16.5923 H         1 9YV         0.0777
     59 H25        19.5708    8.7426    2.6967 H         1 9YV         0.1802
     60 H26        18.7136   10.2031    3.0605 H         1 9YV         0.1802
     61 H27        21.0188   10.8765    9.1222 H         1 9YV         0.0683
     62 H28        22.0401    9.4138    8.9124 H         1 9YV         0.0683
     63 H29        19.7814    7.4356    8.3649 H         1 9YV         0.0557
     64 H30        18.2617    6.1938    9.8567 H         1 9YV         0.0599
     65 H31        17.7312    7.0774   12.1032 H         1 9YV         0.0559
@<TRIPOS>BOND
     1    1    3 1  
     2   10    1 ar 
     3   23    1 ar 
     4    2    5 1  
     5    2    8 1  
     6   24    2 1  
     7    3   24 am 
     8    3   25 2  
     9   22    4 ar 
    10    4   23 ar 
    11    5    6 1  
    12    6   26 1  
    13    8    7 1  
    14    7   26 1  
    15    9   10 ar 
    16   22    9 ar 
    17   11   12 ar 
    18   31   11 ar 
    19   12   34 ar 
    20   13   14 ar 
    21   18   13 ar 
    22   13   20 1  
    23   14   15 ar 
    24   16   15 ar 
    25   17   16 ar 
    26   16   21 1  
    27   18   17 ar 
    28   19   18 1  
    29   30   19 1  
    30   20   28 am 
    31   20   29 2  
    32   21   22 1  
    33   26   27 1  
    34   30   31 1  
    35   31   32 ar 
    36   32   33 ar 
    37   33   34 ar 
    38    2   35 1  
    39    4   36 1  
    40    5   37 1  
    41    5   38 1  
    42    6   39 1  
    43    6   40 1  
    44    7   41 1  
    45    7   42 1  
    46    8   43 1  
    47    8   44 1  
    48    9   45 1  
    49   10   46 1  
    50   11   47 1  
    51   12   48 1  
    52   14   49 1  
    53   17   50 1  
    54   19   51 1  
    55   21   52 1  
    56   23   53 1  
    57   24   54 1  
    58   26   55 1  
    59   27   56 1  
    60   27   57 1  
    61   27   58 1  
    62   28   59 1  
    63   28   60 1  
    64   30   61 1  
    65   30   62 1  
    66   32   63 1  
    67   33   64 1  
    68   34   65 1  
@<TRIPOS>SUBSTRUCTURE
     1 9YV         1

