### 
### Created by X-TOOL on Mon Sep 10 21:13:34 2018
### 

@<TRIPOS>MOLECULE
5w88_ligand
   27    28     1     0     0
SMALL
GAST_HUCK


@<TRIPOS>ATOM
      1 CAA         4.9260    0.4790    3.9800 C.3       1 9XG        -0.0339
      2 CAB         2.8620   -2.2390   -2.1870 C.ar      1 9XG        -0.0741
      3 CAC         2.9590   -0.8550   -2.0970 C.ar      1 9XG        -0.0723
      4 CAD         2.2090   -2.9580   -1.1920 C.ar      1 9XG        -0.0723
      5 CAE         1.4930   -0.6600    4.6470 C.ar      1 9XG        -0.0788
      6 CAF         2.8190   -0.3020    4.8550 C.ar      1 9XG        -0.0728
      7 CAG         2.4100   -0.1890   -1.0070 C.ar      1 9XG        -0.0399
      8 CAH         1.6600   -2.2900   -0.1030 C.ar      1 9XG        -0.0399
      9 CAI         0.9620   -0.6440    3.3630 C.ar      1 9XG        -0.0468
     10 CAJ         3.0850    0.0830    2.4930 C.ar      1 9XG        -0.0394
     11 CAL         3.6130    0.0770    3.7790 C.ar      1 9XG        -0.0567
     12 CAM         1.7610   -0.9080   -0.0100 C.ar      1 9XG         0.0579
     13 CAN         1.7600   -0.2750    2.2850 C.ar      1 9XG         0.0509
     14 NAK         1.2610   -0.2880    1.0530 N.pl3     1 9XG        -0.2766
     15 H1          5.1707    0.4103    5.0502 H         1 9XG         0.0389
     16 H2          5.0469    1.5189    3.6423 H         1 9XG         0.0389
     17 H3          5.6011   -0.1735    3.4069 H         1 9XG         0.0389
     18 H4          3.2960   -2.7582   -3.0339 H         1 9XG         0.0513
     19 H5          3.4627   -0.2951   -2.8767 H         1 9XG         0.0585
     20 H6          2.1281   -4.0365   -1.2651 H         1 9XG         0.0585
     21 H7          0.8724   -0.9519    5.4865 H         1 9XG         0.0569
     22 H8          3.2343   -0.3182    5.8561 H         1 9XG         0.0455
     23 H9          2.4880    0.8898   -0.9347 H         1 9XG         0.0529
     24 H10         1.1523   -2.8489    0.6747 H         1 9XG         0.0529
     25 H11        -0.0740   -0.9190    3.2014 H         1 9XG         0.0473
     26 H12         3.7080    0.3672    1.6526 H         1 9XG         0.0464
     27 H13         0.3898    0.2416    0.9064 H         1 9XG         0.2080
@<TRIPOS>BOND
     1   11    1 1  
     2    3    2 ar 
     3    4    2 ar 
     4    7    3 ar 
     5    8    4 ar 
     6    5    6 ar 
     7    9    5 ar 
     8   11    6 ar 
     9   12    7 ar 
    10   12    8 ar 
    11   13    9 ar 
    12   10   11 ar 
    13   13   10 ar 
    14   14   12 1  
    15   13   14 1  
    16    1   15 1  
    17    1   16 1  
    18    1   17 1  
    19    2   18 1  
    20    3   19 1  
    21    4   20 1  
    22    5   21 1  
    23    6   22 1  
    24    7   23 1  
    25    8   24 1  
    26    9   25 1  
    27   10   26 1  
    28   14   27 1  
@<TRIPOS>SUBSTRUCTURE
     1 9XG         1

