### 
### Created by X-TOOL on Wed Jan  1 15:39:35 2020
### 

@<TRIPOS>MOLECULE
5w8h_ligand
   30    32     1     0     0
SMALL
GAST_HUCK


@<TRIPOS>ATOM
      1 C11        44.6780   23.2710   48.4400 C.ar      1 9Y1         0.1328
      2 C13        43.4220   23.7000   48.8480 C.ar      1 9Y1        -0.0275
      3 C14        42.3420   22.8270   48.7950 C.ar      1 9Y1        -0.0544
      4 N15        41.4240   19.3800   47.6550 N.2       1 9Y1        -0.1217
      5 C17        39.8170   17.5660   47.4030 C.2       1 9Y1         0.2668
      6 C19        38.6130   15.8600   46.6500 C.2       1 9Y1         0.0510
      7 C20        37.3340   15.1790   46.1690 C.2       1 9Y1         0.0593
      8 C23        39.8090   15.2160   46.7490 C.2       1 9Y1         0.0284
      9 F01        37.0860   19.4000   48.1580 F         1 9Y1        -0.2388
     10 C02        38.0220   19.3960   49.1040 C.3       1 9Y1         0.3893
     11 F03        37.6040   20.2660   50.0360 F         1 9Y1        -0.2388
     12 F04        37.9190   18.1890   49.6900 F         1 9Y1        -0.2388
     13 C05        39.4240   19.6740   48.6480 C.2       1 9Y1         0.1796
     14 C06        40.1680   20.8020   48.9220 C.2       1 9Y1         0.0159
     15 C07        41.4150   20.6020   48.2820 C.2       1 9Y1         0.1037
     16 C08        42.5200   21.5220   48.3210 C.ar      1 9Y1        -0.0015
     17 C09        43.7910   21.0890   47.9220 C.ar      1 9Y1        -0.0544
     18 C10        44.8630   21.9610   47.9760 C.ar      1 9Y1        -0.0275
     19 F12        45.7050   24.1030   48.4920 F         1 9Y1        -0.1830
     20 N16        40.2220   18.8340   47.8690 N.pl3     1 9Y1        -0.0873
     21 N18        38.6190   17.2170   47.0330 N.2       1 9Y1        -0.2737
     22 O21        36.3620   15.9380   46.0620 O.co2     1 9Y1        -0.5647
     23 O22        37.4180   13.9550   45.9590 O.co2     1 9Y1        -0.5647
     24 S24        41.0550   16.2660   47.3340 S.3       1 9Y1         0.0436
     25 H1         43.2842   24.7135   49.2070 H         1 9Y1         0.0605
     26 H2         41.3620   23.1566   49.1206 H         1 9Y1         0.0612
     27 H3         39.9627   14.1690   46.4917 H         1 9Y1         0.0789
     28 H4         39.8606   21.6666   49.5085 H         1 9Y1         0.0837
     29 H5         43.9339   20.0731   47.5718 H         1 9Y1         0.0612
     30 H6         45.8461   21.6317   47.6596 H         1 9Y1         0.0605
@<TRIPOS>BOND
     1    2    1 ar 
     2    1   18 ar 
     3    1   19 1  
     4    3    2 ar 
     5   16    3 ar 
     6   15    4 2  
     7    4   20 1  
     8   20    5 1  
     9    5   21 2  
    10    5   24 1  
    11    6    7 1  
    12    8    6 2  
    13   21    6 1  
    14    7   22 ar 
    15    7   23 ar 
    16   24    8 1  
    17   10    9 1  
    18   10   11 1  
    19   10   12 1  
    20   13   10 1  
    21   14   13 2  
    22   13   20 1  
    23   15   14 1  
    24   15   16 1  
    25   16   17 ar 
    26   17   18 ar 
    27    2   25 1  
    28    3   26 1  
    29    8   27 1  
    30   14   28 1  
    31   17   29 1  
    32   18   30 1  
@<TRIPOS>SUBSTRUCTURE
     1 9Y1         1

