### 
### Created by X-TOOL on Wed Jan  1 15:39:35 2020
### 

@<TRIPOS>MOLECULE
5w8i_ligand
   28    30     1     0     0
SMALL
GAST_HUCK


@<TRIPOS>ATOM
      1 C2         45.6810   22.6650   48.6200 C.ar      1 9YD         0.1657
      2 C3         44.4440   23.0920   49.0350 C.ar      1 9YD         0.1658
      3 C4         43.2900   22.3450   48.8010 C.ar      1 9YD        -0.0225
      4 C5         43.4010   21.1300   48.1400 C.ar      1 9YD        -0.0228
      5 C6         44.6480   20.6550   47.7220 C.ar      1 9YD        -0.0600
      6 C12        40.1240   19.6800   47.6760 C.2       1 9YD         0.2311
      7 C13        40.8940   20.7900   47.9470 C.2       1 9YD        -0.0111
      8 C15        40.6010   17.3680   47.2850 C.2       1 9YD         0.2541
      9 O21        36.9980   15.8010   46.5120 O.co2     1 9YD        -0.5650
     10 F1         46.7340   23.4820   48.8740 F         1 9YD        -0.1838
     11 C7         45.7990   21.4230   47.9650 C.ar      1 9YD        -0.0291
     12 F8         44.3730   24.2570   49.6720 F         1 9YD        -0.1843
     13 C9         42.1920   20.3310   47.9260 C.2       1 9YD         0.0195
     14 N10        42.2280   19.0160   47.6990 N.2       1 9YD        -0.2109
     15 N11        40.9360   18.6390   47.5540 N.pl3     1 9YD        -0.0947
     16 O14        38.6650   19.6580   47.6300 O.3       1 9YD        -0.2986
     17 S16        41.7700   16.0880   47.2180 S.3       1 9YD         0.0376
     18 C17        40.4630   14.9920   46.8270 C.2       1 9YD         0.0237
     19 C18        39.2550   15.6490   46.7700 C.2       1 9YD         0.0445
     20 N19        39.3660   16.9810   47.0300 N.2       1 9YD        -0.2826
     21 C20        37.9500   15.0260   46.4830 C.2       1 9YD         0.0576
     22 O22        37.8030   13.7800   46.2430 O.co2     1 9YD        -0.5650
     23 H1         42.3227   22.7073   49.1299 H         1 9YD         0.0595
     24 H2         44.7260   19.7006   47.2139 H         1 9YD         0.0578
     25 H3         40.5515   21.8063   48.1361 H         1 9YD         0.0228
     26 H4         46.7717   21.0624   47.6506 H         1 9YD         0.0595
     27 H5         38.3324   20.5405   47.7439 H         1 9YD         0.2563
     28 H6         40.5895   13.9248   46.6510 H         1 9YD         0.0751
@<TRIPOS>BOND
     1    2    1 ar 
     2    1   10 1  
     3   11    1 ar 
     4    3    2 ar 
     5    2   12 1  
     6    4    3 ar 
     7    4    5 ar 
     8   13    4 1  
     9    5   11 ar 
    10    6    7 2  
    11   15    6 1  
    12    6   16 1  
    13   13    7 1  
    14    8   15 1  
    15    8   17 1  
    16   20    8 2  
    17   21    9 ar 
    18   14   13 2  
    19   15   14 1  
    20   18   17 1  
    21   19   18 2  
    22   19   20 1  
    23   19   21 1  
    24   21   22 ar 
    25    3   23 1  
    26    5   24 1  
    27    7   25 1  
    28   11   26 1  
    29   16   27 1  
    30   18   28 1  
@<TRIPOS>SUBSTRUCTURE
     1 9YD         1

