### 
### Created by X-TOOL on Wed Jan  1 15:39:35 2020
### 

@<TRIPOS>MOLECULE
5w8j_ligand
   46    49     1     0     0
SMALL
GAST_HUCK


@<TRIPOS>ATOM
      1 C10        40.3210   20.5820   48.4390 C.2       1 9Y7         0.0192
      2 C11        39.5270   19.5210   48.0670 C.2       1 9Y7         0.2323
      3 C18        45.1320   20.9580   49.5360 C.ar      1 9Y7        -0.0297
      4 C19        45.3590   22.2700   49.1070 C.ar      1 9Y7         0.1651
      5 C22        43.1140   22.2650   48.0420 C.ar      1 9Y7        -0.0233
      6 C26        38.6990   15.5030   46.6650 C.2       1 9Y7         0.0442
      7 C27        39.8790   14.8460   46.8580 C.2       1 9Y7         0.0235
      8 C29        37.4080   14.8570   46.2750 C.2       1 9Y7         0.0576
      9 N01        37.9070   26.8270   44.9340 N.am      1 9Y7        -0.2617
     10 S02        39.4580   26.3800   45.1170 S.o2      1 9Y7         0.0627
     11 O03        39.9090   25.9530   43.8220 O.2       1 9Y7        -0.1514
     12 O04        40.1690   27.4960   45.7150 O.2       1 9Y7        -0.1514
     13 C05        39.5590   25.0940   46.2060 C.ar      1 9Y7         0.1007
     14 C06        39.0990   23.8340   45.8520 C.ar      1 9Y7        -0.0421
     15 C07        39.1870   22.7800   46.7520 C.ar      1 9Y7        -0.0579
     16 C08        39.7340   22.9710   48.0080 C.ar      1 9Y7        -0.0400
     17 C09        39.8260   21.8640   48.9550 C.3       1 9Y7        -0.0026
     18 O12        38.1860   19.4930   48.1200 O.3       1 9Y7        -0.3057
     19 N13        40.3810   18.5140   47.6140 N.pl3     1 9Y7        -0.1013
     20 N14        41.6930   18.9010   47.7370 N.2       1 9Y7        -0.2146
     21 C15        41.6780   20.1940   48.2160 C.2       1 9Y7         0.0264
     22 C16        42.9260   20.9480   48.4780 C.ar      1 9Y7        -0.0237
     23 C17        43.9380   20.3200   49.2280 C.ar      1 9Y7        -0.0608
     24 F20        46.4550   22.8890   49.3760 F         1 9Y7        -0.1843
     25 C21        44.3480   22.9390   48.3540 C.ar      1 9Y7         0.1652
     26 F23        44.5670   24.1430   47.9650 F         1 9Y7        -0.1845
     27 C24        39.9540   17.2960   47.2430 C.2       1 9Y7         0.2520
     28 N25        38.7750   16.9070   46.9170 N.2       1 9Y7        -0.2832
     29 S28        41.1530   15.9880   47.3710 S.3       1 9Y7         0.0371
     30 O30        37.4930   13.6440   46.0650 O.co2     1 9Y7        -0.5650
     31 O31        36.4060   15.6140   46.2700 O.co2     1 9Y7        -0.5650
     32 C32        40.1990   24.2320   48.3560 C.ar      1 9Y7        -0.0579
     33 C33        40.1120   25.2780   47.4660 C.ar      1 9Y7        -0.0421
     34 H1         45.8903   20.4382   50.1104 H         1 9Y7         0.0593
     35 H2         42.3402   22.7713   47.4764 H         1 9Y7         0.0590
     36 H3         40.0238   13.7757   46.7188 H         1 9Y7         0.0750
     37 H4         37.2471   26.1907   44.5345 H         1 9Y7         0.1634
     38 H5         37.6121   27.7385   45.2209 H         1 9Y7         0.1634
     39 H6         38.6696   23.6717   44.8700 H         1 9Y7         0.0618
     40 H7         38.8238   21.7990   46.4677 H         1 9Y7         0.0557
     41 H8         40.4997   22.1771   49.7662 H         1 9Y7         0.0485
     42 H9         38.8185   21.6909   49.3613 H         1 9Y7         0.0485
     43 H10        37.9072   18.7783   48.6803 H         1 9Y7         0.2524
     44 H11        43.7801   19.3057   49.5763 H         1 9Y7         0.0573
     45 H12        40.6337   24.3938   49.3358 H         1 9Y7         0.0557
     46 H13        40.4795   26.2569   47.7521 H         1 9Y7         0.0618
@<TRIPOS>BOND
     1    2    1 2  
     2    1   17 1  
     3   21    1 1  
     4    2   18 1  
     5   19    2 1  
     6    3    4 ar 
     7   23    3 ar 
     8    4   24 1  
     9   25    4 ar 
    10   22    5 ar 
    11    5   25 ar 
    12    6    7 2  
    13    6    8 1  
    14   28    6 1  
    15    7   29 1  
    16    8   30 ar 
    17    8   31 ar 
    18   10    9 am 
    19   10   11 2  
    20   10   12 2  
    21   13   10 1  
    22   14   13 ar 
    23   13   33 ar 
    24   15   14 ar 
    25   16   15 ar 
    26   17   16 1  
    27   16   32 ar 
    28   19   20 1  
    29   27   19 1  
    30   20   21 2  
    31   21   22 1  
    32   22   23 ar 
    33   25   26 1  
    34   27   28 2  
    35   27   29 1  
    36   32   33 ar 
    37    3   34 1  
    38    5   35 1  
    39    7   36 1  
    40    9   37 1  
    41    9   38 1  
    42   14   39 1  
    43   15   40 1  
    44   17   41 1  
    45   17   42 1  
    46   18   43 1  
    47   23   44 1  
    48   32   45 1  
    49   33   46 1  
@<TRIPOS>SUBSTRUCTURE
     1 9Y7         1

