### 
### Created by X-TOOL on Wed Jan  1 15:39:38 2020
### 

@<TRIPOS>MOLECULE
5w92_ligand
   58    61     1     0     0
SMALL
GAST_HUCK


@<TRIPOS>ATOM
      1 C1        127.2480  104.8850  417.0000 C.ar      1 KU0         0.0887
      2 C10       134.5790  102.3930  420.1830 C.ar      1 KU0         0.0882
      3 C11       133.6410  101.3750  420.1840 C.ar      1 KU0        -0.0369
      4 C12       132.5660  101.4410  421.0540 C.ar      1 KU0        -0.0600
      5 C13       132.4370  102.5030  421.9220 C.ar      1 KU0        -0.0616
      6 C14       133.3760  103.5080  421.9250 C.ar      1 KU0        -0.0600
      7 C15       134.4550  103.4580  421.0580 C.ar      1 KU0        -0.0369
      8 C16       131.3380  105.9260  419.9670 C.2       1 KU0         0.1828
      9 C17       130.0440  105.7380  420.4640 C.2       1 KU0         0.2603
     10 C18       129.4790  101.2800  419.0190 C.3       1 KU0        -0.0084
     11 C19       130.5870  100.8230  418.0800 C.3       1 KU0        -0.0274
     12 C2        128.5210  104.6940  416.4600 C.ar      1 KU0         0.0973
     13 C20       130.0190  101.1880  416.7290 C.3       1 KU0         0.0374
     14 C21       129.3390  105.8200  416.3500 C.ar      1 KU0         0.0887
     15 C22       128.8560  107.0570  416.7550 C.ar      1 KU0         0.0308
     16 C23       126.8470  106.1570  417.3830 C.ar      1 KU0         0.0308
     17 C3        129.0380  103.3500  416.0420 C.2       1 KU0         0.2208
     18 C4        129.1130  102.6640  418.4560 C.3       1 KU0         0.1310
     19 C5        129.8870  103.8300  419.0300 C.2       1 KU0         0.1641
     20 C6        131.8370  105.0700  419.0250 C.2       1 KU0         0.1060
     21 C7        133.2250  105.2160  418.4500 C.2       1 KU0         0.2003
     22 C8        134.9990  104.0800  417.2120 C.3       1 KU0         0.0497
     23 C9        136.0390  103.9080  418.3020 C.3       1 KU0         0.0908
     24 N1        129.3580  102.4740  417.0040 N.am      1 KU0        -0.2469
     25 N2        131.1180  104.0420  418.5570 N.2       1 KU0        -0.3043
     26 N3        133.6400  104.1870  417.7200 N.am      1 KU0        -0.2868
     27 N4        129.3370  104.6640  419.9660 N.am      1 KU0        -0.1947
     28 N5        127.6370  107.2200  417.2610 N.ar      1 KU0        -0.2911
     29 O1        129.2270  103.0900  414.8550 O.2       1 KU0        -0.3791
     30 O2        133.9150  106.2060  418.6700 O.2       1 KU0        -0.3921
     31 O3        135.6890  101.3380  418.0720 O.2       1 KU0        -0.1693
     32 O4        137.1440  102.1480  419.8850 O.2       1 KU0        -0.1693
     33 O5        132.0180  106.9700  420.4620 O.3       1 KU0        -0.3268
     34 O6        129.5130  106.4650  421.3180 O.2       1 KU0        -0.3954
     35 S1        135.9620  102.3160  419.0850 S.o2      1 KU0        -0.0012
     36 CL1       126.1610  103.5610  417.1960 Cl        1 KU0        -0.0550
     37 CL2       130.9300  105.6930  415.6950 Cl        1 KU0        -0.0550
     38 H1        133.7472  100.5332  419.5093 H         1 KU0         0.0636
     39 H2        131.8218  100.6528  421.0522 H         1 KU0         0.0618
     40 H3        131.5948  102.5466  422.6031 H         1 KU0         0.0618
     41 H4        133.2712  104.3426  422.6087 H         1 KU0         0.0618
     42 H5        135.1974  104.2478  421.0648 H         1 KU0         0.0636
     43 H6        129.8420  101.3558  420.0546 H         1 KU0         0.0321
     44 H7        128.6187  100.5956  418.9811 H         1 KU0         0.0321
     45 H8        130.7599   99.7398  418.1621 H         1 KU0         0.0288
     46 H9        131.5263  101.3603  418.2777 H         1 KU0         0.0288
     47 H10       129.2960  100.4342  416.3839 H         1 KU0         0.0525
     48 H11       130.8159  101.3020  415.9794 H         1 KU0         0.0525
     49 H12       129.4981  107.9246  416.6548 H         1 KU0         0.0842
     50 H13       125.8538  106.2891  417.7967 H         1 KU0         0.0842
     51 H14       128.0456  102.8603  418.6350 H         1 KU0         0.0845
     52 H15       135.0521  103.2112  416.5395 H         1 KU0         0.0535
     53 H16       135.2332  104.9950  416.6482 H         1 KU0         0.0535
     54 H17       135.8784  104.6830  419.0659 H         1 KU0         0.0524
     55 H18       137.0374  104.0326  417.8574 H         1 KU0         0.0524
     56 H19       132.9913  103.4553  417.5108 H         1 KU0         0.1838
     57 H20       128.4081  104.4916  420.2937 H         1 KU0         0.2537
     58 H21       132.8125  106.6595  420.8800 H         1 KU0         0.2490
@<TRIPOS>BOND
     1   12    1 ar 
     2    1   16 ar 
     3    1   36 1  
     4    2    3 ar 
     5    2    7 ar 
     6   35    2 1  
     7    3    4 ar 
     8    4    5 ar 
     9    6    5 ar 
    10    7    6 ar 
    11    8    9 1  
    12   20    8 2  
    13    8   33 1  
    14    9   27 am 
    15    9   34 2  
    16   10   11 1  
    17   18   10 1  
    18   13   11 1  
    19   12   14 ar 
    20   17   12 1  
    21   24   13 1  
    22   14   15 ar 
    23   14   37 1  
    24   15   28 ar 
    25   16   28 ar 
    26   24   17 am 
    27   17   29 2  
    28   19   18 1  
    29   18   24 1  
    30   25   19 2  
    31   19   27 1  
    32   21   20 1  
    33   20   25 1  
    34   26   21 am 
    35   21   30 2  
    36   23   22 1  
    37   22   26 1  
    38   23   35 1  
    39   35   31 2  
    40   35   32 2  
    41    3   38 1  
    42    4   39 1  
    43    5   40 1  
    44    6   41 1  
    45    7   42 1  
    46   10   43 1  
    47   10   44 1  
    48   11   45 1  
    49   11   46 1  
    50   13   47 1  
    51   13   48 1  
    52   15   49 1  
    53   16   50 1  
    54   18   51 1  
    55   22   52 1  
    56   22   53 1  
    57   23   54 1  
    58   23   55 1  
    59   26   56 1  
    60   27   57 1  
    61   33   58 1  
@<TRIPOS>SUBSTRUCTURE
     1 KU0         1

