### 
### Created by X-TOOL on Mon Sep 10 21:13:31 2018
### 

@<TRIPOS>MOLECULE
5w99_ligand
   45    49     1     0     0
SMALL
GAST_HUCK


@<TRIPOS>ATOM
      1 C10        21.6860   -1.7720    2.9780 C.2       1 A1V         0.0473
      2 C13        20.6470   -1.4860    2.0010 C.ar      1 A1V         0.0637
      3 C15        19.9350   -2.0970   -0.1560 C.ar      1 A1V         0.0843
      4 C17        18.6070   -0.5900    1.0690 C.ar      1 A1V        -0.0304
      5 C21        18.2760    1.2400    5.0780 C.2       1 A1V         0.0602
      6 C22        19.3330    2.0240    5.0640 C.2       1 A1V         0.0319
      7 C24        17.0780    1.4460    6.1080 C.2       1 A1V         0.0625
      8 N01        26.7390   -1.1210    9.0990 N.4       1 A1V         0.2376
      9 C02        25.4100   -1.4900    9.3310 C.3       1 A1V         0.0359
     10 C03        24.3770   -1.2490    8.1580 C.2       1 A1V         0.1417
     11 N04        24.3220   -1.8020    6.9440 N.2       1 A1V        -0.3046
     12 C05        23.1690   -1.3900    6.2210 C.2       1 A1V         0.0579
     13 C06        22.4430   -0.4770    6.9050 C.2       1 A1V         0.0303
     14 S07        23.1310   -0.1830    8.4590 S.3       1 A1V         0.0149
     15 C08        22.8150   -1.7670    4.9240 C.2       1 A1V         0.1096
     16 N09        21.6850   -1.3120    4.2590 N.2       1 A1V        -0.3081
     17 C11        22.7350   -2.5840    2.6640 C.2       1 A1V         0.0296
     18 S12        23.8070   -2.7870    4.0330 S.3       1 A1V         0.0014
     19 N14        20.8240   -2.1640    0.8600 N.ar      1 A1V        -0.2846
     20 C16        18.7760   -1.3420   -0.0800 C.ar      1 A1V        -0.0229
     21 C18        19.5250   -0.6640    2.2090 C.ar      1 A1V         0.0493
     22 C19        19.2460    0.1990    3.3900 C.2       1 A1V         0.1204
     23 N20        18.2190    0.2040    4.1290 N.2       1 A1V        -0.2959
     24 S23        20.3640    1.4850    3.7720 S.3       1 A1V         0.0033
     25 O25        17.1330    2.4150    6.8340 O.co2     1 A1V        -0.5643
     26 O26        16.1880    0.6400    6.0210 O.co2     1 A1V        -0.5643
     27 C27        20.2450   -2.8190   -1.3110 C.2       1 A1V         0.1333
     28 N28        19.5390   -3.0620   -2.4140 N.2       1 A1V        -0.2900
     29 C29        20.2120   -3.9150   -3.2910 C.2       1 A1V         0.0644
     30 C30        21.4350   -4.2790   -2.8800 C.2       1 A1V         0.0348
     31 S31        21.8970   -3.5720   -1.3780 S.3       1 A1V         0.0075
     32 C32        19.5810   -4.3490   -4.5760 C.2       1 A1V         0.0633
     33 O33        20.2830   -4.9810   -5.4310 O.co2     1 A1V        -0.5642
     34 O34        18.4050   -4.0240   -4.7890 O.co2     1 A1V        -0.5642
     35 H1         17.7592    0.0828    1.1286 H         1 A1V         0.0751
     36 H2         19.5263    2.8573    5.7379 H         1 A1V         0.0856
     37 H3         27.2918   -1.3242    9.9170 H         1 A1V         0.2015
     38 H4         26.7838   -0.1339    8.8999 H         1 A1V         0.2015
     39 H5         27.0992   -1.6390    8.3129 H         1 A1V         0.2015
     40 H6         25.0568   -0.9225   10.2046 H         1 A1V         0.1080
     41 H7         25.4010   -2.5650    9.5640 H         1 A1V         0.1080
     42 H8         21.5446    0.0076    6.5256 H         1 A1V         0.0825
     43 H9         22.8863   -3.0458    1.6894 H         1 A1V         0.0856
     44 H10        18.0415   -1.3405   -0.8773 H         1 A1V         0.0709
     45 H11        22.0756   -4.9570   -3.4419 H         1 A1V         0.0878
@<TRIPOS>BOND
     1    2    1 1  
     2    1   16 1  
     3    1   17 2  
     4    2   19 ar 
     5   21    2 ar 
     6   19    3 ar 
     7   20    3 ar 
     8    3   27 1  
     9    4   20 ar 
    10   21    4 ar 
    11    5    6 2  
    12    5    7 1  
    13   23    5 1  
    14    6   24 1  
    15    7   25 ar 
    16    7   26 ar 
    17    9    8 1  
    18   10    9 1  
    19   11   10 2  
    20   14   10 1  
    21   12   11 1  
    22   12   13 2  
    23   15   12 1  
    24   13   14 1  
    25   16   15 2  
    26   18   15 1  
    27   17   18 1  
    28   22   21 1  
    29   22   23 2  
    30   22   24 1  
    31   27   28 2  
    32   27   31 1  
    33   28   29 1  
    34   29   30 2  
    35   29   32 1  
    36   30   31 1  
    37   32   33 ar 
    38   32   34 ar 
    39    4   35 1  
    40    6   36 1  
    41    8   37 1  
    42    8   38 1  
    43    8   39 1  
    44    9   40 1  
    45    9   41 1  
    46   13   42 1  
    47   17   43 1  
    48   20   44 1  
    49   30   45 1  
@<TRIPOS>SUBSTRUCTURE
     1 A1V         1

