### 
### Created by X-TOOL on Mon Sep 10 21:13:34 2018
### 

@<TRIPOS>MOLECULE
5w9g_ligand
   61    64     1     0     0
SMALL
GAST_HUCK


@<TRIPOS>ATOM
      1 C10       -56.3460  173.5120  285.3820 C.2       1 KU2         0.1937
      2 C13       -57.9550  178.3730  283.8320 C.3       1 KU2         0.0903
      3 C14       -61.7280  170.7650  286.9100 C.ar      1 KU2        -0.0681
      4 C17       -59.8160  171.8250  285.1940 C.ar      1 KU2         0.0319
      5 C18       -59.7970  170.4850  285.5240 C.ar      1 KU2        -0.0490
      6 C19       -60.7500  169.9580  286.3770 C.ar      1 KU2        -0.0676
      7 C20       -57.4460  175.1390  279.9900 C.ar      1 KU2        -0.0729
      8 C21       -58.6740  175.7280  280.1680 C.ar      1 KU2        -0.0706
      9 C22       -58.9810  176.3640  281.3590 C.ar      1 KU2        -0.0331
     10 C24       -56.8150  175.8110  282.1990 C.ar      1 KU2        -0.0331
     11 C25       -56.5180  175.1800  281.0020 C.ar      1 KU2        -0.0706
     12 C1        -58.2360  174.2950  288.0780 C.2       1 KU2         0.1641
     13 C11       -57.1850  172.2580  285.2410 C.3       1 KU2         0.0970
     14 C12       -58.5880  178.8330  285.1200 C.3       1 KU2         0.0577
     15 C15       -61.7630  172.1060  286.6050 C.ar      1 KU2        -0.0538
     16 C16       -60.8150  172.6360  285.7540 C.ar      1 KU2         0.0518
     17 C2        -59.5130  176.2120  287.6670 C.2       1 KU2         0.1060
     18 C23       -58.0470  176.4050  282.3730 C.ar      1 KU2         0.0912
     19 C3        -60.5040  175.7840  288.4980 C.2       1 KU2         0.1828
     20 C4        -60.3410  174.5270  289.1660 C.2       1 KU2         0.2603
     21 C5        -59.5980  177.4980  286.9220 C.2       1 KU2         0.2003
     22 C6        -55.4410  175.2290  288.4820 C.3       1 KU2        -0.0274
     23 C7        -55.8620  173.8130  288.8530 C.3       1 KU2        -0.0084
     24 C8        -56.9520  173.5420  287.8070 C.3       1 KU2         0.1312
     25 C9        -55.3200  175.1460  286.9700 C.3       1 KU2         0.0377
     26 N1        -58.4120  175.4730  287.4710 N.2       1 KU2        -0.3043
     27 N2        -59.1870  173.8070  288.9260 N.am      1 KU2        -0.1947
     28 N3        -58.5640  177.7830  286.1280 N.am      1 KU2        -0.2858
     29 N4        -56.2330  174.0370  286.6160 N.am      1 KU2        -0.2484
     30 O1        -61.6070  176.5200  288.6920 O.3       1 KU2        -0.3268
     31 O2        -61.2060  174.0940  289.9310 O.2       1 KU2        -0.3954
     32 O3        -60.5750  178.2420  287.0200 O.2       1 KU2        -0.3921
     33 O4        -55.7680  174.0160  284.4120 O.2       1 KU2        -0.3956
     34 O5        -58.3530  177.0270  283.5570 O.3       1 KU2        -0.3160
     35 S1        -58.5970  172.4980  284.1220 S.3       1 KU2        -0.0791
     36 CL1       -60.8870  174.3260  285.3860 Cl        1 KU2        -0.0763
     37 H1        -56.8599  178.4194  283.9250 H         1 KU2         0.0634
     38 H2        -58.2812  179.0267  283.0096 H         1 KU2         0.0634
     39 H3        -62.4743  170.3426  287.5731 H         1 KU2         0.0559
     40 H4        -59.0292  169.8404  285.1115 H         1 KU2         0.0565
     41 H5        -60.7259  168.9034  286.6267 H         1 KU2         0.0601
     42 H6        -57.2102  174.6439  279.0549 H         1 KU2         0.0523
     43 H7        -59.4077  175.6947  279.3707 H         1 KU2         0.0589
     44 H8        -59.9514  176.8278  281.4939 H         1 KU2         0.0542
     45 H9        -56.0811  175.8376  282.9963 H         1 KU2         0.0542
     46 H10       -55.5481  174.7161  280.8632 H         1 KU2         0.0589
     47 H11       -57.5641  171.9721  286.2332 H         1 KU2         0.0642
     48 H12       -56.5517  171.4510  284.8439 H         1 KU2         0.0642
     49 H13       -59.6324  179.1172  284.9241 H         1 KU2         0.0545
     50 H14       -58.0355  179.7055  285.4988 H         1 KU2         0.0545
     51 H15       -62.5305  172.7423  287.0306 H         1 KU2         0.0605
     52 H16       -54.4784  175.4924  288.9446 H         1 KU2         0.0288
     53 H17       -56.2043  175.9626  288.7807 H         1 KU2         0.0288
     54 H18       -56.2645  173.7670  289.8757 H         1 KU2         0.0321
     55 H19       -55.0255  173.1053  288.7560 H         1 KU2         0.0321
     56 H20       -57.1803  172.4689  287.7271 H         1 KU2         0.0845
     57 H21       -54.2870  174.9172  286.6693 H         1 KU2         0.0525
     58 H22       -55.6399  176.0861  286.4969 H         1 KU2         0.0525
     59 H23       -59.0479  172.9246  289.3755 H         1 KU2         0.2537
     60 H24       -57.7268  177.2459  286.2311 H         1 KU2         0.1839
     61 H25       -61.5501  177.3158  288.1762 H         1 KU2         0.2490
@<TRIPOS>BOND
     1    1   13 1  
     2   29    1 am 
     3    1   33 2  
     4   14    2 1  
     5    2   34 1  
     6    6    3 ar 
     7   15    3 ar 
     8    4    5 ar 
     9    4   16 ar 
    10   35    4 1  
    11    5    6 ar 
    12    8    7 ar 
    13   11    7 ar 
    14    9    8 ar 
    15   18    9 ar 
    16   10   11 ar 
    17   18   10 ar 
    18   24   12 1  
    19   12   26 2  
    20   12   27 1  
    21   13   35 1  
    22   28   14 1  
    23   16   15 ar 
    24   16   36 1  
    25   17   19 2  
    26   17   21 1  
    27   26   17 1  
    28   34   18 1  
    29   20   19 1  
    30   19   30 1  
    31   27   20 am 
    32   20   31 2  
    33   21   28 am 
    34   21   32 2  
    35   23   22 1  
    36   22   25 1  
    37   24   23 1  
    38   24   29 1  
    39   25   29 1  
    40    2   37 1  
    41    2   38 1  
    42    3   39 1  
    43    5   40 1  
    44    6   41 1  
    45    7   42 1  
    46    8   43 1  
    47    9   44 1  
    48   10   45 1  
    49   11   46 1  
    50   13   47 1  
    51   13   48 1  
    52   14   49 1  
    53   14   50 1  
    54   15   51 1  
    55   22   52 1  
    56   22   53 1  
    57   23   54 1  
    58   23   55 1  
    59   24   56 1  
    60   25   57 1  
    61   25   58 1  
    62   27   59 1  
    63   28   60 1  
    64   30   61 1  
@<TRIPOS>SUBSTRUCTURE
     1 KU2         1

