### 
### Created by X-TOOL on Mon Aug  2 16:12:16 2021
### 

@<TRIPOS>MOLECULE
5wa5_ligand
   82    87     1     0     0
SMALL
GAST_HUCK


@<TRIPOS>ATOM
      1 C4        -15.1360   11.2040   -6.7690 C.ar      1 MOL         0.1645
      2 C5        -14.5140   11.5760   -8.0650 C.ar      1 MOL         0.1307
      3 C6        -14.5380   10.6220   -9.0690 C.ar      1 MOL         0.0207
      4 N1        -15.1280    9.4440   -8.8570 N.ar      1 MOL        -0.2872
      5 N3        -15.7140    9.9880   -6.6430 N.ar      1 MOL        -0.2472
      6 CAU       -13.9150    4.5440    0.9920 C.3       1 MOL         0.0097
      7 CAS       -13.2780    5.2560    2.1800 C.3       1 MOL         0.0092
      8 NBL       -13.7700    4.6710    3.4340 N.4       1 MOL         0.2405
      9 CAB       -13.1630    5.3710    4.5730 C.3       1 MOL        -0.0427
     10 CAT       -15.2320    4.8030    3.4940 C.3       1 MOL         0.0092
     11 CAV       -15.8670    4.0890    2.3060 C.3       1 MOL         0.0097
     12 NBN       -15.3770    4.6780    1.0530 N.4       1 MOL         0.2449
     13 CBK       -15.9760    3.9970   -0.1050 C.3       1 MOL        -0.0167
     14 CAP       -15.4770    4.6620   -1.3850 C.3       1 MOL         0.0107
     15 CAR       -16.1880    4.1270   -2.6240 C.3       1 MOL         0.0382
     16 CAO       -17.4980    4.0680   -0.0230 C.3       1 MOL         0.0107
     17 CAQ       -18.1550    3.5480   -1.2970 C.3       1 MOL         0.0382
     18 NBM       -17.6040    4.3450   -2.3820 N.am      1 MOL        -0.2739
     19 CBA       -18.3510    5.2060   -3.0740 C.2       1 MOL         0.1959
     20 OAE       -19.5050    5.4250   -2.7500 O.2       1 MOL        -0.3902
     21 CBB       -17.8000    5.9280   -4.2760 C.ar      1 MOL         0.0287
     22 CAN       -17.5170    5.2120   -5.4330 C.ar      1 MOL        -0.0230
     23 CBE       -17.0170    5.8720   -6.5480 C.ar      1 MOL         0.1199
     24 OAZ       -16.7210    5.1970   -7.6990 O.3       1 MOL        -0.3244
     25 CAA       -16.0280    3.9520   -7.6340 C.3       1 MOL         0.0570
     26 CAI       -17.5990    7.3100   -4.2320 C.ar      1 MOL        -0.0628
     27 CAJ       -17.0990    8.0130   -5.3330 C.ar      1 MOL        -0.0406
     28 CBC       -16.8040    7.3340   -6.5080 C.ar      1 MOL         0.0980
     29 NAY       -16.2690    7.8970   -7.6170 N.pl3     1 MOL        -0.2525
     30 C2        -15.7140    9.1250   -7.6810 C.ar      1 MOL         0.1790
     31 NBP       -15.1650   12.0760   -5.6840 N.pl3     1 MOL        -0.2441
     32 CAD       -14.6640   11.6370   -4.3910 C.3       1 MOL         0.0374
     33 CBH       -15.7240   13.3430   -5.8300 C.ar      1 MOL         0.0853
     34 CAL       -16.7430   13.7270   -4.9710 C.ar      1 MOL        -0.0326
     35 CAH       -17.3300   14.9800   -5.0930 C.ar      1 MOL        -0.0674
     36 CAG       -16.9140   15.8670   -6.0790 C.ar      1 MOL        -0.0679
     37 CAK       -15.9000   15.5240   -6.9650 C.ar      1 MOL        -0.0510
     38 CBG       -15.2870   14.2810   -6.8920 C.ar      1 MOL         0.0789
     39 CBF       -14.1880   13.9890   -7.8720 C.2       1 MOL         0.2275
     40 OAF       -13.5490   14.9540   -8.2590 O.2       1 MOL        -0.3767
     41 NBO       -13.8470   12.7840   -8.3310 N.am      1 MOL        -0.2228
     42 CAC       -12.6720   12.6240   -9.1740 C.3       1 MOL         0.0413
     43 H1        -14.0773   10.8325  -10.0274 H         1 MOL         0.0700
     44 H2        -13.6452    3.4779    1.0184 H         1 MOL         0.0868
     45 H3        -13.5465    4.9925    0.0577 H         1 MOL         0.0868
     46 H4        -13.5392    6.3241    2.1484 H         1 MOL         0.0868
     47 H5        -12.1849    5.1442    2.1293 H         1 MOL         0.0868
     48 H6        -13.5203    3.6951    3.4695 H         1 MOL         0.2035
     49 H7        -13.5320    4.9323    5.5118 H         1 MOL         0.0778
     50 H8        -13.4335    6.4365    4.5350 H         1 MOL         0.0778
     51 H9        -12.0688    5.2685    4.5256 H         1 MOL         0.0778
     52 H10       -15.5034    5.8686    3.4665 H         1 MOL         0.0868
     53 H11       -15.6006    4.3547    4.4284 H         1 MOL         0.0868
     54 H12       -16.9605    4.1964    2.3570 H         1 MOL         0.0868
     55 H13       -15.6015    3.0220    2.3365 H         1 MOL         0.0868
     56 H14       -15.6251    5.6546    1.0273 H         1 MOL         0.2040
     57 H15       -15.6677    2.9411   -0.1037 H         1 MOL         0.0852
     58 H16       -14.3981    4.4728   -1.4857 H         1 MOL         0.0339
     59 H17       -15.6543    5.7453   -1.3143 H         1 MOL         0.0339
     60 H18       -15.9806    3.0545   -2.7535 H         1 MOL         0.0523
     61 H19       -15.8624    4.6744   -3.5208 H         1 MOL         0.0523
     62 H20       -17.7985    5.1148    0.1316 H         1 MOL         0.0339
     63 H21       -17.8382    3.4594    0.8278 H         1 MOL         0.0339
     64 H22       -19.2463    3.6753   -1.2444 H         1 MOL         0.0523
     65 H23       -17.9166    2.4843   -1.4441 H         1 MOL         0.0523
     66 H24       -17.6860    4.1417   -5.4651 H         1 MOL         0.0553
     67 H25       -15.8802    3.5611   -8.6515 H         1 MOL         0.0573
     68 H26       -16.6193    3.2334   -7.0475 H         1 MOL         0.0573
     69 H27       -15.0501    4.1013   -7.1530 H         1 MOL         0.0573
     70 H28       -17.8363    7.8504   -3.3227 H         1 MOL         0.0548
     71 H29       -16.9424    9.0837   -5.2694 H         1 MOL         0.0514
     72 H30       -16.2872    7.3414   -8.4841 H         1 MOL         0.2125
     73 H31       -14.2646   10.6159   -4.4800 H         1 MOL         0.0535
     74 H32       -15.4836   11.6475   -3.6574 H         1 MOL         0.0535
     75 H33       -13.8649   12.3155   -4.0578 H         1 MOL         0.0535
     76 H34       -17.0833   13.0453   -4.1999 H         1 MOL         0.0545
     77 H35       -18.1216   15.2694   -4.4114 H         1 MOL         0.0622
     78 H36       -17.3869   16.8392   -6.1578 H         1 MOL         0.0529
     79 H37       -15.5846   16.2343   -7.7207 H         1 MOL         0.0638
     80 H38       -12.5590   11.5647   -9.4482 H         1 MOL         0.0542
     81 H39       -11.7789   12.9580   -8.6255 H         1 MOL         0.0542
     82 H40       -12.7897   13.2282  -10.0856 H         1 MOL         0.0542
@<TRIPOS>BOND
     1    1    2 ar 
     2    5    1 ar 
     3    1   31 1  
     4    3    2 ar 
     5    2   41 1  
     6    4    3 ar 
     7   30    4 ar 
     8   30    5 ar 
     9    6    7 1  
    10   12    6 1  
    11    7    8 1  
    12    8    9 1  
    13   10    8 1  
    14   11   10 1  
    15   12   11 1  
    16   13   12 1  
    17   14   13 1  
    18   16   13 1  
    19   15   14 1  
    20   18   15 1  
    21   17   16 1  
    22   18   17 1  
    23   19   18 am 
    24   19   20 2  
    25   21   19 1  
    26   22   21 ar 
    27   26   21 ar 
    28   23   22 ar 
    29   23   24 1  
    30   28   23 ar 
    31   24   25 1  
    32   27   26 ar 
    33   28   27 ar 
    34   29   28 1  
    35   29   30 1  
    36   31   32 1  
    37   31   33 1  
    38   33   34 ar 
    39   33   38 ar 
    40   34   35 ar 
    41   35   36 ar 
    42   36   37 ar 
    43   37   38 ar 
    44   38   39 1  
    45   39   40 2  
    46   39   41 am 
    47   41   42 1  
    48    3   43 1  
    49    6   44 1  
    50    6   45 1  
    51    7   46 1  
    52    7   47 1  
    53    8   48 1  
    54    9   49 1  
    55    9   50 1  
    56    9   51 1  
    57   10   52 1  
    58   10   53 1  
    59   11   54 1  
    60   11   55 1  
    61   12   56 1  
    62   13   57 1  
    63   14   58 1  
    64   14   59 1  
    65   15   60 1  
    66   15   61 1  
    67   16   62 1  
    68   16   63 1  
    69   17   64 1  
    70   17   65 1  
    71   22   66 1  
    72   25   67 1  
    73   25   68 1  
    74   25   69 1  
    75   26   70 1  
    76   27   71 1  
    77   29   72 1  
    78   32   73 1  
    79   32   74 1  
    80   32   75 1  
    81   34   76 1  
    82   35   77 1  
    83   36   78 1  
    84   37   79 1  
    85   42   80 1  
    86   42   81 1  
    87   42   82 1  
@<TRIPOS>SUBSTRUCTURE
     1 MOL         1

