### 
### Created by X-TOOL on Mon Aug  2 16:12:16 2021
### 

@<TRIPOS>MOLECULE
5wa6_ligand
   61    64     1     0     0
SMALL
GAST_HUCK


@<TRIPOS>ATOM
      1 C1        491.9770  194.4440  558.1830 C.2       1 KU7         0.1641
      2 C10       491.1990  193.1610  557.9730 C.3       1 KU7         0.1312
      3 C11       492.6000  191.2410  557.4350 C.3       1 KU7         0.0378
      4 C12       491.5150  192.5220  555.5930 C.2       1 KU7         0.2122
      5 C13       490.5120  193.5780  555.2170 C.3       1 KU7         0.1585
      6 C14       488.8860  197.9460  557.0130 C.ar      1 KU7        -0.0748
      7 C15       490.1740  198.1650  556.5580 C.ar      1 KU7        -0.0368
      8 C16       490.8730  197.1280  555.9880 C.ar      1 KU7         0.1597
      9 C17       490.3260  195.8580  555.8500 C.ar      1 KU7         0.1277
     10 C18       489.0330  195.6570  556.3180 C.ar      1 KU7        -0.0344
     11 C19       488.3200  196.7010  556.8930 C.ar      1 KU7        -0.0746
     12 C2        493.8870  195.6700  557.7530 C.2       1 KU7         0.1060
     13 C20       492.7610  193.7780  550.3770 C.ar      1 KU7        -0.0729
     14 C21       492.8610  192.6180  551.1080 C.ar      1 KU7        -0.0706
     15 C22       493.7010  192.5470  552.2070 C.ar      1 KU7        -0.0331
     16 C23       494.4510  193.6570  552.5640 C.ar      1 KU7         0.0912
     17 C24       494.3480  194.8310  551.8320 C.ar      1 KU7        -0.0331
     18 C25       493.5020  194.8780  550.7370 C.ar      1 KU7        -0.0706
     19 C3        493.4500  196.7060  558.5230 C.2       1 KU7         0.1828
     20 C4        492.2180  196.6190  559.1660 C.2       1 KU7         0.2603
     21 C5        495.2100  195.7310  557.0360 C.2       1 KU7         0.2003
     22 C6        496.5980  194.6370  555.3380 C.3       1 KU7         0.0577
     23 C7        496.1590  194.6950  553.8970 C.3       1 KU7         0.0903
     24 C8        492.6540  191.5450  558.9160 C.3       1 KU7        -0.0274
     25 C9        491.2940  192.1820  559.1540 C.3       1 KU7        -0.0084
     26 F1        492.1280  197.3280  555.5410 F         1 KU7        -0.1902
     27 N1        493.1640  194.5540  557.5830 N.2       1 KU7        -0.3043
     28 N2        491.5010  195.4580  558.9690 N.am      1 KU7        -0.1947
     29 N3        495.4660  194.6890  556.2490 N.am      1 KU7        -0.2858
     30 N4        491.7670  192.3270  556.8980 N.am      1 KU7        -0.2470
     31 O1        494.1420  197.8380  558.7200 O.3       1 KU7        -0.3268
     32 O2        491.7510  197.5150  559.8860 O.2       1 KU7        -0.3954
     33 O3        495.9570  196.7010  557.1580 O.2       1 KU7        -0.3921
     34 O4        495.2780  193.5950  553.6530 O.3       1 KU7        -0.3160
     35 O5        491.0890  194.8750  555.2820 O.3       1 KU7        -0.2974
     36 O6        492.0680  191.8360  554.7400 O.2       1 KU7        -0.3937
     37 H1        490.1509  193.4195  557.7619 H         1 KU7         0.0845
     38 H2        492.1366  190.2606  557.2504 H         1 KU7         0.0525
     39 H3        493.6065  191.2602  556.9916 H         1 KU7         0.0525
     40 H4        489.6600  193.5282  555.9110 H         1 KU7         0.0857
     41 H5        490.1609  193.3916  554.1914 H         1 KU7         0.0857
     42 H6        488.3245  198.7563  557.4637 H         1 KU7         0.0513
     43 H7        490.6276  199.1452  556.6502 H         1 KU7         0.0574
     44 H8        488.5771  194.6772  556.2336 H         1 KU7         0.0530
     45 H9        487.3103  196.5317  557.2493 H         1 KU7         0.0555
     46 H10       492.0997  193.8249  549.5193 H         1 KU7         0.0523
     47 H11       492.2770  191.7508  550.8216 H         1 KU7         0.0589
     48 H12       493.7714  191.6314  552.7830 H         1 KU7         0.0542
     49 H13       494.9249  195.7040  552.1149 H         1 KU7         0.0542
     50 H14       493.4234  195.7911  550.1581 H         1 KU7         0.0589
     51 H15       497.2600  195.4912  555.5434 H         1 KU7         0.0545
     52 H16       497.1472  193.6988  555.5056 H         1 KU7         0.0545
     53 H17       497.0363  194.6227  553.2374 H         1 KU7         0.0634
     54 H18       495.6335  195.6422  553.7058 H         1 KU7         0.0634
     55 H19       493.4701  192.2439  559.1517 H         1 KU7         0.0288
     56 H20       492.7750  190.6265  559.5090 H         1 KU7         0.0288
     57 H21       490.4889  191.4332  559.1202 H         1 KU7         0.0321
     58 H22       491.2621  192.7115  560.1176 H         1 KU7         0.0321
     59 H23       490.6104  195.3543  559.4118 H         1 KU7         0.2537
     60 H24       494.8492  193.9027  556.2860 H         1 KU7         0.1839
     61 H25       494.9609  197.7947  558.2405 H         1 KU7         0.2490
@<TRIPOS>BOND
     1    1    2 1  
     2   27    1 2  
     3    1   28 1  
     4    2   25 1  
     5    2   30 1  
     6    3   24 1  
     7   30    3 1  
     8    4    5 1  
     9   30    4 am 
    10    4   36 2  
    11    5   35 1  
    12    7    6 ar 
    13   11    6 ar 
    14    8    7 ar 
    15    9    8 ar 
    16    8   26 1  
    17    9   10 ar 
    18   35    9 1  
    19   10   11 ar 
    20   12   19 2  
    21   21   12 1  
    22   12   27 1  
    23   14   13 ar 
    24   18   13 ar 
    25   15   14 ar 
    26   16   15 ar 
    27   16   17 ar 
    28   34   16 1  
    29   17   18 ar 
    30   19   20 1  
    31   19   31 1  
    32   20   28 am 
    33   20   32 2  
    34   29   21 am 
    35   21   33 2  
    36   23   22 1  
    37   22   29 1  
    38   23   34 1  
    39   24   25 1  
    40    2   37 1  
    41    3   38 1  
    42    3   39 1  
    43    5   40 1  
    44    5   41 1  
    45    6   42 1  
    46    7   43 1  
    47   10   44 1  
    48   11   45 1  
    49   13   46 1  
    50   14   47 1  
    51   15   48 1  
    52   17   49 1  
    53   18   50 1  
    54   22   51 1  
    55   22   52 1  
    56   23   53 1  
    57   23   54 1  
    58   24   55 1  
    59   24   56 1  
    60   25   57 1  
    61   25   58 1  
    62   28   59 1  
    63   29   60 1  
    64   31   61 1  
@<TRIPOS>SUBSTRUCTURE
     1 KU7         1

