### 
### Created by X-TOOL on Wed Jan  1 15:39:38 2020
### 

@<TRIPOS>MOLECULE
5wa7_ligand
   63    66     1     0     0
SMALL
GAST_HUCK


@<TRIPOS>ATOM
      1 C1        490.1770  195.9600  561.4240 C.2       1 KU4         0.2603
      2 C10       491.3380  193.3730  552.0110 C.ar      1 KU4        -0.0729
      3 C11       491.0440  192.3000  552.8180 C.ar      1 KU4        -0.0706
      4 C12       491.6560  192.1550  554.0510 C.ar      1 KU4        -0.0331
      5 C13       489.6920  193.8810  560.3300 C.2       1 KU4         0.1641
      6 C14       488.7520  192.7240  560.0570 C.3       1 KU4         0.1312
      7 C15       489.2640  191.9140  557.7320 C.2       1 KU4         0.1834
      8 C16       489.3100  193.3010  557.1420 C.3       1 KU4         0.0473
      9 C17       487.9590  193.8340  556.6850 C.3       1 KU4        -0.0016
     10 C18       487.3740  194.8820  557.6030 C.ar      1 KU4        -0.0267
     11 C19       486.1750  194.6730  558.2810 C.ar      1 KU4        -0.0596
     12 C2        491.4140  195.9330  560.7860 C.2       1 KU4         0.1828
     13 C20       485.6350  195.6330  559.1160 C.ar      1 KU4        -0.0684
     14 C21       486.2830  196.8320  559.2930 C.ar      1 KU4        -0.0682
     15 C22       487.4660  197.0750  558.6420 C.ar      1 KU4        -0.0546
     16 C23       488.0010  196.1100  557.8060 C.ar      1 KU4         0.0413
     17 C24       489.7500  190.5280  559.7180 C.3       1 KU4         0.0377
     18 C25       489.7360  190.8870  561.1860 C.3       1 KU4        -0.0274
     19 C26       488.5250  191.8030  561.2670 C.3       1 KU4        -0.0084
     20 C3        491.7290  194.8970  559.9590 C.2       1 KU4         0.1060
     21 C4        493.0640  194.8640  559.2640 C.2       1 KU4         0.2003
     22 C5        494.4220  193.7490  557.5610 C.3       1 KU4         0.0577
     23 C6        494.1340  193.9470  556.0940 C.3       1 KU4         0.0903
     24 C7        492.5750  193.1040  554.4710 C.ar      1 KU4         0.0912
     25 C8        492.8720  194.1900  553.6610 C.ar      1 KU4        -0.0331
     26 C9        492.2480  194.3130  552.4310 C.ar      1 KU4        -0.0706
     27 N1        493.2280  193.8810  558.3810 N.am      1 KU4        -0.2858
     28 N2        490.8870  193.8780  559.7360 N.2       1 KU4        -0.3043
     29 N3        489.2570  191.7510  559.0670 N.am      1 KU4        -0.2491
     30 N4        489.3300  194.9020  561.1690 N.am      1 KU4        -0.1947
     31 O1        489.8180  196.8670  562.1880 O.2       1 KU4        -0.3954
     32 O2        492.2320  196.9650  561.0370 O.3       1 KU4        -0.3268
     33 O3        493.1770  192.9640  555.6920 O.3       1 KU4        -0.3160
     34 O4        493.9180  195.7160  559.5050 O.2       1 KU4        -0.3921
     35 O5        489.2150  190.9260  557.0050 O.2       1 KU4        -0.3965
     36 CL1       489.5080  196.4820  557.0040 Cl        1 KU4        -0.0772
     37 H1        490.8538  193.4773  551.0468 H         1 KU4         0.0523
     38 H2        490.3254  191.5597  552.4854 H         1 KU4         0.0589
     39 H3        491.4187  191.3067  554.6827 H         1 KU4         0.0542
     40 H4        487.7952  193.1474  559.7175 H         1 KU4         0.0845
     41 H5        489.9848  193.2835  556.2735 H         1 KU4         0.0525
     42 H6        489.7105  193.9861  557.9038 H         1 KU4         0.0525
     43 H7        487.2548  192.9909  556.6282 H         1 KU4         0.0452
     44 H8        488.0812  194.2776  555.6859 H         1 KU4         0.0452
     45 H9        485.6518  193.7327  558.1502 H         1 KU4         0.0557
     46 H10       484.7008  195.4403  559.6310 H         1 KU4         0.0601
     47 H11       485.8594  197.5857  559.9469 H         1 KU4         0.0559
     48 H12       487.9799  198.0192  558.7818 H         1 KU4         0.0605
     49 H13       489.0838  189.6768  559.5139 H         1 KU4         0.0525
     50 H14       490.7686  190.2854  559.3812 H         1 KU4         0.0525
     51 H15       490.6567  191.4126  561.4792 H         1 KU4         0.0288
     52 H16       489.6067  189.9946  561.8160 H         1 KU4         0.0288
     53 H17       487.5867  191.2372  561.1702 H         1 KU4         0.0321
     54 H18       488.5146  192.3722  562.2082 H         1 KU4         0.0321
     55 H19       495.1565  194.5022  557.8821 H         1 KU4         0.0545
     56 H20       494.8414  192.7425  557.7064 H         1 KU4         0.0545
     57 H21       495.0599  193.8254  555.5126 H         1 KU4         0.0634
     58 H22       493.7258  194.9547  555.9270 H         1 KU4         0.0634
     59 H23       493.5868  194.9364  553.9882 H         1 KU4         0.0542
     60 H24       492.4795  195.1587  551.7936 H         1 KU4         0.0589
     61 H25       492.4990  193.2044  558.2772 H         1 KU4         0.1839
     62 H26       488.4310  194.8794  561.6064 H         1 KU4         0.2537
     63 H27       493.0369  196.6425  561.4250 H         1 KU4         0.2490
@<TRIPOS>BOND
     1   12    1 1  
     2    1   30 am 
     3    1   31 2  
     4    3    2 ar 
     5    2   26 ar 
     6    4    3 ar 
     7   24    4 ar 
     8    5    6 1  
     9   28    5 2  
    10    5   30 1  
    11    6   19 1  
    12    6   29 1  
    13    7    8 1  
    14   29    7 am 
    15    7   35 2  
    16    8    9 1  
    17    9   10 1  
    18   10   11 ar 
    19   10   16 ar 
    20   11   13 ar 
    21   20   12 2  
    22   12   32 1  
    23   13   14 ar 
    24   15   14 ar 
    25   16   15 ar 
    26   16   36 1  
    27   17   18 1  
    28   29   17 1  
    29   19   18 1  
    30   21   20 1  
    31   20   28 1  
    32   27   21 am 
    33   21   34 2  
    34   23   22 1  
    35   22   27 1  
    36   33   23 1  
    37   24   25 ar 
    38   24   33 1  
    39   25   26 ar 
    40    2   37 1  
    41    3   38 1  
    42    4   39 1  
    43    6   40 1  
    44    8   41 1  
    45    8   42 1  
    46    9   43 1  
    47    9   44 1  
    48   11   45 1  
    49   13   46 1  
    50   14   47 1  
    51   15   48 1  
    52   17   49 1  
    53   17   50 1  
    54   18   51 1  
    55   18   52 1  
    56   19   53 1  
    57   19   54 1  
    58   22   55 1  
    59   22   56 1  
    60   23   57 1  
    61   23   58 1  
    62   25   59 1  
    63   26   60 1  
    64   27   61 1  
    65   30   62 1  
    66   32   63 1  
@<TRIPOS>SUBSTRUCTURE
     1 KU4         1

