### 
### Created by X-TOOL on Mon Sep 10 21:13:32 2018
### 

@<TRIPOS>MOLECULE
5wal_ligand
   35    38     1     0     0
SMALL
GAST_HUCK


@<TRIPOS>ATOM
      1 C4         -6.6080    6.5280   16.1070 C.ar      1 9ZS         0.0597
      2 C5         -7.1990    5.2540   16.1770 C.ar      1 9ZS         0.0576
      3 C6         -6.4140    4.1000   16.2610 C.ar      1 9ZS        -0.0436
      4 C11        -8.8570    9.1980   15.0710 C.ar      1 9ZS         0.0873
      5 C8         -7.4670    7.7320   15.9710 C.2       1 9ZS         0.1413
      6 C12        -9.7340    9.9790   14.3160 C.ar      1 9ZS        -0.0316
      7 C13       -10.3550   11.0600   14.9080 C.ar      1 9ZS        -0.0251
      8 C3         -5.2060    6.6120   16.0960 C.ar      1 9ZS         0.0576
      9 C1         -5.0260    4.2020   16.2490 C.ar      1 9ZS        -0.0578
     10 C2         -4.4270    5.4620   16.1810 C.ar      1 9ZS        -0.0436
     11 CL7        -8.9190    5.1180   16.1710 Cl        1 9ZS        -0.0656
     12 N9         -8.1330    8.0580   14.8180 N.pl3     1 9ZS        -0.2477
     13 N14       -10.0870   11.4040   16.1650 N.ar      1 9ZS        -0.3051
     14 C15        -9.2240   10.7310   16.9260 C.ar      1 9ZS         0.1436
     15 C16        -8.5900    9.5650   16.4160 C.ar      1 9ZS         0.0855
     16 N17        -7.7240    8.6370   16.8950 N.2       1 9ZS        -0.3001
     17 N18        -9.0550   11.2400   18.2140 N.am      1 9ZS        -0.2181
     18 C19        -7.9130   11.3950   18.9270 C.2       1 9ZS         0.2123
     19 O20        -6.8250   10.9910   18.5430 O.2       1 9ZS        -0.3816
     20 C21        -8.0790   12.0680   20.2710 C.3       1 9ZS         0.0560
     21 C22        -7.0570   11.8370   21.3870 C.3       1 9ZS        -0.0303
     22 C23        -7.1110   13.1800   20.6580 C.3       1 9ZS        -0.0303
     23 CL24       -4.4570    8.1590   15.9880 Cl        1 9ZS        -0.0656
     24 H1         -6.8859    3.1270   16.3354 H         1 9ZS         0.0633
     25 H2         -9.9251    9.7390   13.2763 H         1 9ZS         0.0498
     26 H3        -11.0735   11.6388   14.3390 H         1 9ZS         0.0673
     27 H4         -4.4134    3.3088   16.2922 H         1 9ZS         0.0642
     28 H5         -3.3462    5.5447   16.1946 H         1 9ZS         0.0633
     29 H6         -8.0973    7.5433   13.9265 H         1 9ZS         0.2321
     30 H7         -9.8932   11.5309   18.6752 H         1 9ZS         0.2331
     31 H8         -9.1484   12.1497   20.5152 H         1 9ZS         0.0545
     32 H9         -6.2086   11.1560   21.2245 H         1 9ZS         0.0294
     33 H10        -7.3905   11.7643   22.4327 H         1 9ZS         0.0294
     34 H11        -7.4818   14.0742   21.1804 H         1 9ZS         0.0294
     35 H12        -6.2999   13.4659   19.9721 H         1 9ZS         0.0294
@<TRIPOS>BOND
     1    1    2 ar 
     2    5    1 1  
     3    1    8 ar 
     4    2    3 ar 
     5    2   11 1  
     6    3    9 ar 
     7    4    6 ar 
     8   12    4 1  
     9    4   15 ar 
    10    5   12 1  
    11    5   16 2  
    12    6    7 ar 
    13    7   13 ar 
    14    8   10 ar 
    15    8   23 1  
    16    9   10 ar 
    17   13   14 ar 
    18   14   15 ar 
    19   14   17 1  
    20   15   16 1  
    21   17   18 am 
    22   18   19 2  
    23   18   20 1  
    24   20   21 1  
    25   20   22 1  
    26   21   22 1  
    27    3   24 1  
    28    6   25 1  
    29    7   26 1  
    30    9   27 1  
    31   10   28 1  
    32   12   29 1  
    33   17   30 1  
    34   20   31 1  
    35   21   32 1  
    36   21   33 1  
    37   22   34 1  
    38   22   35 1  
@<TRIPOS>SUBSTRUCTURE
     1 9ZS         1

