### 
### Created by X-TOOL on Wed Jan  1 15:39:38 2020
### 

@<TRIPOS>MOLECULE
5wap_ligand
   61    65     1     0     0
SMALL
GAST_HUCK


@<TRIPOS>ATOM
      1 C1        -60.9190  356.2790  694.3330 C.2       1 KU9         0.2603
      2 C10       -58.3500  358.0100  686.2440 C.ar      1 KU9        -0.0755
      3 C11       -57.6360  358.7090  687.2020 C.ar      1 KU9        -0.0668
      4 C12       -58.3310  359.4860  688.1170 C.ar      1 KU9        -0.0386
      5 C13       -57.8170  360.3380  689.2480 C.3       1 KU9         0.0031
      6 C14       -58.9310  355.7890  693.0840 C.2       1 KU9         0.1641
      7 C15       -57.7720  354.8760  692.7460 C.3       1 KU9         0.1312
      8 C16       -56.7840  355.3740  690.5190 C.2       1 KU9         0.1937
      9 C17       -57.3790  354.1160  689.9190 C.3       1 KU9         0.0970
     10 C18       -60.1650  353.8780  690.2010 C.ar      1 KU9         0.0319
     11 C19       -60.0880  352.6160  690.7900 C.ar      1 KU9        -0.0490
     12 C2        -60.9760  357.4920  693.6500 C.2       1 KU9         0.1828
     13 C20       -61.0460  352.2220  691.7060 C.ar      1 KU9        -0.0676
     14 C21       -62.0760  353.0720  692.0400 C.ar      1 KU9        -0.0681
     15 C22       -62.1650  354.3230  691.4680 C.ar      1 KU9        -0.0538
     16 C23       -61.2110  354.7200  690.5520 C.ar      1 KU9         0.0518
     17 C24       -55.7840  356.2650  692.6220 C.3       1 KU9         0.0377
     18 C25       -56.1660  355.9920  694.0640 C.3       1 KU9        -0.0274
     19 C26       -56.8660  354.6440  693.9630 C.3       1 KU9        -0.0084
     20 C3        -60.0210  357.7950  692.7250 C.2       1 KU9         0.1060
     21 C4        -60.0580  359.0980  691.9770 C.2       1 KU9         0.2007
     22 C5        -59.0440  360.4290  690.1770 C.3       1 KU9         0.0581
     23 C6        -60.2100  360.4660  689.1680 C.3       1 KU9         0.0031
     24 C7        -59.7170  359.5560  688.0750 C.ar      1 KU9        -0.0386
     25 C8        -60.4270  358.8600  687.1070 C.ar      1 KU9        -0.0668
     26 C9        -59.7290  358.0840  686.1980 C.ar      1 KU9        -0.0755
     27 N1        -59.1220  359.2530  691.0240 N.am      1 KU9        -0.2819
     28 N2        -59.0090  356.9590  692.4450 N.2       1 KU9        -0.3043
     29 N3        -56.7940  355.5210  691.8540 N.am      1 KU9        -0.2484
     30 N4        -59.8680  355.4420  694.0200 N.am      1 KU9        -0.1947
     31 O1        -61.7500  355.9280  695.1840 O.2       1 KU9        -0.3954
     32 O2        -62.0030  358.2980  693.9570 O.3       1 KU9        -0.3268
     33 O3        -60.8890  359.9670  692.2350 O.2       1 KU9        -0.3921
     34 O4        -56.3140  356.2450  689.7930 O.2       1 KU9        -0.3956
     35 S1        -58.9390  354.3810  689.0330 S.3       1 KU9        -0.0791
     36 CL1       -61.3440  356.2950  689.8450 Cl        1 KU9        -0.0763
     37 H1        -57.8216  357.3979  685.5221 H         1 KU9         0.0541
     38 H2        -56.5541  358.6503  687.2365 H         1 KU9         0.0537
     39 H3        -57.5136  361.3331  688.8907 H         1 KU9         0.0435
     40 H4        -56.9684  359.8561  689.7555 H         1 KU9         0.0435
     41 H5        -58.1548  353.9339  692.3266 H         1 KU9         0.0845
     42 H6        -57.5620  353.3988  690.7327 H         1 KU9         0.0642
     43 H7        -56.6494  353.6918  689.2135 H         1 KU9         0.0642
     44 H8        -59.2777  351.9446  690.5299 H         1 KU9         0.0565
     45 H9        -60.9857  351.2407  692.1625 H         1 KU9         0.0601
     46 H10       -62.8231  352.7550  692.7586 H         1 KU9         0.0559
     47 H11       -62.9771  354.9895  691.7350 H         1 KU9         0.0605
     48 H12       -54.7720  355.8921  692.4057 H         1 KU9         0.0525
     49 H13       -55.8339  357.3409  692.3987 H         1 KU9         0.0525
     50 H14       -56.8457  356.7661  694.4497 H         1 KU9         0.0288
     51 H15       -55.2760  355.9317  694.7076 H         1 KU9         0.0288
     52 H16       -56.1493  353.8290  693.7838 H         1 KU9         0.0321
     53 H17       -57.4524  354.4244  694.8674 H         1 KU9         0.0321
     54 H18       -59.0182  361.3367  690.7978 H         1 KU9         0.0597
     55 H19       -60.3789  361.4857  688.7915 H         1 KU9         0.0435
     56 H20       -61.1380  360.0826  689.6173 H         1 KU9         0.0435
     57 H21       -61.5083  358.9229  687.0635 H         1 KU9         0.0537
     58 H22       -60.2704  357.5279  685.4413 H         1 KU9         0.0541
     59 H23       -58.4491  358.5249  690.8929 H         1 KU9         0.1844
     60 H24       -59.7887  354.5616  694.4875 H         1 KU9         0.2537
     61 H25       -61.6685  359.1245  694.2846 H         1 KU9         0.2490
@<TRIPOS>BOND
     1   12    1 1  
     2    1   30 am 
     3    1   31 2  
     4    3    2 ar 
     5    2   26 ar 
     6    4    3 ar 
     7    5    4 1  
     8    4   24 ar 
     9   22    5 1  
    10    6    7 1  
    11   28    6 2  
    12    6   30 1  
    13    7   19 1  
    14    7   29 1  
    15    8    9 1  
    16   29    8 am 
    17    8   34 2  
    18    9   35 1  
    19   10   11 ar 
    20   10   16 ar 
    21   35   10 1  
    22   11   13 ar 
    23   20   12 2  
    24   12   32 1  
    25   13   14 ar 
    26   15   14 ar 
    27   16   15 ar 
    28   16   36 1  
    29   17   18 1  
    30   29   17 1  
    31   19   18 1  
    32   21   20 1  
    33   20   28 1  
    34   27   21 am 
    35   21   33 2  
    36   22   23 1  
    37   22   27 1  
    38   23   24 1  
    39   24   25 ar 
    40   25   26 ar 
    41    2   37 1  
    42    3   38 1  
    43    5   39 1  
    44    5   40 1  
    45    7   41 1  
    46    9   42 1  
    47    9   43 1  
    48   11   44 1  
    49   13   45 1  
    50   14   46 1  
    51   15   47 1  
    52   17   48 1  
    53   17   49 1  
    54   18   50 1  
    55   18   51 1  
    56   19   52 1  
    57   19   53 1  
    58   22   54 1  
    59   23   55 1  
    60   23   56 1  
    61   25   57 1  
    62   26   58 1  
    63   27   59 1  
    64   30   60 1  
    65   32   61 1  
@<TRIPOS>SUBSTRUCTURE
     1 KU9         1

