### 
### Created by X-TOOL on Wed Jan  1 15:39:38 2020
### 

@<TRIPOS>MOLECULE
5wb3_ligand
   69    73     1     0     0
SMALL
GAST_HUCK


@<TRIPOS>ATOM
      1 C1        130.4030  106.2630  286.9620 C.2       1 GYA         0.2603
      2 C10       133.2130   99.8450  279.6460 C.3       1 GYA         0.0553
      3 C11       134.8170   99.8340  282.9230 C.ar      1 GYA         0.1060
      4 C12       135.8220   97.6800  282.8730 C.3       1 GYA         0.0553
      5 C13       135.3920  100.6890  283.8500 C.ar      1 GYA        -0.0459
      6 C14       135.4790  102.0410  283.5430 C.ar      1 GYA        -0.0578
      7 C15       136.0460  103.1770  284.3510 C.3       1 GYA        -0.0045
      8 C16       130.2380  104.1150  285.9100 C.2       1 GYA         0.1641
      9 C17       129.4920  102.8240  285.6510 C.3       1 GYA         0.1312
     10 C18       129.8930  102.2570  283.2740 C.2       1 GYA         0.1937
     11 C19       130.6680  101.4380  282.2620 C.3       1 GYA         0.0970
     12 C2        131.6460  106.3960  286.3490 C.2       1 GYA         0.1828
     13 C20       131.0240  103.4520  280.2480 C.ar      1 GYA         0.0319
     14 C21       131.5330  104.2120  281.3020 C.ar      1 GYA        -0.0490
     15 C22       132.0810  105.4570  281.0550 C.ar      1 GYA        -0.0676
     16 C23       132.1310  105.9530  279.7700 C.ar      1 GYA        -0.0681
     17 C24       131.6370  105.2140  278.7180 C.ar      1 GYA        -0.0538
     18 C25       131.0850  103.9710  278.9580 C.ar      1 GYA         0.0518
     19 C26       130.9690  100.9610  285.1210 C.3       1 GYA         0.0377
     20 C27       130.9580  101.2310  286.6100 C.3       1 GYA        -0.0274
     21 C28       129.5710  101.8210  286.8130 C.3       1 GYA        -0.0084
     22 C3        132.1260  105.3950  285.5610 C.2       1 GYA         0.1060
     23 C4        133.4690  105.5290  284.9030 C.2       1 GYA         0.2007
     24 C5        135.2860  104.3860  283.7700 C.3       1 GYA         0.0550
     25 C6        135.2210  104.0190  282.2770 C.3       1 GYA        -0.0045
     26 C7        134.9910  102.5320  282.3370 C.ar      1 GYA        -0.0578
     27 C8        134.4150  101.6870  281.4020 C.ar      1 GYA        -0.0459
     28 C9        134.3210  100.3330  281.6960 C.ar      1 GYA         0.1060
     29 N1        133.9430  104.4340  284.3140 N.am      1 GYA        -0.2823
     30 N2        131.4380  104.2640  285.3420 N.2       1 GYA        -0.3043
     31 N3        130.1140  102.0270  284.5790 N.am      1 GYA        -0.2484
     32 N4        129.7170  105.0930  286.7170 N.am      1 GYA        -0.1947
     33 O1        129.9000  107.1280  287.6940 O.2       1 GYA        -0.3954
     34 O2        132.3140  107.5310  286.5930 O.3       1 GYA        -0.3268
     35 O3        133.7760   99.3880  280.8720 O.3       1 GYA        -0.3310
     36 O4        134.6650   98.4830  283.0890 O.3       1 GYA        -0.3310
     37 O5        134.1010  106.5830  284.9260 O.2       1 GYA        -0.3921
     38 O6        129.0820  103.1030  282.9100 O.2       1 GYA        -0.3956
     39 S1        130.3170  101.8550  280.5290 S.3       1 GYA        -0.0791
     40 CL1       130.4680  103.0680  277.6160 Cl        1 GYA        -0.0763
     41 H1        132.8131   98.9880  279.0842 H         1 GYA         0.0570
     42 H2        133.9904  100.3442  279.0490 H         1 GYA         0.0570
     43 H3        132.4006  100.5557  279.8579 H         1 GYA         0.0570
     44 H4        135.5697   96.6219  283.0366 H         1 GYA         0.0570
     45 H5        136.6135   97.9810  283.5751 H         1 GYA         0.0570
     46 H6        136.1760   97.8171  281.8406 H         1 GYA         0.0570
     47 H7        135.7659  100.3107  284.7945 H         1 GYA         0.0434
     48 H8        137.1310  103.2748  284.1984 H         1 GYA         0.0413
     49 H9        135.8365  103.0497  285.4233 H         1 GYA         0.0413
     50 H10       128.4460  103.0659  285.4117 H         1 GYA         0.0845
     51 H11       130.4214  100.3773  282.4170 H         1 GYA         0.0642
     52 H12       131.7416  101.5950  282.4426 H         1 GYA         0.0642
     53 H13       131.4987  103.8261  282.3144 H         1 GYA         0.0565
     54 H14       132.4733  106.0461  281.8761 H         1 GYA         0.0601
     55 H15       132.5617  106.9306  279.5863 H         1 GYA         0.0559
     56 H16       131.6812  105.6055  277.7081 H         1 GYA         0.0605
     57 H17       130.5511   99.9684  284.8972 H         1 GYA         0.0525
     58 H18       131.9892  101.0294  284.7154 H         1 GYA         0.0525
     59 H19       131.7428  101.9483  286.8921 H         1 GYA         0.0288
     60 H20       131.0857  100.3024  287.1857 H         1 GYA         0.0288
     61 H21       128.7906  101.0500  286.7322 H         1 GYA         0.0321
     62 H22       129.4878  102.3264  287.7865 H         1 GYA         0.0321
     63 H23       135.8126  105.3354  283.9468 H         1 GYA         0.0592
     64 H24       136.1641  104.2583  281.7640 H         1 GYA         0.0413
     65 H25       134.3890  104.5332  281.7737 H         1 GYA         0.0413
     66 H26       134.0451  102.0751  280.4598 H         1 GYA         0.0434
     67 H27       133.3591  103.6251  284.2450 H         1 GYA         0.1844
     68 H28       128.8200  104.9546  287.1369 H         1 GYA         0.2537
     69 H29       133.1411  107.3263  287.0131 H         1 GYA         0.2490
@<TRIPOS>BOND
     1   12    1 1  
     2    1   32 am 
     3    1   33 2  
     4   35    2 1  
     5    3    5 ar 
     6   28    3 ar 
     7    3   36 1  
     8   36    4 1  
     9    5    6 ar 
    10    6    7 1  
    11   26    6 ar 
    12   24    7 1  
    13    8    9 1  
    14   30    8 2  
    15    8   32 1  
    16    9   21 1  
    17    9   31 1  
    18   10   11 1  
    19   31   10 am 
    20   10   38 2  
    21   11   39 1  
    22   22   12 2  
    23   12   34 1  
    24   13   14 ar 
    25   13   18 ar 
    26   39   13 1  
    27   14   15 ar 
    28   15   16 ar 
    29   17   16 ar 
    30   18   17 ar 
    31   18   40 1  
    32   19   20 1  
    33   31   19 1  
    34   21   20 1  
    35   23   22 1  
    36   22   30 1  
    37   29   23 am 
    38   23   37 2  
    39   25   24 1  
    40   24   29 1  
    41   26   25 1  
    42   27   26 ar 
    43   28   27 ar 
    44   28   35 1  
    45    2   41 1  
    46    2   42 1  
    47    2   43 1  
    48    4   44 1  
    49    4   45 1  
    50    4   46 1  
    51    5   47 1  
    52    7   48 1  
    53    7   49 1  
    54    9   50 1  
    55   11   51 1  
    56   11   52 1  
    57   14   53 1  
    58   15   54 1  
    59   16   55 1  
    60   17   56 1  
    61   19   57 1  
    62   19   58 1  
    63   20   59 1  
    64   20   60 1  
    65   21   61 1  
    66   21   62 1  
    67   24   63 1  
    68   25   64 1  
    69   25   65 1  
    70   27   66 1  
    71   29   67 1  
    72   32   68 1  
    73   34   69 1  
@<TRIPOS>SUBSTRUCTURE
     1 GYA         1

