### 
### Created by X-TOOL on Mon Sep 10 21:13:33 2018
### 

@<TRIPOS>MOLECULE
5wb6_ligand
   73    78     1     0     0
SMALL
GAST_HUCK


@<TRIPOS>ATOM
      1 N14        39.6660  -15.2840   24.4030 N.2       1 9ZM        -0.2058
      2 C13        38.4710  -14.9730   24.8270 C.2       1 9ZM         0.1690
      3 C18        39.3490  -21.0270   28.2210 C.3       1 9ZM         0.1275
      4 C19        38.8740  -21.8740   27.0260 C.3       1 9ZM         0.0316
      5 C20        40.8520  -20.9840   28.3050 C.2       1 9ZM         0.1398
      6 C22        42.9430  -20.9070   27.6670 C.2       1 9ZM         0.0292
      7 C23        42.8980  -21.2110   28.9970 C.2       1 9ZM        -0.0044
      8 C11        35.8150  -15.5350   28.7660 C.ar      1 9ZM        -0.0382
      9 C27        46.1860  -20.9430   30.7930 C.ar      1 9ZM        -0.0583
     10 CL1        33.7990  -14.0150   29.7500 Cl        1 9ZM        -0.0754
     11 N2         38.8150  -19.6670   28.1840 N.am      1 9ZM        -0.2669
     12 C3         38.8850  -18.8750   29.2740 C.2       1 9ZM         0.1911
     13 C4         38.1820  -17.5750   29.1790 C.2       1 9ZM         0.0072
     14 C5         37.6330  -17.0650   28.0790 C.2       1 9ZM        -0.0388
     15 C6         36.9490  -15.7700   27.9720 C.ar      1 9ZM         0.0262
     16 C7         37.3950  -14.7590   27.1060 C.ar      1 9ZM         0.1410
     17 C8         36.7310  -13.5320   27.0660 C.ar      1 9ZM        -0.0176
     18 C9         35.6090  -13.3130   27.8570 C.ar      1 9ZM        -0.0476
     19 C10        35.1720  -14.3140   28.7030 C.ar      1 9ZM         0.0380
     20 N12        38.4440  -15.0060   26.1660 N.pl3     1 9ZM        -0.0913
     21 N15        40.4020  -15.5070   25.5220 N.2       1 9ZM        -0.1365
     22 N16        39.6830  -15.3450   26.5900 N.2       1 9ZM        -0.0466
     23 O17        39.5480  -19.1940   30.2740 O.2       1 9ZM        -0.3927
     24 N21        41.6540  -20.7700   27.2420 N.pl3     1 9ZM        -0.2632
     25 N24        41.5510  -21.2490   29.3970 N.2       1 9ZM        -0.3325
     26 C25        43.9750  -21.4890   29.9630 C.ar      1 9ZM        -0.0212
     27 C26        45.1360  -20.7110   29.9200 C.ar      1 9ZM        -0.0842
     28 C28        46.1070  -21.9740   31.7300 C.ar      1 9ZM         0.0525
     29 C29        44.9670  -22.7720   31.7740 C.ar      1 9ZM        -0.0236
     30 C30        43.8950  -22.5300   30.9200 C.ar      1 9ZM         0.0584
     31 N31        47.1100  -22.2770   32.6930 N.am      1 9ZM        -0.2133
     32 C32        48.4300  -21.9750   32.6280 C.2       1 9ZM         0.3495
     33 O33        48.9640  -21.3040   31.7700 O.2       1 9ZM        -0.3669
     34 O34        49.0540  -22.4630   33.7130 O.3       1 9ZM        -0.2623
     35 C35        50.4870  -22.2430   33.7820 C.3       1 9ZM         0.0668
     36 C36        39.3620  -23.2960   26.9550 C.ar      1 9ZM         0.0202
     37 N37        39.6840  -23.9160   28.1120 N.ar      1 9ZM        -0.3012
     38 C38        40.1570  -25.1740   28.0630 C.ar      1 9ZM         0.0555
     39 C39        40.3060  -25.8470   26.8490 C.ar      1 9ZM         0.1531
     40 C40        39.9490  -25.2230   25.6760 C.ar      1 9ZM        -0.0222
     41 C41        39.4790  -23.9210   25.7210 C.ar      1 9ZM        -0.0416
     42 C42        40.5320  -25.8300   29.3650 C.3       1 9ZM         0.0127
     43 C43        40.9450  -24.8290   30.4440 C.3       1 9ZM         0.0544
     44 C44        42.2760  -24.1910   30.1140 C.2       1 9ZM         0.2061
     45 N45        42.7210  -23.3120   31.0310 N.am      1 9ZM        -0.2366
     46 O46        42.8790  -24.4440   29.0750 O.2       1 9ZM        -0.3844
     47 F47        40.8520  -27.0850   26.8010 F         1 9ZM        -0.1857
     48 H1         37.6243  -14.7244   24.1888 H         1 9ZM         0.1430
     49 H2         38.9735  -21.5092   29.1356 H         1 9ZM         0.0820
     50 H3         39.2026  -21.3650   26.1079 H         1 9ZM         0.0497
     51 H4         37.7748  -21.9023   27.0563 H         1 9ZM         0.0497
     52 H5         43.8397  -20.7949   27.0593 H         1 9ZM         0.0770
     53 H6         35.4448  -16.3102   29.4271 H         1 9ZM         0.0642
     54 H7         47.0727  -20.3211   30.7482 H         1 9ZM         0.0383
     55 H8         38.3949  -19.3211   27.3450 H         1 9ZM         0.1872
     56 H9         38.1076  -16.9836   30.0904 H         1 9ZM         0.0628
     57 H10        37.6971  -17.6649   27.1724 H         1 9ZM         0.0739
     58 H11        37.0924  -12.7449   26.4141 H         1 9ZM         0.0602
     59 H12        35.0824  -12.3666   27.8105 H         1 9ZM         0.0635
     60 H13        41.3490  -20.5444   26.2844 H         1 9ZM         0.2370
     61 H14        45.2157  -19.9127   29.1910 H         1 9ZM         0.0509
     62 H15        44.9137  -23.5914   32.4817 H         1 9ZM         0.0370
     63 H16        46.8069  -22.7680   33.5097 H         1 9ZM         0.2271
     64 H17        50.8816  -22.6848   34.7089 H         1 9ZM         0.0575
     65 H18        50.6929  -21.1625   33.7743 H         1 9ZM         0.0575
     66 H19        50.9726  -22.7150   32.9152 H         1 9ZM         0.0575
     67 H20        40.0345  -25.7436   24.7290 H         1 9ZM         0.0684
     68 H21        39.2077  -23.3999   24.8100 H         1 9ZM         0.0580
     69 H22        41.3733  -26.5148   29.1824 H         1 9ZM         0.0471
     70 H23        39.6665  -26.4018   29.7309 H         1 9ZM         0.0471
     71 H24        41.0269  -25.3529   31.4077 H         1 9ZM         0.0532
     72 H25        40.1785  -24.0435   30.5176 H         1 9ZM         0.0532
     73 H26        42.1753  -23.2022   31.8618 H         1 9ZM         0.2263
@<TRIPOS>BOND
     1    2    1 2  
     2   21    1 1  
     3   20    2 1  
     4    3    4 1  
     5    5    3 1  
     6    3   11 1  
     7    4   36 1  
     8    5   24 1  
     9   25    5 2  
    10    7    6 2  
    11    6   24 1  
    12    7   25 1  
    13   26    7 1  
    14   15    8 ar 
    15    8   19 ar 
    16   27    9 ar 
    17    9   28 ar 
    18   19   10 1  
    19   11   12 am 
    20   12   13 1  
    21   12   23 2  
    22   13   14 2  
    23   14   15 1  
    24   15   16 ar 
    25   16   17 ar 
    26   16   20 1  
    27   17   18 ar 
    28   19   18 ar 
    29   20   22 1  
    30   22   21 2  
    31   26   27 ar 
    32   26   30 ar 
    33   28   29 ar 
    34   28   31 1  
    35   29   30 ar 
    36   30   45 1  
    37   31   32 am 
    38   32   33 2  
    39   32   34 1  
    40   34   35 1  
    41   36   37 ar 
    42   36   41 ar 
    43   37   38 ar 
    44   38   39 ar 
    45   38   42 1  
    46   39   40 ar 
    47   39   47 1  
    48   40   41 ar 
    49   42   43 1  
    50   43   44 1  
    51   44   45 am 
    52   44   46 2  
    53    2   48 1  
    54    3   49 1  
    55    4   50 1  
    56    4   51 1  
    57    6   52 1  
    58    8   53 1  
    59    9   54 1  
    60   11   55 1  
    61   13   56 1  
    62   14   57 1  
    63   17   58 1  
    64   18   59 1  
    65   24   60 1  
    66   27   61 1  
    67   29   62 1  
    68   31   63 1  
    69   35   64 1  
    70   35   65 1  
    71   35   66 1  
    72   40   67 1  
    73   41   68 1  
    74   42   69 1  
    75   42   70 1  
    76   43   71 1  
    77   43   72 1  
    78   45   73 1  
@<TRIPOS>SUBSTRUCTURE
     1 9ZM         1

