### 
### Created by X-TOOL on Mon Sep 10 21:13:32 2018
### 

@<TRIPOS>MOLECULE
5wbf_ligand
   11    10     1     0     0
SMALL
GAST_HUCK


@<TRIPOS>ATOM
      1 C1         36.2840   55.5150   13.9600 C.2       1 LAC         0.0630
      2 C2         36.3090   57.0190   13.9780 C.3       1 LAC         0.1045
      3 C3         37.4600   57.5990   14.7040 C.3       1 LAC        -0.0269
      4 O1         35.3030   55.1160   13.3640 O.co2     1 LAC        -0.5664
      5 O2         36.3000   57.5350   12.6780 O.3       1 LAC        -0.3780
      6 OXT        37.1420   54.7970   14.5150 O.co2     1 LAC        -0.5664
      7 H1         35.3926   57.3519   14.4873 H         1 LAC         0.0760
      8 H2         37.4006   58.6968   14.6682 H         1 LAC         0.0272
      9 H3         38.3964   57.2669   14.2319 H         1 LAC         0.0272
     10 H4         37.4389   57.2647   15.7517 H         1 LAC         0.0272
     11 H5         35.5649   57.1707   12.1990 H         1 LAC         0.2123
@<TRIPOS>BOND
     1    1    2 1  
     2    1    4 ar 
     3    1    6 ar 
     4    2    3 1  
     5    2    5 1  
     6    2    7 1  
     7    3    8 1  
     8    3    9 1  
     9    3   10 1  
    10    5   11 1  
@<TRIPOS>SUBSTRUCTURE
     1 LAC         1

