### 
### Created by X-TOOL on Mon Sep 10 21:13:33 2018
### 

@<TRIPOS>MOLECULE
5wbm_ligand
   36    38     1     0     0
SMALL
GAST_HUCK


@<TRIPOS>ATOM
      1 N3        -17.4470  -27.4700  -13.1920 N.ar      1 A4G        -0.2785
      2 C4        -16.5290  -26.5720  -13.5880 C.ar      1 A4G         0.1320
      3 N2        -19.1010  -26.4380  -14.6140 N.ar      1 A4G        -0.2735
      4 C7        -18.6640  -27.3410  -13.7290 C.ar      1 A4G         0.0493
      5 C6        -18.1670  -25.5390  -14.9960 C.ar      1 A4G         0.1213
      6 C9        -20.9570  -24.3590  -16.6240 C.3       1 A4G        -0.0317
      7 C13       -18.5400  -23.5550  -19.4370 C.3       1 A4G         0.0489
      8 C8        -19.9720  -23.9340  -15.5510 C.3       1 A4G         0.0331
      9 C1        -15.1420  -23.6630  -15.5630 C.3       1 A4G        -0.0472
     10 C2        -15.5200  -24.8080  -14.6700 C.2       1 A4G        -0.0399
     11 C3        -14.6380  -25.4310  -13.7980 C.2       1 A4G         0.0199
     12 N1        -15.2400  -26.4810  -13.1560 N.pl3     1 A4G        -0.2756
     13 C5        -16.7820  -25.5150  -14.5470 C.ar      1 A4G         0.0491
     14 N4        -18.6280  -24.4690  -15.7900 N.pl3     1 A4G        -0.2873
     15 C10       -20.4660  -23.9200  -17.9980 C.3       1 A4G        -0.0443
     16 C11       -19.0520  -24.4050  -18.2960 C.3       1 A4G         0.0031
     17 C12       -18.0730  -24.2570  -17.1290 C.3       1 A4G         0.0380
     18 O1        -18.1900  -24.3550  -20.5440 O.3       1 A4G        -0.3947
     19 H1        -19.3983  -28.0684  -13.4024 H         1 A4G         0.0974
     20 H2        -21.9343  -23.8959  -16.4231 H         1 A4G         0.0285
     21 H3        -21.0600  -25.4540  -16.6086 H         1 A4G         0.0285
     22 H4        -17.6532  -22.9977  -19.1010 H         1 A4G         0.0560
     23 H5        -19.3256  -22.8467  -19.7389 H         1 A4G         0.0560
     24 H6        -20.3302  -24.2983  -14.5769 H         1 A4G         0.0529
     25 H7        -19.9182  -22.8355  -15.5345 H         1 A4G         0.0529
     26 H8        -14.0932  -23.3862  -15.3802 H         1 A4G         0.0320
     27 H9        -15.7913  -22.8012  -15.3490 H         1 A4G         0.0320
     28 H10       -15.2643  -23.9621  -16.6144 H         1 A4G         0.0320
     29 H11       -13.6041  -25.1256  -13.6444 H         1 A4G         0.0786
     30 H12       -14.7931  -27.0981  -12.4630 H         1 A4G         0.2269
     31 H13       -20.4784  -22.8210  -18.0423 H         1 A4G         0.0270
     32 H14       -21.1460  -24.3255  -18.7616 H         1 A4G         0.0270
     33 H15       -19.0910  -25.4633  -18.5935 H         1 A4G         0.0343
     34 H16       -17.2626  -24.9861  -17.2760 H         1 A4G         0.0532
     35 H17       -17.6603  -23.2380  -17.1641 H         1 A4G         0.0532
     36 H18       -17.5090  -24.9663  -20.2888 H         1 A4G         0.2094
@<TRIPOS>BOND
     1    2    1 ar 
     2    4    1 ar 
     3    2   12 1  
     4   13    2 ar 
     5    3    4 ar 
     6    5    3 ar 
     7    5   13 ar 
     8   14    5 1  
     9    6    8 1  
    10   15    6 1  
    11   16    7 1  
    12    7   18 1  
    13    8   14 1  
    14   10    9 1  
    15   10   11 2  
    16   13   10 1  
    17   11   12 1  
    18   14   17 1  
    19   15   16 1  
    20   16   17 1  
    21    4   19 1  
    22    6   20 1  
    23    6   21 1  
    24    7   22 1  
    25    7   23 1  
    26    8   24 1  
    27    8   25 1  
    28    9   26 1  
    29    9   27 1  
    30    9   28 1  
    31   11   29 1  
    32   12   30 1  
    33   15   31 1  
    34   15   32 1  
    35   16   33 1  
    36   17   34 1  
    37   17   35 1  
    38   18   36 1  
@<TRIPOS>SUBSTRUCTURE
     1 A4G         1

