### 
### Created by X-TOOL on Mon Sep 10 21:13:33 2018
### 

@<TRIPOS>MOLECULE
5wbo_ligand
   31    32     1     0     0
SMALL
GAST_HUCK


@<TRIPOS>ATOM
      1 N3         -3.0610   -0.6750   17.9170 N.pl3     1 A1Y        -0.2845
      2 C4         -5.6940   -0.2000   20.3180 C.ar      1 A1Y         0.0114
      3 N2         -2.1940   -4.1770   19.4840 N.1       1 A1Y        -0.3477
      4 C7         -2.9330   -3.3010   19.5290 C.1       1 A1Y         0.0835
      5 C6         -3.9020   -2.2560   19.6610 C.ar      1 A1Y         0.1328
      6 C9         -2.2950   -1.2120   15.6560 C.3       1 A1Y         0.0683
      7 C8         -3.2230   -1.5960   16.7680 C.3       1 A1Y         0.0557
      8 C1         -5.0960   -3.8530   21.2740 C.3       1 A1Y        -0.0220
      9 C2         -4.9370   -2.4870   20.6450 C.ar      1 A1Y        -0.0096
     10 C3         -5.8290   -1.4450   20.9770 C.ar      1 A1Y        -0.0351
     11 N1         -4.7670    0.0400   19.3650 N.ar      1 A1Y        -0.2823
     12 C5         -3.8380   -0.9480   18.9550 C.ar      1 A1Y         0.1353
     13 O1         -2.5450    0.1120   15.2340 O.3       1 A1Y        -0.3757
     14 C10        -2.2460    1.0080   16.3010 C.3       1 A1Y         0.0683
     15 C11        -3.1040    0.7620   17.5200 C.3       1 A1Y         0.0557
     16 C12        -6.6090    0.9370   20.6340 C.3       1 A1Y        -0.0169
     17 H1         -2.4449   -1.8960   14.8077 H         1 A1Y         0.0580
     18 H2         -1.2562   -1.2885   16.0095 H         1 A1Y         0.0580
     19 H3         -4.2610   -1.5464   16.4072 H         1 A1Y         0.0549
     20 H4         -2.9958   -2.6225   17.0914 H         1 A1Y         0.0549
     21 H5         -5.9293   -3.8314   21.9917 H         1 A1Y         0.0436
     22 H6         -4.1680   -4.1258   21.7978 H         1 A1Y         0.0436
     23 H7         -5.3064   -4.5954   20.4901 H         1 A1Y         0.0436
     24 H8         -6.6021   -1.5953   21.7219 H         1 A1Y         0.0499
     25 H9         -2.4132    2.0383   15.9540 H         1 A1Y         0.0580
     26 H10        -1.1899    0.8825   16.5818 H         1 A1Y         0.0580
     27 H11        -2.7324    1.3774   18.3526 H         1 A1Y         0.0549
     28 H12        -4.1430    1.0422   17.2921 H         1 A1Y         0.0549
     29 H13        -6.3387    1.8073   20.0179 H         1 A1Y         0.0434
     30 H14        -6.5154    1.1981   21.6984 H         1 A1Y         0.0434
     31 H15        -7.6469    0.6433   20.4184 H         1 A1Y         0.0434
@<TRIPOS>BOND
     1    1    7 1  
     2   12    1 1  
     3    1   15 1  
     4   10    2 ar 
     5    2   11 ar 
     6    2   16 1  
     7    4    3 3  
     8    5    4 1  
     9    9    5 ar 
    10    5   12 ar 
    11    7    6 1  
    12    6   13 1  
    13    9    8 1  
    14    9   10 ar 
    15   11   12 ar 
    16   13   14 1  
    17   14   15 1  
    18    6   17 1  
    19    6   18 1  
    20    7   19 1  
    21    7   20 1  
    22    8   21 1  
    23    8   22 1  
    24    8   23 1  
    25   10   24 1  
    26   14   25 1  
    27   14   26 1  
    28   15   27 1  
    29   15   28 1  
    30   16   29 1  
    31   16   30 1  
    32   16   31 1  
@<TRIPOS>SUBSTRUCTURE
     1 A1Y         1

