### 
### Created by X-TOOL on Mon Sep 10 21:13:32 2018
### 

@<TRIPOS>MOLECULE
5wbp_ligand
   20    21     1     0     0
SMALL
GAST_HUCK


@<TRIPOS>ATOM
      1 C4         -3.1710   -0.8910   18.2610 C.ar      1 A2J         0.1338
      2 N2         -2.9550   -2.1420   18.8320 N.2       1 A2J        -0.2086
      3 C7         -4.7210   -1.6230   20.4920 C.2       1 A2J         0.2651
      4 C6         -4.3100    1.2580   18.2190 C.ar      1 A2J        -0.0105
      5 C9         -3.5390   -3.9080   20.3700 C.3       1 A2J         0.3883
      6 C8         -3.6930   -2.5000   19.8740 C.2       1 A2J         0.2002
      7 C1         -3.6080    1.5910   17.0670 C.ar      1 A2J        -0.0536
      8 C2         -2.7200    0.6920   16.5000 C.ar      1 A2J        -0.0527
      9 C3         -2.4980   -0.5480   17.0850 C.ar      1 A2J        -0.0211
     10 C5         -4.0990    0.0130   18.8080 C.ar      1 A2J         0.1370
     11 N1         -4.8400   -0.4030   19.9130 N.am      1 A2J        -0.2046
     12 O1         -5.4610   -1.9720   21.4180 O.2       1 A2J        -0.3727
     13 F1         -2.4430   -4.4960   19.8980 F         1 A2J        -0.2381
     14 F2         -3.4340   -3.9750   21.6870 F         1 A2J        -0.2381
     15 F3         -4.5670   -4.6620   20.0320 F         1 A2J        -0.2381
     16 H1         -5.0135    1.9585   18.6543 H         1 A2J         0.0581
     17 H2         -3.7565    2.5620   16.6085 H         1 A2J         0.0730
     18 H3         -2.1932    0.9587   15.5909 H         1 A2J         0.0584
     19 H4         -1.8052   -1.2473   16.6311 H         1 A2J         0.0727
     20 H5         -5.5006    0.2385   20.3029 H         1 A2J         0.2516
@<TRIPOS>BOND
     1    1    2 1  
     2    1    9 ar 
     3   10    1 ar 
     4    2    6 2  
     5    6    3 1  
     6    3   11 am 
     7    3   12 2  
     8    4    7 ar 
     9    4   10 ar 
    10    6    5 1  
    11    5   13 1  
    12    5   14 1  
    13    5   15 1  
    14    7    8 ar 
    15    8    9 ar 
    16   10   11 1  
    17    4   16 1  
    18    7   17 1  
    19    8   18 1  
    20    9   19 1  
    21   11   20 1  
@<TRIPOS>SUBSTRUCTURE
     1 A2J         1

