### 
### Created by X-TOOL on Mon Sep 10 21:13:33 2018
### 

@<TRIPOS>MOLECULE
5wbq_ligand
   41    43     1     0     0
SMALL
GAST_HUCK


@<TRIPOS>ATOM
      1 N3         -1.8670   -2.3130   19.0680 N.1       1 A3J        -0.3385
      2 C4         -7.7270   -2.0460   22.3870 C.2       1 A3J        -0.0352
      3 N2         -5.7200   -3.4230   21.7220 N.ar      1 A3J        -0.2938
      4 C7         -5.1050   -1.1870   19.9710 C.ar      1 A3J         0.1402
      5 C6         -6.2680   -1.2150   20.8040 C.ar      1 A3J         0.1490
      6 C9         -4.6290   -3.4080   20.9550 C.ar      1 A3J         0.1117
      7 C13        -5.0290    2.1650   18.5230 C.3       1 A3J        -0.0016
      8 C8         -4.2320   -2.3080   20.0910 C.ar      1 A3J         0.1421
      9 C16        -3.1440    1.8660   16.8160 C.3       1 A3J        -0.0341
     10 C1        -10.5940   -0.6340   21.9790 C.3       1 A3J        -0.0501
     11 C2         -9.3110    0.0000   22.4540 C.3       1 A3J         0.0094
     12 C3         -8.1490   -0.7930   21.9770 C.2       1 A3J         0.0599
     13 C5         -6.5280   -2.3430   21.6640 C.ar      1 A3J         0.0610
     14 N1         -7.2780   -0.2880   21.0120 N.pl3     1 A3J        -0.2477
     15 C10        -3.8320   -4.7490   20.9490 C.3       1 A3J         0.3843
     16 F1         -2.5320   -4.5700   21.1370 F         1 A3J        -0.2206
     17 F2         -4.2310   -5.5680   21.9110 F         1 A3J        -0.2206
     18 F3         -3.9550   -5.3890   19.7980 F         1 A3J        -0.2206
     19 C11        -2.9220   -2.3050   19.5000 C.1       1 A3J         0.0940
     20 N4         -5.0560   -0.0700   19.1180 N.pl3     1 A3J        -0.2872
     21 C12        -4.7510    1.2350   19.6930 C.3       1 A3J         0.0347
     22 C14        -4.4930    1.3620   17.3050 C.3       1 A3J         0.0855
     23 C15        -4.3830   -0.1060   17.7770 C.3       1 A3J         0.0605
     24 O1         -5.4470    1.3500   16.2340 O.3       1 A3J        -0.3867
     25 H1         -8.2152   -2.6852   23.1212 H         1 A3J         0.0237
     26 H2         -4.4898    3.1169   18.6375 H         1 A3J         0.0313
     27 H3         -6.1063    2.3636   18.4228 H         1 A3J         0.0313
     28 H4         -2.8167    1.2624   15.9566 H         1 A3J         0.0258
     29 H5         -2.4051    1.7811   17.6264 H         1 A3J         0.0258
     30 H6         -3.2345    2.9190   16.5112 H         1 A3J         0.0258
     31 H7        -11.4496   -0.0418   22.3357 H         1 A3J         0.0258
     32 H8        -10.6659   -1.6576   22.3753 H         1 A3J         0.0258
     33 H9        -10.6026   -0.6650   20.8795 H         1 A3J         0.0258
     34 H10        -9.3047    0.0312   23.5535 H         1 A3J         0.0493
     35 H11        -9.2414    1.0238   22.0577 H         1 A3J         0.0493
     36 H12        -7.3695    0.6200   20.5345 H         1 A3J         0.2382
     37 H13        -5.4069    1.4592   20.5471 H         1 A3J         0.0527
     38 H14        -3.7000    1.2961   20.0119 H         1 A3J         0.0527
     39 H15        -4.9067   -0.7849   17.0880 H         1 A3J         0.0554
     40 H16        -3.3315   -0.4159   17.8686 H         1 A3J         0.0554
     41 H17        -6.2817    1.0328   16.5584 H         1 A3J         0.2102
@<TRIPOS>BOND
     1   19    1 3  
     2   12    2 2  
     3   13    2 1  
     4    6    3 ar 
     5   13    3 ar 
     6    4    5 ar 
     7    4    8 ar 
     8   20    4 1  
     9    5   13 ar 
    10    5   14 1  
    11    8    6 ar 
    12    6   15 1  
    13   21    7 1  
    14    7   22 1  
    15    8   19 1  
    16   22    9 1  
    17   11   10 1  
    18   12   11 1  
    19   14   12 1  
    20   15   16 1  
    21   15   17 1  
    22   15   18 1  
    23   20   21 1  
    24   20   23 1  
    25   22   23 1  
    26   22   24 1  
    27    2   25 1  
    28    7   26 1  
    29    7   27 1  
    30    9   28 1  
    31    9   29 1  
    32    9   30 1  
    33   10   31 1  
    34   10   32 1  
    35   10   33 1  
    36   11   34 1  
    37   11   35 1  
    38   14   36 1  
    39   21   37 1  
    40   21   38 1  
    41   23   39 1  
    42   23   40 1  
    43   24   41 1  
@<TRIPOS>SUBSTRUCTURE
     1 A3J         1

