### 
### Created by X-TOOL on Mon Sep 10 21:13:33 2018
### 

@<TRIPOS>MOLECULE
5wbr_ligand
   56    58     1     0     0
SMALL
GAST_HUCK


@<TRIPOS>ATOM
      1 N3        -10.3060   -1.2160   22.7760 N.4       1 A3Y         0.2398
      2 C4         -4.8660   -0.4080   19.5700 C.ar      1 A3Y         0.1615
      3 N2         -7.5640   -0.8230   21.9450 N.pl3     1 A3Y        -0.2761
      4 C7         -9.9750   -0.5330   21.5120 C.3       1 A3Y        -0.0107
      5 C6         -8.6130    0.1560   21.6000 C.3       1 A3Y         0.0722
      6 C9         -7.9010   -1.4540   23.2290 C.3       1 A3Y         0.0722
      7 C13        -3.9140    2.7320   17.9060 C.3       1 A3Y        -0.0319
      8 C8         -9.2340   -2.1700   23.1140 C.3       1 A3Y        -0.0107
      9 N5         -1.7230   -1.8910   18.7920 N.1       1 A3Y        -0.3342
     10 C18        -2.7780   -1.7390   19.2180 C.1       1 A3Y         0.1005
     11 C16        -4.2990   -0.0160   17.2640 C.3       1 A3Y         0.0375
     12 C19        -3.9260   -3.9800   20.8260 C.3       1 A3Y         0.3877
     13 C1         -5.7600   -2.3650   21.3520 C.ar      1 A3Y         0.0121
     14 C2         -4.5850   -2.5860   20.6630 C.ar      1 A3Y         0.0773
     15 C3         -4.0710   -1.6040   19.7830 C.ar      1 A3Y         0.1487
     16 N1         -6.0400   -0.1720   20.2840 N.ar      1 A3Y        -0.2267
     17 C5         -6.5090   -1.1030   21.2000 C.ar      1 A3Y         0.1406
     18 C10       -11.6410   -1.8510   22.7210 C.3       1 A3Y        -0.0080
     19 C11       -12.0290   -2.6790   23.9420 C.3       1 A3Y         0.0841
     20 O1        -13.4080   -3.0200   23.9490 O.3       1 A3Y        -0.3898
     21 N4         -4.5520    0.4590   18.6250 N.pl3     1 A3Y        -0.2840
     22 C12        -4.9610    1.8700   18.5880 C.3       1 A3Y         0.0327
     23 C14        -3.4320    2.1110   16.5910 C.3       1 A3Y        -0.0444
     24 C15        -3.0370    0.6370   16.7240 C.3       1 A3Y         0.0029
     25 C17        -2.7600   -0.0330   15.3880 C.3       1 A3Y         0.0489
     26 O2         -2.3730   -1.3980   15.5330 O.3       1 A3Y        -0.3947
     27 F1         -4.0120   -4.5060   22.0600 F         1 A3Y        -0.2109
     28 F2         -4.5480   -4.8740   20.0790 F         1 A3Y        -0.2109
     29 F3         -2.6190   -4.0790   20.5130 F         1 A3Y        -0.2109
     30 H1        -10.3366   -0.5201   23.5046 H         1 A3Y         0.2036
     31 H2        -10.7463    0.2216   21.2985 H         1 A3Y         0.0835
     32 H3         -9.9513   -1.2734   20.6989 H         1 A3Y         0.0835
     33 H4         -8.3755    0.6151   20.6290 H         1 A3Y         0.0578
     34 H5         -8.6504    0.9357   22.3750 H         1 A3Y         0.0578
     35 H6         -7.9672   -0.6817   24.0095 H         1 A3Y         0.0578
     36 H7         -7.1185   -2.1794   23.4963 H         1 A3Y         0.0578
     37 H8         -3.0534    2.8475   18.5813 H         1 A3Y         0.0285
     38 H9         -4.3493    3.7198   17.6944 H         1 A3Y         0.0285
     39 H10        -9.1675   -2.9339   22.3253 H         1 A3Y         0.0835
     40 H11        -9.4691   -2.6533   24.0738 H         1 A3Y         0.0835
     41 H12        -5.1514    0.2462   16.6201 H         1 A3Y         0.0530
     42 H13        -4.1702   -1.1084   17.2752 H         1 A3Y         0.0530
     43 H14        -6.1395   -3.1324   22.0169 H         1 A3Y         0.0793
     44 H15       -11.6650   -2.5124   21.8424 H         1 A3Y         0.0837
     45 H16       -12.3898   -1.0543   22.6008 H         1 A3Y         0.0837
     46 H17       -11.8042   -2.0982   24.8487 H         1 A3Y         0.0610
     47 H18       -11.4360   -3.6055   23.9435 H         1 A3Y         0.0610
     48 H19       -13.6022   -3.5331   24.7245 H         1 A3Y         0.2096
     49 H20        -5.9086    1.9536   18.0357 H         1 A3Y         0.0526
     50 H21        -5.1041    2.2283   19.6181 H         1 A3Y         0.0526
     51 H22        -2.5566    2.6762   16.2385 H         1 A3Y         0.0270
     52 H23        -4.2417    2.1897   15.8506 H         1 A3Y         0.0270
     53 H24        -2.1777    0.5182   17.4003 H         1 A3Y         0.0343
     54 H25        -1.9498    0.5117   14.8811 H         1 A3Y         0.0560
     55 H26        -3.6720    0.0121   14.7746 H         1 A3Y         0.0560
     56 H27        -2.2112   -1.7729   14.6752 H         1 A3Y         0.2094
@<TRIPOS>BOND
     1    4    1 1  
     2    8    1 1  
     3    1   18 1  
     4    2   15 ar 
     5    2   16 ar 
     6   21    2 1  
     7    3    5 1  
     8    3    6 1  
     9   17    3 1  
    10    5    4 1  
    11    6    8 1  
    12   22    7 1  
    13    7   23 1  
    14   10    9 3  
    15   15   10 1  
    16   21   11 1  
    17   11   24 1  
    18   14   12 1  
    19   12   27 1  
    20   12   28 1  
    21   12   29 1  
    22   14   13 ar 
    23   17   13 ar 
    24   15   14 ar 
    25   16   17 ar 
    26   18   19 1  
    27   19   20 1  
    28   21   22 1  
    29   23   24 1  
    30   24   25 1  
    31   25   26 1  
    32    1   30 1  
    33    4   31 1  
    34    4   32 1  
    35    5   33 1  
    36    5   34 1  
    37    6   35 1  
    38    6   36 1  
    39    7   37 1  
    40    7   38 1  
    41    8   39 1  
    42    8   40 1  
    43   11   41 1  
    44   11   42 1  
    45   13   43 1  
    46   18   44 1  
    47   18   45 1  
    48   19   46 1  
    49   19   47 1  
    50   20   48 1  
    51   22   49 1  
    52   22   50 1  
    53   23   51 1  
    54   23   52 1  
    55   24   53 1  
    56   25   54 1  
    57   25   55 1  
    58   26   56 1  
@<TRIPOS>SUBSTRUCTURE
     1 A3Y         1

