### 
### Created by X-TOOL on Mon Sep 10 21:13:32 2018
### 

@<TRIPOS>MOLECULE
5wbz_ligand
   45    47     1     0     0
SMALL
GAST_HUCK


@<TRIPOS>ATOM
      1 N3         -7.6260   -1.1790   21.6460 N.pl3     1 A4J        -0.2812
      2 C4         -5.0920    1.6920   19.0180 C.3       1 A4J         0.0354
      3 N2         -5.9500   -0.4780   20.2620 N.ar      1 A4J        -0.2267
      4 C7         -4.0020   -1.8520   19.7120 C.ar      1 A4J         0.1487
      5 C6         -4.7820   -0.6500   19.6350 C.ar      1 A4J         0.1616
      6 C9         -5.7760   -2.6700   21.1940 C.ar      1 A4J         0.0121
      7 C13        -9.4260    0.0560   22.4680 C.3       1 A4J         0.1033
      8 C8         -4.5770   -2.8580   20.5110 C.ar      1 A4J         0.0773
      9 C16        -2.7090   -2.0560   19.1230 C.1       1 A4J         0.1005
     10 C1         -2.7230    2.1820   16.1730 C.3       1 A4J        -0.0341
     11 C2         -3.8890    1.6300   16.9800 C.3       1 A4J         0.0856
     12 C3         -4.4100    2.6120   18.0200 C.3       1 A4J        -0.0016
     13 N1         -4.3260    0.4430   18.9500 N.pl3     1 A4J        -0.2815
     14 C5         -3.4850    0.3930   17.7600 C.3       1 A4J         0.0612
     15 C10        -6.4360   -1.4480   21.0370 C.ar      1 A4J         0.1404
     16 C11        -8.4120   -2.0940   22.4870 C.3       1 A4J         0.0606
     17 C12        -9.7810   -1.4400   22.4140 C.3       1 A4J         0.1033
     18 C14        -8.2620    0.1400   21.4970 C.3       1 A4J         0.0606
     19 O1         -8.9970    0.4370   23.7780 O.3       1 A4J        -0.3871
     20 O2        -10.3860   -1.7220   21.1490 O.3       1 A4J        -0.3871
     21 C15        -3.9090   -4.2020   20.6380 C.3       1 A4J         0.3877
     22 F1         -4.6670   -5.0980   21.2440 F         1 A4J        -0.2109
     23 F2         -3.6200   -4.7440   19.4460 F         1 A4J        -0.2109
     24 F3         -2.7700   -4.1430   21.3580 F         1 A4J        -0.2109
     25 N4         -1.6730   -2.1820   18.6710 N.1       1 A4J        -0.3342
     26 O3         -4.9410    1.2390   16.0870 O.3       1 A4J        -0.3867
     27 H1         -6.1410    1.5205   18.7348 H         1 A4J         0.0527
     28 H2         -5.0507    2.1186   20.0311 H         1 A4J         0.0527
     29 H3         -6.1851   -3.4480   21.8283 H         1 A4J         0.0793
     30 H4        -10.2708    0.6847   22.1502 H         1 A4J         0.0640
     31 H5         -3.0496    3.0758   15.6212 H         1 A4J         0.0258
     32 H6         -2.3755    1.4185   15.4615 H         1 A4J         0.0258
     33 H7         -1.9011    2.4508   16.8529 H         1 A4J         0.0258
     34 H8         -3.5863    3.1694   18.4899 H         1 A4J         0.0313
     35 H9         -5.1257    3.3199   17.5766 H         1 A4J         0.0313
     36 H10        -2.4196    0.4311   18.0311 H         1 A4J         0.0555
     37 H11        -3.6830   -0.5193   17.1782 H         1 A4J         0.0555
     38 H12        -8.0317   -2.1234   23.5187 H         1 A4J         0.0551
     39 H13        -8.4272   -3.1128   22.0726 H         1 A4J         0.0551
     40 H14       -10.4362   -1.7485   23.2419 H         1 A4J         0.0640
     41 H15        -8.6144    0.2972   20.4669 H         1 A4J         0.0551
     42 H16        -7.5700    0.9485   21.7752 H         1 A4J         0.0551
     43 H17        -9.7308    0.3817   24.3789 H         1 A4J         0.2100
     44 H18       -10.4804   -2.6618   21.0469 H         1 A4J         0.2100
     45 H19        -4.5993    0.6272   15.4455 H         1 A4J         0.2102
@<TRIPOS>BOND
     1   15    1 1  
     2    1   16 1  
     3    1   18 1  
     4   12    2 1  
     5    2   13 1  
     6    5    3 ar 
     7    3   15 ar 
     8    5    4 ar 
     9    4    8 ar 
    10    4    9 1  
    11   13    5 1  
    12    8    6 ar 
    13   15    6 ar 
    14    7   17 1  
    15   18    7 1  
    16    7   19 1  
    17    8   21 1  
    18    9   25 3  
    19   11   10 1  
    20   11   12 1  
    21   11   14 1  
    22   11   26 1  
    23   13   14 1  
    24   16   17 1  
    25   17   20 1  
    26   21   22 1  
    27   21   23 1  
    28   21   24 1  
    29    2   27 1  
    30    2   28 1  
    31    6   29 1  
    32    7   30 1  
    33   10   31 1  
    34   10   32 1  
    35   10   33 1  
    36   12   34 1  
    37   12   35 1  
    38   14   36 1  
    39   14   37 1  
    40   16   38 1  
    41   16   39 1  
    42   17   40 1  
    43   18   41 1  
    44   18   42 1  
    45   19   43 1  
    46   20   44 1  
    47   26   45 1  
@<TRIPOS>SUBSTRUCTURE
     1 A4J         1

