### 
### Created by X-TOOL on Mon Sep 10 21:13:34 2018
### 

@<TRIPOS>MOLECULE
5wcl_ligand
   27    28     1     0     0
SMALL
GAST_HUCK


@<TRIPOS>ATOM
      1 CAA         7.0480    3.6910    2.2460 C.3       1 9XG        -0.0339
      2 CAB        -0.7460    2.5670   -1.3110 C.ar      1 9XG        -0.0741
      3 CAC        -0.8100    2.0090   -0.0390 C.ar      1 9XG        -0.0723
      4 CAD         0.4350    3.1450   -1.7590 C.ar      1 9XG        -0.0723
      5 CAE         5.6360    1.9160   -0.6540 C.ar      1 9XG        -0.0788
      6 CAF         6.5630    2.4910    0.2080 C.ar      1 9XG        -0.0728
      7 CAG         0.3090    2.0290    0.7820 C.ar      1 9XG        -0.0399
      8 CAH         1.5540    3.1640   -0.9370 C.ar      1 9XG        -0.0399
      9 CAI         4.2810    1.9580   -0.3480 C.ar      1 9XG        -0.0468
     10 CAJ         4.7750    3.1490    1.6840 C.ar      1 9XG        -0.0394
     11 CAL         6.1310    3.1090    1.3770 C.ar      1 9XG        -0.0567
     12 CAM         1.4940    2.6040    0.3350 C.ar      1 9XG         0.0579
     13 CAN         3.8470    2.5750    0.8210 C.ar      1 9XG         0.0509
     14 NAK         2.5560    2.6190    1.1360 N.pl3     1 9XG        -0.2766
     15 H1          8.0645    3.5644    1.8450 H         1 9XG         0.0389
     16 H2          6.9792    3.2056    3.2307 H         1 9XG         0.0389
     17 H3          6.8256    4.7633    2.3494 H         1 9XG         0.0389
     18 H4         -1.6187    2.5509   -1.9538 H         1 9XG         0.0513
     19 H5         -1.7321    1.5592    0.3108 H         1 9XG         0.0585
     20 H6          0.4831    3.5812   -2.7502 H         1 9XG         0.0585
     21 H7          5.9705    1.4344   -1.5657 H         1 9XG         0.0569
     22 H8          7.6200    2.4578   -0.0303 H         1 9XG         0.0455
     23 H9          0.2593    1.5953    1.7742 H         1 9XG         0.0529
     24 H10         2.4752    3.6157   -1.2869 H         1 9XG         0.0529
     25 H11         3.5604    1.5089   -1.0219 H         1 9XG         0.0473
     26 H12         4.4408    3.6282    2.5971 H         1 9XG         0.0464
     27 H13         2.3487    2.6723    2.1435 H         1 9XG         0.2080
@<TRIPOS>BOND
     1   11    1 1  
     2    3    2 ar 
     3    4    2 ar 
     4    7    3 ar 
     5    8    4 ar 
     6    5    6 ar 
     7    9    5 ar 
     8   11    6 ar 
     9   12    7 ar 
    10   12    8 ar 
    11   13    9 ar 
    12   10   11 ar 
    13   13   10 ar 
    14   14   12 1  
    15   13   14 1  
    16    1   15 1  
    17    1   16 1  
    18    1   17 1  
    19    2   18 1  
    20    3   19 1  
    21    4   20 1  
    22    5   21 1  
    23    6   22 1  
    24    7   23 1  
    25    8   24 1  
    26    9   25 1  
    27   10   26 1  
    28   14   27 1  
@<TRIPOS>SUBSTRUCTURE
     1 9XG         1

