### 
### Created by X-TOOL on Mon Sep 10 21:13:30 2018
### 

@<TRIPOS>MOLECULE
5wcm_ligand
   19    19     1     0     0
SMALL
GAST_HUCK


@<TRIPOS>ATOM
      1 S          40.3450   26.7240   56.0710 S.o2      1 4NZ         0.0681
      2 C1         43.8850   24.8240   54.0770 C.ar      1 4NZ         0.1997
      3 N1         40.3440   28.2580   55.9660 N.am      1 4NZ        -0.2604
      4 O1         39.1880   26.2440   55.3920 O.2       1 4NZ        -0.1498
      5 C2         43.8720   26.1990   54.2130 C.ar      1 4NZ        -0.0170
      6 O2         40.4610   26.3970   57.4540 O.2       1 4NZ        -0.1498
      7 C3         42.7850   26.7970   54.8300 C.ar      1 4NZ        -0.0270
      8 C4         41.7390   26.0090   55.2730 C.ar      1 4NZ         0.1132
      9 C5         41.7760   24.6300   55.1470 C.ar      1 4NZ        -0.0270
     10 C6         42.8670   24.0290   54.5570 C.ar      1 4NZ        -0.0170
     11 N7         44.9520   24.1980   53.2890 N.2       1 4NZ         0.3148
     12 O12        45.7610   24.9180   52.7340 O.2       1 4NZ         0.1782
     13 O13        44.9880   22.9770   53.2330 O.2       1 4NZ         0.1782
     14 H1         40.2701   28.6979   55.0710 H         1 4NZ         0.1635
     15 H2         40.4172   28.8158   56.7927 H         1 4NZ         0.1635
     16 H3         44.6964   26.7984   53.8440 H         1 4NZ         0.0693
     17 H4         42.7550   27.8723   54.9641 H         1 4NZ         0.0652
     18 H5         40.9517   24.0271   55.5103 H         1 4NZ         0.0652
     19 H6         42.9233   22.9498   54.4721 H         1 4NZ         0.0693
@<TRIPOS>BOND
     1    1    3 am 
     2    1    4 2  
     3    1    6 2  
     4    8    1 1  
     5    5    2 ar 
     6    2   10 ar 
     7    2   11 1  
     8    7    5 ar 
     9    7    8 ar 
    10    8    9 ar 
    11    9   10 ar 
    12   11   12 2  
    13   11   13 2  
    14    3   14 1  
    15    3   15 1  
    16    5   16 1  
    17    7   17 1  
    18    9   18 1  
    19   10   19 1  
@<TRIPOS>SUBSTRUCTURE
     1 4NZ         1

