### 
### Created by X-TOOL on Wed Jan  1 15:39:38 2020
### 

@<TRIPOS>MOLECULE
5wdc_ligand
   60    63     1     0     0
SMALL
GAST_HUCK


@<TRIPOS>ATOM
      1 C1        493.4200  197.2150  556.5200 C.2       1 G2K         0.2603
      2 C10       497.4000  190.2520  553.6030 C.ar      1 G2K        -0.0687
      3 C11       497.1080  190.5040  552.2840 C.ar      1 G2K        -0.0686
      4 C12       497.3350  191.7630  551.7490 C.ar      1 G2K        -0.0603
      5 C13       493.1180  195.1510  555.3450 C.2       1 G2K         0.1641
      6 C14       492.2960  193.9260  555.0070 C.3       1 G2K         0.1312
      7 C15       492.2700  192.8690  556.1220 C.3       1 G2K        -0.0084
      8 C16       493.5970  192.1570  555.9110 C.3       1 G2K        -0.0274
      9 C17       493.6000  191.9510  554.4120 C.3       1 G2K         0.0378
     10 C18       492.8270  193.5200  552.6260 C.2       1 G2K         0.2124
     11 C19       493.5960  192.7040  551.6110 C.3       1 G2K         0.1595
     12 C2        494.6750  197.2970  555.9210 C.2       1 G2K         0.1828
     13 C20       494.1390  194.3500  549.9540 C.ar      1 G2K         0.1086
     14 C21       494.8710  195.1430  550.8370 C.ar      1 G2K        -0.0322
     15 C22       495.5150  196.2810  550.3840 C.ar      1 G2K        -0.0704
     16 C23       495.4540  196.6420  549.0560 C.ar      1 G2K        -0.0723
     17 C24       494.7460  195.8740  548.1670 C.ar      1 G2K        -0.0566
     18 C25       494.0960  194.7360  548.6160 C.ar      1 G2K         0.0680
     19 C3        495.0950  196.3130  555.0770 C.2       1 G2K         0.1060
     20 C4        496.4480  196.3830  554.4150 C.2       1 G2K         0.2004
     21 C5        498.0540  195.2550  552.9750 C.3       1 G2K         0.0395
     22 C6        498.1040  194.1530  551.9450 C.3       1 G2K         0.0010
     23 C7        497.8540  192.7830  552.5310 C.ar      1 G2K        -0.0411
     24 C8        498.1470  192.5100  553.8580 C.ar      1 G2K        -0.0603
     25 C9        497.9170  191.2510  554.3900 C.ar      1 G2K        -0.0686
     26 N1        496.7380  195.3740  553.5970 N.am      1 G2K        -0.2864
     27 N2        494.3290  195.2500  554.7920 N.2       1 G2K        -0.3043
     28 N3        492.9060  193.1470  553.9140 N.am      1 G2K        -0.2470
     29 N4        492.6570  196.1120  556.2040 N.am      1 G2K        -0.1947
     30 O1        492.9750  198.0690  557.3000 O.2       1 G2K        -0.3954
     31 O2        495.4030  198.3760  556.2370 O.3       1 G2K        -0.3268
     32 O3        497.2120  197.3210  554.6360 O.2       1 G2K        -0.3921
     33 O4        493.4680  193.2110  550.2860 O.3       1 G2K        -0.2967
     34 O5        492.1530  194.4930  552.2970 O.2       1 G2K        -0.3937
     35 CL1       493.2010  193.7680  547.4820 Cl        1 G2K        -0.0788
     36 H1        497.2227  189.2675  554.0207 H         1 G2K         0.0559
     37 H2        496.6994  189.7170  551.6605 H         1 G2K         0.0599
     38 H3        497.1038  191.9517  550.7069 H         1 G2K         0.0557
     39 H4        491.2761  194.2467  554.7482 H         1 G2K         0.0845
     40 H5        491.4221  192.1791  555.9995 H         1 G2K         0.0321
     41 H6        492.2210  193.3373  557.1161 H         1 G2K         0.0321
     42 H7        493.6268  191.1972  556.4476 H         1 G2K         0.0288
     43 H8        494.4431  192.7827  556.2314 H         1 G2K         0.0288
     44 H9        493.0562  191.0351  554.1374 H         1 G2K         0.0525
     45 H10       494.6272  191.8985  554.0219 H         1 G2K         0.0525
     46 H11       493.2177  191.6713  551.6305 H         1 G2K         0.0860
     47 H12       494.6604  192.7099  551.8885 H         1 G2K         0.0860
     48 H13       494.9359  194.8667  551.8832 H         1 G2K         0.0542
     49 H14       496.0734  196.8948  551.0815 H         1 G2K         0.0591
     50 H15       495.9660  197.5339  548.7132 H         1 G2K         0.0523
     51 H16       494.6955  196.1553  547.1214 H         1 G2K         0.0595
     52 H17       498.3010  196.2084  552.4851 H         1 G2K         0.0541
     53 H18       498.7969  195.0415  553.7576 H         1 G2K         0.0541
     54 H19       499.0989  194.1569  551.4759 H         1 G2K         0.0446
     55 H20       497.3378  194.3523  551.1814 H         1 G2K         0.0446
     56 H21       498.5607  193.2900  554.4868 H         1 G2K         0.0557
     57 H22       498.1461  191.0545  555.4311 H         1 G2K         0.0599
     58 H23       496.0408  194.6835  553.4044 H         1 G2K         0.1840
     59 H24       491.7487  196.0116  556.6101 H         1 G2K         0.2537
     60 H25       496.2138  198.1003  556.6482 H         1 G2K         0.2490
@<TRIPOS>BOND
     1   12    1 1  
     2    1   29 am 
     3    1   30 2  
     4    3    2 ar 
     5    2   25 ar 
     6    4    3 ar 
     7   23    4 ar 
     8    5    6 1  
     9   27    5 2  
    10    5   29 1  
    11    6    7 1  
    12    6   28 1  
    13    7    8 1  
    14    9    8 1  
    15   28    9 1  
    16   10   11 1  
    17   28   10 am 
    18   10   34 2  
    19   11   33 1  
    20   19   12 2  
    21   12   31 1  
    22   13   14 ar 
    23   13   18 ar 
    24   33   13 1  
    25   14   15 ar 
    26   15   16 ar 
    27   17   16 ar 
    28   18   17 ar 
    29   18   35 1  
    30   20   19 1  
    31   19   27 1  
    32   26   20 am 
    33   20   32 2  
    34   22   21 1  
    35   21   26 1  
    36   22   23 1  
    37   23   24 ar 
    38   24   25 ar 
    39    2   36 1  
    40    3   37 1  
    41    4   38 1  
    42    6   39 1  
    43    7   40 1  
    44    7   41 1  
    45    8   42 1  
    46    8   43 1  
    47    9   44 1  
    48    9   45 1  
    49   11   46 1  
    50   11   47 1  
    51   14   48 1  
    52   15   49 1  
    53   16   50 1  
    54   17   51 1  
    55   21   52 1  
    56   21   53 1  
    57   22   54 1  
    58   22   55 1  
    59   24   56 1  
    60   25   57 1  
    61   26   58 1  
    62   29   59 1  
    63   31   60 1  
@<TRIPOS>SUBSTRUCTURE
     1 G2K         1

