### 
### Created by X-TOOL on Wed Jan  1 15:39:37 2020
### 

@<TRIPOS>MOLECULE
5wdj_ligand
   28    30     1     0     0
SMALL
GAST_HUCK


@<TRIPOS>ATOM
      1 C05       -22.7930  -51.3290   15.9630 C.ar      1 AEY        -0.0577
      2 C06       -22.6020  -49.9510   15.8350 C.ar      1 AEY        -0.0115
      3 C01       -24.2100  -50.9490   17.8790 C.ar      1 AEY        -0.0687
      4 N14       -19.8680  -47.9190   16.1320 N.ar      1 AEY        -0.2373
      5 C11       -21.7260  -49.4080   14.7230 C.3       1 AEY         0.1124
      6 C02       -24.0240  -49.5710   17.7590 C.ar      1 AEY        -0.0685
      7 C03       -23.5980  -51.8290   16.9850 C.ar      1 AEY        -0.0685
      8 C04       -23.2190  -49.0730   16.7320 C.ar      1 AEY        -0.0577
      9 N17       -19.4320  -45.9630   17.3340 N.pl3     1 AEY        -0.3088
     10 C10       -19.0410  -47.2020   16.9420 C.ar      1 AEY         0.1603
     11 C09       -19.5280  -49.1550   15.7080 C.ar      1 AEY         0.1897
     12 C07       -18.2180  -49.7120   16.1510 C.ar      1 AEY         0.1466
     13 N12       -17.5480  -50.8680   15.9510 N.2       1 AEY        -0.1955
     14 N15       -16.3370  -50.7860   16.6620 N.2       1 AEY        -0.0811
     15 N16       -16.2860  -49.5360   17.3040 N.pl3     1 AEY        -0.1644
     16 C08       -17.4410  -48.9140   16.9740 C.ar      1 AEY         0.1699
     17 N13       -17.8420  -47.6830   17.3670 N.ar      1 AEY        -0.2547
     18 O18       -20.3790  -49.8570   14.8980 O.3       1 AEY        -0.2767
     19 H1        -22.3151  -52.0093   15.2674 H         1 AEY         0.0557
     20 H2        -24.8354  -51.3394   18.6737 H         1 AEY         0.0559
     21 H3        -21.7492  -48.3085   14.7449 H         1 AEY         0.0795
     22 H4        -22.1055  -49.7636   13.7537 H         1 AEY         0.0795
     23 H5        -24.5006  -48.8926   18.4574 H         1 AEY         0.0599
     24 H6        -23.7483  -52.8978   17.0852 H         1 AEY         0.0599
     25 H7        -23.0721  -48.0039   16.6299 H         1 AEY         0.0557
     26 H8        -20.3374  -45.5853   17.0201 H         1 AEY         0.1822
     27 H9        -18.8233  -45.4003   17.9454 H         1 AEY         0.1822
     28 H10       -15.5291  -49.1711   17.8997 H         1 AEY         0.2614
@<TRIPOS>BOND
     1    2    1 ar 
     2    1    7 ar 
     3    5    2 1  
     4    2    8 ar 
     5    6    3 ar 
     6    7    3 ar 
     7    4   10 ar 
     8   11    4 ar 
     9   18    5 1  
    10    8    6 ar 
    11   10    9 1  
    12   10   17 ar 
    13   11   12 ar 
    14   11   18 1  
    15   12   13 1  
    16   12   16 ar 
    17   13   14 2  
    18   14   15 1  
    19   15   16 1  
    20   16   17 ar 
    21    1   19 1  
    22    3   20 1  
    23    5   21 1  
    24    5   22 1  
    25    6   23 1  
    26    7   24 1  
    27    8   25 1  
    28    9   26 1  
    29    9   27 1  
    30   15   28 1  
@<TRIPOS>SUBSTRUCTURE
     1 AEY         1

