### 
### Created by X-TOOL on Mon Aug  2 16:10:02 2021
### 

@<TRIPOS>MOLECULE
5wdl_ligand
   37    36     1     0     0
SMALL
GAST_HUCK


@<TRIPOS>ATOM
      1 C02         6.6700   10.1890  -15.4240 C.2       1 R33         0.1272
      2 C03         5.5140   11.0890  -15.8330 C.3       1 R33         0.0118
      3 C04         6.8740    8.8540  -16.1370 C.3       1 R33         0.1148
      4 C05         8.2080    8.8970  -16.8760 C.3       1 R33        -0.0103
      5 C06         8.6550    7.5240  -17.3650 C.3       1 R33        -0.0155
      6 C07         9.7950    7.6260  -18.3740 C.3       1 R33         0.0627
      7 C09        10.6710    6.0900  -20.1630 C.cat     1 R33         0.2882
      8 C13         4.8020    7.6400  -16.9580 C.2       1 R33         0.2237
      9 C14         3.7000    7.5120  -18.0100 C.3       1 R33         0.0545
     10 N08        10.1640    6.2970  -18.8200 N.pl3     1 R33        -0.2723
     11 N10        11.0350    4.7510  -20.5940 N.pl3     1 R33        -0.2849
     12 N11        10.7920    7.0590  -20.9460 N.pl3     1 R33        -0.2849
     13 N12         5.8050    8.6800  -17.1030 N.am      1 R33        -0.2624
     14 N15         2.7830    6.4440  -17.6590 N.4       1 R33         0.2357
     15 O01         7.3980   10.5390  -14.5590 O.2       1 R33        -0.3894
     16 O16         4.8360    6.8970  -16.0340 O.2       1 R33        -0.3910
     17 H1          5.5230   12.0002  -15.2169 H         1 R33         0.0459
     18 H2          4.5636   10.5554  -15.6846 H         1 R33         0.0459
     19 H3          5.6194   11.3623  -16.8933 H         1 R33         0.0459
     20 H4          6.8683    8.0281  -15.4104 H         1 R33         0.0791
     21 H5          8.9748    9.2946  -16.1949 H         1 R33         0.0314
     22 H6          8.1076    9.5642  -17.7447 H         1 R33         0.0314
     23 H7          7.8012    7.0204  -17.8420 H         1 R33         0.0301
     24 H8          8.9948    6.9319  -16.5025 H         1 R33         0.0301
     25 H9         10.6627    8.1080  -17.8999 H         1 R33         0.0689
     26 H10         9.4688    8.2252  -19.2369 H         1 R33         0.0689
     27 H11         4.1558    7.2912  -18.9865 H         1 R33         0.1061
     28 H12         3.1453    8.4600  -18.0702 H         1 R33         0.1061
     29 H13        10.0657    5.4959  -18.1801 H         1 R33         0.2642
     30 H14        11.3957    4.5968  -21.5464 H         1 R33         0.2615
     31 H15        10.9323    3.9560  -19.9472 H         1 R33         0.2615
     32 H16        10.5328    8.0066  -20.6366 H         1 R33         0.2615
     33 H17        11.1507    6.9088  -21.8998 H         1 R33         0.2615
     34 H18         5.7578    9.2939  -17.8910 H         1 R33         0.1885
     35 H19         2.0642    6.3737  -18.3621 H         1 R33         0.2012
     36 H20         2.3608    6.6436  -16.7657 H         1 R33         0.2012
     37 H21         3.2868    5.5726  -17.6054 H         1 R33         0.2012
@<TRIPOS>BOND
     1    1    2 1  
     2    3    1 1  
     3    1   15 2  
     4    3    4 1  
     5   13    3 1  
     6    4    5 1  
     7    5    6 1  
     8    6   10 1  
     9   10    7 ar 
    10    7   11 ar 
    11    7   12 ar 
    12    8    9 1  
    13    8   13 am 
    14    8   16 2  
    15    9   14 1  
    16    2   17 1  
    17    2   18 1  
    18    2   19 1  
    19    3   20 1  
    20    4   21 1  
    21    4   22 1  
    22    5   23 1  
    23    5   24 1  
    24    6   25 1  
    25    6   26 1  
    26    9   27 1  
    27    9   28 1  
    28   10   29 1  
    29   11   30 1  
    30   11   31 1  
    31   12   32 1  
    32   12   33 1  
    33   13   34 1  
    34   14   35 1  
    35   14   36 1  
    36   14   37 1  
@<TRIPOS>SUBSTRUCTURE
     1 R33         1

