### 
### Created by X-TOOL on Wed Jan  1 15:39:38 2020
### 

@<TRIPOS>MOLECULE
5wdw_ligand
   62    66     1     0     0
SMALL
GAST_HUCK


@<TRIPOS>ATOM
      1 C1         29.8350  447.4100  697.6570 C.2       1 8KU         0.2603
      2 C10        31.5640  448.7610  689.2710 C.ar      1 8KU        -0.0797
      3 C11        30.7120  449.4780  690.1000 C.ar      1 8KU        -0.0687
      4 C12        31.2790  450.2220  691.1250 C.ar      1 8KU        -0.0108
      5 C13        30.6620  451.0960  692.1840 C.3       1 8KU         0.0114
      6 C14        31.9330  447.1010  696.5350 C.2       1 8KU         0.1641
      7 C15        33.1440  446.2460  696.2240 C.3       1 8KU         0.1312
      8 C16        33.7610  446.3910  693.7830 C.2       1 8KU         0.1937
      9 C17        32.4120  446.6670  693.1510 C.3       1 8KU         0.0970
     10 C18        30.4530  444.6340  693.6870 C.ar      1 8KU         0.0319
     11 C19        30.5480  443.3080  694.1150 C.ar      1 8KU        -0.0490
     12 C2         29.8050  448.6920  697.1160 C.2       1 8KU         0.1828
     13 C20        29.6870  442.8290  695.0850 C.ar      1 8KU        -0.0676
     14 C21        28.7280  443.6530  695.6310 C.ar      1 8KU        -0.0681
     15 C22        28.6170  444.9620  695.2180 C.ar      1 8KU        -0.0538
     16 C23        29.4720  445.4480  694.2480 C.ar      1 8KU         0.0518
     17 C24        35.0940  447.4720  695.5750 C.3       1 8KU         0.0377
     18 C25        35.5070  446.6000  696.7260 C.3       1 8KU        -0.0274
     19 C26        34.1680  446.2740  697.3800 C.3       1 8KU        -0.0084
     20 C3         30.8330  449.1190  696.3250 C.2       1 8KU         0.1060
     21 C4         30.8100  450.5020  695.7330 C.2       1 8KU         0.2003
     22 C5         31.9220  452.0640  694.2190 C.3       1 8KU         0.0619
     23 C6         31.8920  451.8380  692.7200 C.3       1 8KU         0.1073
     24 C7         32.6530  450.2420  691.2890 C.ar      1 8KU         0.0935
     25 C8         33.5150  449.5250  690.4830 C.ar      1 8KU        -0.0396
     26 C9         32.9390  448.7880  689.4640 C.ar      1 8KU        -0.0776
     27 N1         31.8490  450.8160  694.9630 N.am      1 8KU        -0.2854
     28 N2         31.8900  448.3420  696.0430 N.2       1 8KU        -0.3043
     29 N3         33.9570  446.6970  695.0790 N.am      1 8KU        -0.2484
     30 N4         30.9310  446.6330  697.3470 N.am      1 8KU        -0.1947
     31 O1         28.9400  446.9510  698.3820 O.2       1 8KU        -0.3954
     32 O2         28.7370  449.4400  697.4200 O.3       1 8KU        -0.3268
     33 O3         33.0490  451.0090  692.3440 O.3       1 8KU        -0.3147
     34 O4         29.8700  451.2690  695.9350 O.2       1 8KU        -0.3921
     35 O5         34.6640  445.8910  693.1170 O.2       1 8KU        -0.3956
     36 S1         31.5600  445.2270  692.4420 S.3       1 8KU        -0.0791
     37 CL1        29.2960  447.0980  693.7530 Cl        1 8KU        -0.0763
     38 H1         31.1499  448.1714  688.4611 H         1 8KU         0.0505
     39 H2         29.6384  449.4573  689.9514 H         1 8KU         0.0526
     40 H3         30.1802  450.4961  692.9701 H         1 8KU         0.0433
     41 H4         29.9282  451.7929  691.7529 H         1 8KU         0.0433
     42 H5         32.7939  445.2185  696.0462 H         1 8KU         0.0845
     43 H6         32.5607  447.4012  692.3455 H         1 8KU         0.0642
     44 H7         31.7591  447.0982  693.9242 H         1 8KU         0.0642
     45 H8         31.2980  442.6533  693.6860 H         1 8KU         0.0565
     46 H9         29.7671  441.8003  695.4172 H         1 8KU         0.0601
     47 H10        28.0566  443.2689  696.3904 H         1 8KU         0.0559
     48 H11        27.8623  445.6079  695.6520 H         1 8KU         0.0605
     49 H12        35.8901  447.5604  694.8211 H         1 8KU         0.0525
     50 H13        34.7918  448.4757  695.9086 H         1 8KU         0.0525
     51 H14        36.1681  447.1409  697.4190 H         1 8KU         0.0288
     52 H15        36.0116  445.6880  696.3744 H         1 8KU         0.0288
     53 H16        34.2117  445.2949  697.8794 H         1 8KU         0.0321
     54 H17        33.8993  447.0482  698.1137 H         1 8KU         0.0321
     55 H18        31.0656  452.6946  694.4997 H         1 8KU         0.0550
     56 H19        32.8580  452.5788  694.4813 H         1 8KU         0.0550
     57 H20        31.9539  452.8189  692.2261 H         1 8KU         0.0687
     58 H21        34.5874  449.5390  690.6407 H         1 8KU         0.0521
     59 H22        33.5771  448.2170  688.7992 H         1 8KU         0.0531
     60 H23        32.6086  450.1694  694.8931 H         1 8KU         0.1839
     61 H24        30.9970  445.7084  697.7221 H         1 8KU         0.2537
     62 H25        29.0204  450.2252  697.8735 H         1 8KU         0.2490
@<TRIPOS>BOND
     1   12    1 1  
     2    1   30 am 
     3    1   31 2  
     4    3    2 ar 
     5    2   26 ar 
     6    4    3 ar 
     7    5    4 1  
     8    4   24 ar 
     9   23    5 1  
    10    6    7 1  
    11   28    6 2  
    12    6   30 1  
    13    7   19 1  
    14    7   29 1  
    15    8    9 1  
    16   29    8 am 
    17    8   35 2  
    18    9   36 1  
    19   10   11 ar 
    20   10   16 ar 
    21   36   10 1  
    22   11   13 ar 
    23   20   12 2  
    24   12   32 1  
    25   13   14 ar 
    26   15   14 ar 
    27   16   15 ar 
    28   16   37 1  
    29   17   18 1  
    30   29   17 1  
    31   19   18 1  
    32   21   20 1  
    33   20   28 1  
    34   27   21 am 
    35   21   34 2  
    36   22   23 1  
    37   22   27 1  
    38   23   33 1  
    39   24   25 ar 
    40   24   33 1  
    41   25   26 ar 
    42    2   38 1  
    43    3   39 1  
    44    5   40 1  
    45    5   41 1  
    46    7   42 1  
    47    9   43 1  
    48    9   44 1  
    49   11   45 1  
    50   13   46 1  
    51   14   47 1  
    52   15   48 1  
    53   17   49 1  
    54   17   50 1  
    55   18   51 1  
    56   18   52 1  
    57   19   53 1  
    58   19   54 1  
    59   22   55 1  
    60   22   56 1  
    61   23   57 1  
    62   25   58 1  
    63   26   59 1  
    64   27   60 1  
    65   30   61 1  
    66   32   62 1  
@<TRIPOS>SUBSTRUCTURE
     1 8KU         1

