### 
### Created by X-TOOL on Mon Sep 10 21:13:32 2018
### 

@<TRIPOS>MOLECULE
5we9_ligand
   56    59     1     0     0
SMALL
GAST_HUCK


@<TRIPOS>ATOM
      1 C1        -10.3010   82.0280   13.8620 C.ar      1 GY7         0.1519
      2 C10        -7.8010   84.4230   18.8540 C.ar      1 GY7        -0.0411
      3 C11        -6.7090   83.6070   19.1160 C.ar      1 GY7        -0.0603
      4 C12        -5.4890   83.8320   18.4990 C.ar      1 GY7        -0.0686
      5 C13        -5.3460   84.8730   17.6110 C.ar      1 GY7        -0.0687
      6 C14        -6.4170   85.6910   17.3400 C.ar      1 GY7        -0.0686
      7 C15        -7.6390   85.4680   17.9570 C.ar      1 GY7        -0.0603
      8 C16       -10.0940   78.8300   16.9820 C.2       1 GY7         0.1828
      9 C17        -9.5230   77.9460   16.0660 C.2       1 GY7         0.2603
     10 C18        -5.4650   80.0950   15.3440 C.3       1 GY7        -0.0085
     11 C19        -5.4200   81.3900   16.1380 C.3       1 GY7        -0.0275
     12 C2         -9.1170   81.5610   13.3110 C.ar      1 GY7         0.1169
     13 C20        -5.8930   82.3960   15.1130 C.3       1 GY7         0.0370
     14 C21        -9.2110   80.4340   12.5090 C.ar      1 GY7         0.1519
     15 C22       -10.3990   79.7810   12.2820 C.ar      1 GY7        -0.0263
     16 C23       -11.5400   80.2760   12.8700 C.ar      1 GY7        -0.0612
     17 C24       -11.5090   81.4020   13.6660 C.ar      1 GY7        -0.0263
     18 C3         -7.8020   82.2440   13.5490 C.2       1 GY7         0.2089
     19 C4         -6.8380   80.1970   14.6640 C.3       1 GY7         0.1305
     20 C5         -7.9970   79.6840   15.4900 C.2       1 GY7         0.1641
     21 C6         -9.5860   80.0910   17.1160 C.2       1 GY7         0.1060
     22 C7        -10.1380   81.1000   18.0880 C.2       1 GY7         0.2004
     23 C8        -10.1390   83.4920   18.6410 C.3       1 GY7         0.0395
     24 C9         -9.1300   84.1780   19.5330 C.3       1 GY7         0.0010
     25 F1        -10.2830   83.1320   14.6420 F         1 GY7        -0.1784
     26 F2         -8.0910   79.9340   11.9400 F         1 GY7        -0.1784
     27 N1         -6.9190   81.6460   14.3660 N.am      1 GY7        -0.2499
     28 N2         -8.5540   80.5180   16.3680 N.2       1 GY7        -0.3043
     29 N3         -9.5870   82.3130   17.9810 N.am      1 GY7        -0.2864
     30 N4         -8.4650   78.4210   15.3220 N.am      1 GY7        -0.1947
     31 O1         -7.5810   83.3520   13.0710 O.2       1 GY7        -0.3889
     32 O2        -11.0180   80.8020   18.9020 O.2       1 GY7        -0.3921
     33 O3        -11.1330   78.3390   17.6750 O.3       1 GY7        -0.3268
     34 O4         -9.9180   76.7790   15.8980 O.2       1 GY7        -0.3954
     35 H1         -6.8121   82.7828   19.8125 H         1 GY7         0.0557
     36 H2         -4.6456   83.1866   18.7164 H         1 GY7         0.0599
     37 H3         -4.3920   85.0476   17.1267 H         1 GY7         0.0559
     38 H4         -6.3062   86.5129   16.6419 H         1 GY7         0.0599
     39 H5         -8.4774   86.1184   17.7354 H         1 GY7         0.0557
     40 H6         -5.4085   79.2171   16.0044 H         1 GY7         0.0321
     41 H7         -4.6528   80.0498   14.6035 H         1 GY7         0.0321
     42 H8         -4.3989   81.6156   16.4794 H         1 GY7         0.0288
     43 H9         -6.0965   81.3525   17.0046 H         1 GY7         0.0288
     44 H10        -5.0695   82.7054   14.4526 H         1 GY7         0.0524
     45 H11        -6.3262   83.2826   15.5990 H         1 GY7         0.0524
     46 H12       -10.4360   78.8975   11.6550 H         1 GY7         0.0581
     47 H13       -12.4842   79.7700   12.7041 H         1 GY7         0.0632
     48 H14       -12.4139   81.7834   14.1252 H         1 GY7         0.0581
     49 H15        -6.8271   79.6234   13.7254 H         1 GY7         0.0845
     50 H16       -10.4722   84.2040   17.8716 H         1 GY7         0.0541
     51 H17       -10.9996   83.1839   19.2528 H         1 GY7         0.0541
     52 H18        -9.5447   85.1467   19.8488 H         1 GY7         0.0446
     53 H19        -8.9592   83.5464   20.4173 H         1 GY7         0.0446
     54 H20        -8.7620   82.4171   17.4255 H         1 GY7         0.1840
     55 H21        -8.0338   77.8240   14.6455 H         1 GY7         0.2537
     56 H22       -10.9313   78.3596   18.6031 H         1 GY7         0.2490
@<TRIPOS>BOND
     1   12    1 ar 
     2    1   17 ar 
     3    1   25 1  
     4    2    3 ar 
     5    2    7 ar 
     6   24    2 1  
     7    3    4 ar 
     8    4    5 ar 
     9    6    5 ar 
    10    7    6 ar 
    11    8    9 1  
    12   21    8 2  
    13    8   33 1  
    14    9   30 am 
    15    9   34 2  
    16   10   11 1  
    17   19   10 1  
    18   13   11 1  
    19   12   14 ar 
    20   18   12 1  
    21   27   13 1  
    22   14   15 ar 
    23   14   26 1  
    24   15   16 ar 
    25   17   16 ar 
    26   27   18 am 
    27   18   31 2  
    28   20   19 1  
    29   19   27 1  
    30   28   20 2  
    31   20   30 1  
    32   22   21 1  
    33   21   28 1  
    34   29   22 am 
    35   22   32 2  
    36   23   24 1  
    37   23   29 1  
    38    3   35 1  
    39    4   36 1  
    40    5   37 1  
    41    6   38 1  
    42    7   39 1  
    43   10   40 1  
    44   10   41 1  
    45   11   42 1  
    46   11   43 1  
    47   13   44 1  
    48   13   45 1  
    49   15   46 1  
    50   16   47 1  
    51   17   48 1  
    52   19   49 1  
    53   23   50 1  
    54   23   51 1  
    55   24   52 1  
    56   24   53 1  
    57   29   54 1  
    58   30   55 1  
    59   33   56 1  
@<TRIPOS>SUBSTRUCTURE
     1 GY7         1

