### 
### Created by X-TOOL on Wed Jan  1 15:39:38 2020
### 

@<TRIPOS>MOLECULE
5web_ligand
   63    66     1     0     0
SMALL
GAST_HUCK


@<TRIPOS>ATOM
      1 C1        194.8500 -311.5580  692.4210 C.2       1 KU5         0.1641
      2 C10       194.7060 -315.8740  695.0870 C.ar      1 KU5        -0.0600
      3 C11       193.7020 -314.9370  695.1860 C.ar      1 KU5        -0.0616
      4 C12       192.6950 -314.9050  694.2490 C.ar      1 KU5        -0.0600
      5 C13       192.6850 -315.8060  693.1990 C.ar      1 KU5        -0.0369
      6 C14       193.6210 -310.7570  692.0420 C.3       1 KU5         0.1312
      7 C15       192.6910 -310.4470  693.2240 C.3       1 KU5        -0.0084
      8 C16       191.9580 -311.7700  693.3860 C.3       1 KU5        -0.0274
      9 C17       191.6060 -312.1220  691.9550 C.3       1 KU5         0.0377
     10 C18       192.8390 -311.5710  689.8420 C.2       1 KU5         0.1937
     11 C19       191.9990 -312.5590  689.0580 C.3       1 KU5         0.0970
     12 C2        196.1110 -313.4760  692.1450 C.2       1 KU5         0.1060
     13 C20       193.9090 -312.9880  686.9480 C.ar      1 KU5         0.0319
     14 C21       194.5820 -313.8110  687.8520 C.ar      1 KU5        -0.0490
     15 C22       195.8780 -314.2180  687.5820 C.ar      1 KU5        -0.0676
     16 C23       196.5110 -313.8140  686.4280 C.ar      1 KU5        -0.0681
     17 C24       195.8610 -313.0040  685.5250 C.ar      1 KU5        -0.0538
     18 C25       194.5670 -312.5960  685.7850 C.ar      1 KU5         0.0518
     19 C3        197.0370 -313.0490  693.0480 C.2       1 KU5         0.1828
     20 C4        196.8780 -311.8180  693.6780 C.2       1 KU5         0.2603
     21 C5        196.2790 -314.8070  691.4580 C.2       1 KU5         0.2003
     22 C6        195.2370 -316.4730  690.0120 C.3       1 KU5         0.0497
     23 C7        195.2380 -317.6770  690.9320 C.3       1 KU5         0.0908
     24 C8        193.6980 -316.7440  693.0990 C.ar      1 KU5         0.0882
     25 C9        194.7100 -316.7830  694.0430 C.ar      1 KU5        -0.0369
     26 N1        195.7560 -311.0910  693.3380 N.am      1 KU5        -0.1947
     27 N2        195.0280 -312.7460  691.8350 N.2       1 KU5        -0.3043
     28 N3        195.2450 -315.2030  690.7190 N.am      1 KU5        -0.2868
     29 N4        192.6900 -311.5060  691.1770 N.am      1 KU5        -0.2484
     30 O1        197.6780 -311.3610  694.5080 O.2       1 KU5        -0.3954
     31 O2        198.1240 -313.7530  693.3890 O.3       1 KU5        -0.3268
     32 O3        197.3200 -315.4550  691.5710 O.2       1 KU5        -0.3921
     33 O4        193.6410 -310.8450  689.2650 O.2       1 KU5        -0.3956
     34 O5        193.6890 -319.2220  692.3490 O.2       1 KU5        -0.1693
     35 O6        192.6320 -317.5570  690.8690 O.2       1 KU5        -0.1693
     36 S1        193.6910 -317.9090  691.7710 S.o2      1 KU5        -0.0012
     37 S2        192.2520 -312.4580  687.2600 S.3       1 KU5        -0.0791
     38 CL1       193.7770 -311.5750  684.6310 Cl        1 KU5        -0.0763
     39 H1        195.4958 -315.9000  695.8290 H         1 KU5         0.0618
     40 H2        193.7049 -314.2241  696.0026 H         1 KU5         0.0618
     41 H3        191.9039 -314.1688  694.3340 H         1 KU5         0.0618
     42 H4        191.8911 -315.7776  692.4614 H         1 KU5         0.0636
     43 H5        193.9524 -309.8291  691.5529 H         1 KU5         0.0845
     44 H6        191.9958 -309.6288  692.9848 H         1 KU5         0.0321
     45 H7        193.2621 -310.1904  694.1284 H         1 KU5         0.0321
     46 H8        191.0537 -311.6516  694.0010 H         1 KU5         0.0288
     47 H9        192.6096 -312.5339  693.8353 H         1 KU5         0.0288
     48 H10       190.6302 -311.6990  691.6741 H         1 KU5         0.0525
     49 H11       191.5883 -313.2123  691.8107 H         1 KU5         0.0525
     50 H12       190.9383 -312.3615  689.2721 H         1 KU5         0.0642
     51 H13       192.2569 -313.5757  689.3895 H         1 KU5         0.0642
     52 H14       194.0912 -314.1312  688.7640 H         1 KU5         0.0565
     53 H15       196.3978 -314.8594  688.2845 H         1 KU5         0.0601
     54 H16       197.5270 -314.1357  686.2296 H         1 KU5         0.0559
     55 H17       196.3608 -312.6884  684.6163 H         1 KU5         0.0605
     56 H18       194.3353 -316.5158  689.3835 H         1 KU5         0.0535
     57 H19       196.1316 -316.5218  689.3738 H         1 KU5         0.0535
     58 H20       196.0285 -317.5423  691.6850 H         1 KU5         0.0524
     59 H21       195.4506 -318.5753  690.3338 H         1 KU5         0.0524
     60 H22       195.5005 -317.5207  693.9651 H         1 KU5         0.0636
     61 H23       195.5999 -310.2029  693.7703 H         1 KU5         0.2537
     62 H24       194.4459 -314.6060  690.6478 H         1 KU5         0.1838
     63 H25       198.1355 -314.5701  692.9046 H         1 KU5         0.2490
@<TRIPOS>BOND
     1    1    6 1  
     2    1   26 1  
     3   27    1 2  
     4    2    3 ar 
     5   25    2 ar 
     6    4    3 ar 
     7    5    4 ar 
     8   24    5 ar 
     9    6    7 1  
    10    6   29 1  
    11    7    8 1  
    12    9    8 1  
    13   29    9 1  
    14   10   11 1  
    15   29   10 am 
    16   10   33 2  
    17   11   37 1  
    18   12   19 2  
    19   21   12 1  
    20   12   27 1  
    21   13   14 ar 
    22   13   18 ar 
    23   37   13 1  
    24   14   15 ar 
    25   15   16 ar 
    26   17   16 ar 
    27   18   17 ar 
    28   18   38 1  
    29   19   20 1  
    30   19   31 1  
    31   20   26 am 
    32   20   30 2  
    33   28   21 am 
    34   21   32 2  
    35   23   22 1  
    36   22   28 1  
    37   36   23 1  
    38   24   25 ar 
    39   24   36 1  
    40   36   34 2  
    41   36   35 2  
    42    2   39 1  
    43    3   40 1  
    44    4   41 1  
    45    5   42 1  
    46    6   43 1  
    47    7   44 1  
    48    7   45 1  
    49    8   46 1  
    50    8   47 1  
    51    9   48 1  
    52    9   49 1  
    53   11   50 1  
    54   11   51 1  
    55   14   52 1  
    56   15   53 1  
    57   16   54 1  
    58   17   55 1  
    59   22   56 1  
    60   22   57 1  
    61   23   58 1  
    62   23   59 1  
    63   25   60 1  
    64   26   61 1  
    65   28   62 1  
    66   31   63 1  
@<TRIPOS>SUBSTRUCTURE
     1 KU5         1

