### 
### Created by X-TOOL on Mon Sep 10 21:13:32 2018
### 

@<TRIPOS>MOLECULE
5wef_ligand
   56    59     1     0     0
SMALL
GAST_HUCK


@<TRIPOS>ATOM
      1 C01        -8.4800   79.7100   14.9230 C.2       1 GY6         0.1641
      2 C03        -9.8420   79.9840   16.8090 C.2       1 GY6         0.1060
      3 C04       -10.2500   78.6780   16.7520 C.2       1 GY6         0.1828
      4 C07        -9.6980   77.8350   15.7630 C.2       1 GY6         0.2603
      5 C11       -10.2980   80.9250   17.9000 C.2       1 GY6         0.2004
      6 C14        -9.9170   83.0670   18.9970 C.3       1 GY6         0.0395
      7 C17        -9.2110   84.3900   18.8140 C.3       1 GY6         0.0010
      8 C21        -5.7470   81.2500   15.2480 C.3       1 GY6        -0.0275
      9 C24        -6.0300   80.0460   14.3630 C.3       1 GY6        -0.0084
     10 C27        -7.4850   80.2850   13.9270 C.3       1 GY6         0.1307
     11 C30        -6.3570   82.3950   14.4480 C.3       1 GY6         0.0372
     12 C33        -8.5570   82.4100   13.2130 C.2       1 GY6         0.2108
     13 C35        -8.3020   86.6670   12.5990 C.ar      1 GY6        -0.0567
     14 C37        -9.1520   86.1850   13.5660 C.ar      1 GY6        -0.0422
     15 C39        -9.2500   84.8210   13.7820 C.ar      1 GY6         0.0609
     16 C41        -8.4880   83.9060   13.0420 C.ar      1 GY6         0.0776
     17 C42        -7.6390   84.4400   12.0710 C.ar      1 GY6         0.0609
     18 C44        -7.5460   85.8030   11.8460 C.ar      1 GY6        -0.0422
     19 C46        -5.1260   83.8220   17.6310 C.ar      1 GY6        -0.0687
     20 C48        -5.8760   84.8280   17.0620 C.ar      1 GY6        -0.0686
     21 C50        -7.1940   85.0280   17.4480 C.ar      1 GY6        -0.0603
     22 C52        -7.7700   84.2100   18.4100 C.ar      1 GY6        -0.0411
     23 C53        -7.0020   83.1960   18.9670 C.ar      1 GY6        -0.0603
     24 C55        -5.6830   83.0080   18.5870 C.ar      1 GY6        -0.0686
     25 N02        -8.9610   80.4880   15.9150 N.2       1 GY6        -0.3043
     26 N09        -8.8170   78.3980   14.8660 N.am      1 GY6        -0.1947
     27 N13        -9.7550   82.1510   17.8660 N.am      1 GY6        -0.2864
     28 N29        -7.5290   81.7720   13.8050 N.am      1 GY6        -0.2486
     29 O05       -11.0970   78.0910   17.6220 O.3       1 GY6        -0.3268
     30 O08       -10.0100   76.6510   15.6150 O.2       1 GY6        -0.3954
     31 O12       -11.0070   80.5280   18.8290 O.2       1 GY6        -0.3921
     32 O34        -9.5670   81.7990   12.8470 O.2       1 GY6        -0.3844
     33 CL2       -10.3490   84.2960   15.0250 Cl        1 GY6        -0.0647
     34 CL         -6.6590   83.3910   11.0910 Cl        1 GY6        -0.0647
     35 H1        -10.9907   83.2626   19.1342 H         1 GY6         0.0541
     36 H2         -9.5148   82.5806   19.8979 H         1 GY6         0.0541
     37 H3         -9.2471   84.9460   19.7625 H         1 GY6         0.0446
     38 H4         -9.7298   84.9643   18.0323 H         1 GY6         0.0446
     39 H5         -4.6657   81.3949   15.3890 H         1 GY6         0.0288
     40 H6         -6.2340   81.1462   16.2288 H         1 GY6         0.0288
     41 H7         -5.9338   79.1068   14.9275 H         1 GY6         0.0321
     42 H8         -5.3542   80.0232   13.4954 H         1 GY6         0.0321
     43 H9         -7.6751   79.8209   12.9480 H         1 GY6         0.0845
     44 H10        -5.6484   82.7716   13.6956 H         1 GY6         0.0524
     45 H11        -6.6621   83.2193   15.1094 H         1 GY6         0.0524
     46 H12        -8.2282   87.7352   12.4301 H         1 GY6         0.0652
     47 H13        -9.7449   86.8722   14.1587 H         1 GY6         0.0636
     48 H14        -6.8807   86.1854   11.0804 H         1 GY6         0.0636
     49 H15        -4.0970   83.6730   17.3244 H         1 GY6         0.0559
     50 H16        -5.4334   85.4680   16.3073 H         1 GY6         0.0599
     51 H17        -7.7747   85.8247   16.9973 H         1 GY6         0.0557
     52 H18        -7.4414   82.5412   19.7108 H         1 GY6         0.0557
     53 H19        -5.0926   82.2212   19.0426 H         1 GY6         0.0599
     54 H20        -8.4150   77.8232   14.1532 H         1 GY6         0.2537
     55 H21        -9.2357   82.4417   17.0624 H         1 GY6         0.1840
     56 H22       -11.4109   78.7384   18.2423 H         1 GY6         0.2490
@<TRIPOS>BOND
     1    1   10 1  
     2   25    1 2  
     3    1   26 1  
     4    2    3 2  
     5    5    2 1  
     6    2   25 1  
     7    3    4 1  
     8    3   29 1  
     9    4   26 am 
    10    4   30 2  
    11   27    5 am 
    12    5   31 2  
    13    7    6 1  
    14    6   27 1  
    15   22    7 1  
    16    9    8 1  
    17   11    8 1  
    18   10    9 1  
    19   10   28 1  
    20   28   11 1  
    21   12   16 1  
    22   28   12 am 
    23   12   32 2  
    24   14   13 ar 
    25   18   13 ar 
    26   15   14 ar 
    27   16   15 ar 
    28   15   33 1  
    29   16   17 ar 
    30   17   18 ar 
    31   17   34 1  
    32   20   19 ar 
    33   19   24 ar 
    34   21   20 ar 
    35   21   22 ar 
    36   22   23 ar 
    37   23   24 ar 
    38    6   35 1  
    39    6   36 1  
    40    7   37 1  
    41    7   38 1  
    42    8   39 1  
    43    8   40 1  
    44    9   41 1  
    45    9   42 1  
    46   10   43 1  
    47   11   44 1  
    48   11   45 1  
    49   13   46 1  
    50   14   47 1  
    51   18   48 1  
    52   19   49 1  
    53   20   50 1  
    54   21   51 1  
    55   23   52 1  
    56   24   53 1  
    57   26   54 1  
    58   27   55 1  
    59   29   56 1  
@<TRIPOS>SUBSTRUCTURE
     1 GY6         1

