### 
### Created by X-TOOL on Mon Sep 10 21:13:33 2018
### 

@<TRIPOS>MOLECULE
5wei_ligand
   39    40     1     0     0
SMALL
GAST_HUCK


@<TRIPOS>ATOM
      1 C01       127.9390  192.4670  283.8620 C.2       1 GY6         0.1641
      2 C03       130.0080  193.4920  283.9030 C.2       1 GY6         0.1060
      3 C04       129.6360  194.3020  284.9340 C.2       1 GY6         0.1828
      4 C07       128.3490  194.1980  285.4700 C.2       1 GY6         0.2603
      5 C11       131.3810  193.5500  283.2850 C.2       1 GY6         0.2002
      6 C14       132.9270  192.4270  281.7630 C.3       1 GY6         0.0271
      7 C17       132.9430  191.2540  280.8140 C.3       1 GY6        -0.0450
      8 C21       128.4570  190.1840  281.7360 C.3       1 GY6        -0.0274
      9 C24       127.6640  190.0340  283.0260 C.3       1 GY6        -0.0084
     10 C27       127.0460  191.4310  283.2140 C.3       1 GY6         0.1311
     11 C30       127.4930  190.9510  280.8600 C.3       1 GY6         0.0377
     12 C33       125.8100  192.6770  281.4500 C.2       1 GY6         0.1783
     13 C41       125.7700  193.9860  282.1810 C.3       1 GY6         0.0260
     14 N02       129.1720  192.5910  283.3780 N.2       1 GY6        -0.3043
     15 N09       127.5160  193.2580  284.8980 N.am      1 GY6        -0.1947
     16 N13       131.6060  192.6310  282.3480 N.am      1 GY6        -0.2886
     17 N29       126.7330  191.7770  281.8160 N.am      1 GY6        -0.2495
     18 O05       130.4420  195.2170  285.4920 O.3       1 GY6        -0.3268
     19 O08       127.9320  194.8910  286.4130 O.2       1 GY6        -0.3954
     20 O12       132.2150  194.3750  283.6530 O.2       1 GY6        -0.3921
     21 O34       125.0460  192.4610  280.5110 O.2       1 GY6        -0.3970
     22 H1        133.2170  193.3344  281.2129 H         1 GY6         0.0516
     23 H2        133.6497  192.2414  282.5712 H         1 GY6         0.0516
     24 H3        133.9534  191.1344  280.3959 H         1 GY6         0.0249
     25 H4        132.2273  191.4327  279.9980 H         1 GY6         0.0249
     26 H5        132.6601  190.3397  281.3562 H         1 GY6         0.0249
     27 H6        128.6995  189.2037  281.2999 H         1 GY6         0.0288
     28 H7        129.3847  190.7515  281.9011 H         1 GY6         0.0288
     29 H8        128.3231  189.7763  283.8681 H         1 GY6         0.0321
     30 H9        126.8829  189.2663  282.9234 H         1 GY6         0.0321
     31 H10       126.1268  191.3570  283.8136 H         1 GY6         0.0845
     32 H11       126.8258  190.2654  280.3171 H         1 GY6         0.0525
     33 H12       128.0344  191.5824  280.1401 H         1 GY6         0.0525
     34 H13       124.9651  194.6119  281.7683 H         1 GY6         0.0467
     35 H14       126.7339  194.5024  282.0614 H         1 GY6         0.0467
     36 H15       125.5817  193.8038  283.2493 H         1 GY6         0.0467
     37 H16       126.5848  193.1519  285.2466 H         1 GY6         0.2537
     38 H17       130.8452  192.0624  282.0352 H         1 GY6         0.1838
     39 H18       131.2853  195.2033  285.0547 H         1 GY6         0.2490
@<TRIPOS>BOND
     1   10    1 1  
     2    1   14 2  
     3    1   15 1  
     4    2    3 2  
     5    2    5 1  
     6   14    2 1  
     7    4    3 1  
     8    3   18 1  
     9   15    4 am 
    10    4   19 2  
    11    5   16 am 
    12    5   20 2  
    13    6    7 1  
    14   16    6 1  
    15    8    9 1  
    16   11    8 1  
    17   10    9 1  
    18   17   10 1  
    19   17   11 1  
    20   12   13 1  
    21   12   17 am 
    22   12   21 2  
    23    6   22 1  
    24    6   23 1  
    25    7   24 1  
    26    7   25 1  
    27    7   26 1  
    28    8   27 1  
    29    8   28 1  
    30    9   29 1  
    31    9   30 1  
    32   10   31 1  
    33   11   32 1  
    34   11   33 1  
    35   13   34 1  
    36   13   35 1  
    37   13   36 1  
    38   15   37 1  
    39   16   38 1  
    40   18   39 1  
@<TRIPOS>SUBSTRUCTURE
     1 GY6         1

