### 
### Created by X-TOOL on Mon Sep 10 21:13:32 2018
### 

@<TRIPOS>MOLECULE
5wej_ligand
   49    50     1     0     0
SMALL
GAST_HUCK


@<TRIPOS>ATOM
      1 C06        10.9230    8.6600   -8.1510 C.2       1 V45         0.0770
      2 C08         9.7260    9.6770   -9.8880 C.2       1 V45         0.3614
      3 C10         9.0430   11.8580   -8.6910 C.3       1 V45         0.1546
      4 C11         9.0930   12.5560   -7.3440 C.3       1 V45        -0.0043
      5 C12         8.2060   11.9610   -6.2540 C.3       1 V45        -0.0420
      6 C13         6.7360   11.9040   -6.6490 C.3       1 V45        -0.0624
      7 C14         8.3950   12.7800   -4.9680 C.3       1 V45        -0.0624
      8 C15         9.8120   12.7540   -9.6580 C.2       1 V45         0.2083
      9 C17         9.7240   14.4120  -11.5220 C.3       1 V45         0.0674
     10 C18         9.3500   13.9300  -12.9280 C.3       1 V45        -0.0079
     11 C19         9.7200   12.4770  -13.2640 C.3       1 V45         0.0526
     12 C20        11.3440   12.1820  -13.0680 C.3       1 V45        -0.0129
     13 C21        11.5870   11.1360  -13.8150 C.3       1 V45         0.0332
     14 C23         9.4730   12.1940  -14.5410 C.2       1 V45         0.1792
     15 C25         9.3060   15.8820  -11.3690 C.3       1 V45         0.0673
     16 C28        10.2670    9.8730   -7.6030 C.2       1 V45         0.0472
     17 N09         9.6420   10.5320   -8.6860 N.am      1 V45        -0.1914
     18 N16         9.0360   13.5610  -10.5660 N.am      1 V45        -0.2792
     19 N22        10.6390   11.2700  -15.0360 N.am      1 V45        -0.2866
     20 O07        10.5770    8.5620   -9.5260 O.3       1 V45        -0.2320
     21 O24         8.5610   12.5110  -15.2080 O.2       1 V45        -0.3968
     22 O26         9.8890   16.3700  -10.1950 O.3       1 V45        -0.3927
     23 O27        11.0070   12.8170   -9.6400 O.2       1 V45        -0.3939
     24 O29         9.2230    9.8830  -10.9760 O.2       1 V45        -0.3835
     25 H1         11.5567    7.9681   -7.5981 H         1 V45         0.0678
     26 H2          7.9949   11.7672   -9.0122 H         1 V45         0.0873
     27 H3          8.7872   13.6019   -7.4943 H         1 V45         0.0321
     28 H4         10.1329   12.5258   -6.9866 H         1 V45         0.0321
     29 H5          8.5412   10.9305   -6.0649 H         1 V45         0.0298
     30 H6          6.1517   11.4675   -5.8255 H         1 V45         0.0232
     31 H7          6.6220   11.2822   -7.5492 H         1 V45         0.0232
     32 H8          6.3726   12.9211   -6.8575 H         1 V45         0.0232
     33 H9          9.4625   12.8065   -4.7038 H         1 V45         0.0232
     34 H10         7.8262   12.3143   -4.1497 H         1 V45         0.0232
     35 H11         8.0317   13.8056   -5.1297 H         1 V45         0.0232
     36 H12        10.8105   14.3273  -11.3726 H         1 V45         0.0580
     37 H13         9.8578   14.5826  -13.6534 H         1 V45         0.0315
     38 H14         8.2608   14.0342  -13.0406 H         1 V45         0.0315
     39 H15         9.1383   11.8087  -12.6121 H         1 V45         0.0539
     40 H16        11.5742   11.9671  -12.0141 H         1 V45         0.0312
     41 H17        11.9378   13.0446  -13.4046 H         1 V45         0.0312
     42 H18        11.3725   10.2100  -13.2615 H         1 V45         0.0521
     43 H19        12.6372   11.1327  -14.1422 H         1 V45         0.0521
     44 H20         8.2105   15.9549  -11.3015 H         1 V45         0.0580
     45 H21         9.6598   16.4639  -12.2328 H         1 V45         0.0580
     46 H22        10.2671   10.1948   -6.5626 H         1 V45         0.0738
     47 H23         8.0367   13.5355  -10.5383 H         1 V45         0.1856
     48 H24        10.7478   10.8575  -15.9404 H         1 V45         0.1851
     49 H25         9.5821   15.8600   -9.4546 H         1 V45         0.2095
@<TRIPOS>BOND
     1    1   16 2  
     2   20    1 1  
     3   17    2 am 
     4    2   20 1  
     5    2   24 2  
     6    3    4 1  
     7    8    3 1  
     8    3   17 1  
     9    4    5 1  
    10    5    6 1  
    11    5    7 1  
    12   18    8 am 
    13    8   23 2  
    14    9   10 1  
    15    9   15 1  
    16    9   18 1  
    17   10   11 1  
    18   11   12 1  
    19   11   14 1  
    20   12   13 1  
    21   13   19 1  
    22   14   19 am 
    23   14   21 2  
    24   15   22 1  
    25   16   17 1  
    26    1   25 1  
    27    3   26 1  
    28    4   27 1  
    29    4   28 1  
    30    5   29 1  
    31    6   30 1  
    32    6   31 1  
    33    6   32 1  
    34    7   33 1  
    35    7   34 1  
    36    7   35 1  
    37    9   36 1  
    38   10   37 1  
    39   10   38 1  
    40   11   39 1  
    41   12   40 1  
    42   12   41 1  
    43   13   42 1  
    44   13   43 1  
    45   15   44 1  
    46   15   45 1  
    47   16   46 1  
    48   18   47 1  
    49   19   48 1  
    50   22   49 1  
@<TRIPOS>SUBSTRUCTURE
     1 V45         1

