### 
### Created by X-TOOL on Mon Aug  2 16:12:16 2021
### 

@<TRIPOS>MOLECULE
5wep_ligand
   37    41     1     0     0
SMALL
GAST_HUCK


@<TRIPOS>ATOM
      1 C10        25.4300  -39.8650   21.4260 C.2       1 A81         0.0959
      2 C20        24.2710  -35.5840   17.7940 C.2       1 A81         0.1222
      3 C21        25.4740  -34.8850   17.7070 C.2       1 A81         0.0651
      4 O01        25.2740  -36.4560   21.8200 O.2       1 A81        -0.5008
      5 N02        24.3680  -36.2140   20.7780 N.2       1 A81        -0.2287
      6 O03        23.6780  -35.2620   20.7970 O.2       1 A81        -0.5008
      7 C04        24.2910  -37.1520   19.6790 C.2       1 A81         0.1501
      8 C05        24.2500  -36.8590   18.3270 C.2       1 A81         0.1572
      9 N06        24.1850  -38.0010   17.6670 N.2       1 A81        -0.1038
     10 N07        24.1840  -39.0300   18.5670 N.pl3     1 A81        -0.1472
     11 C08        24.2510  -38.5260   19.7870 C.2       1 A81         0.1917
     12 C09        24.2680  -39.2360   20.9710 C.2       1 A81         0.1747
     13 N11        25.4040  -40.5400   22.5690 N.2       1 A81        -0.1855
     14 C12        24.2570  -40.6120   23.2900 C.2       1 A81         0.2873
     15 N13        23.1500  -40.0350   22.9020 N.pl3     1 A81        -0.0320
     16 C14        23.1150  -39.3340   21.7440 C.2       1 A81         0.2082
     17 N15        22.1430  -40.2880   23.8520 N.am      1 A81        -0.1186
     18 C16        22.6480  -41.0260   24.8250 C.2       1 A81         0.2661
     19 O17        22.0560  -41.4110   25.7790 O.2       1 A81        -0.3700
     20 C18        23.9850  -41.2650   24.5270 C.2       1 A81         0.1917
     21 BR2        25.2630  -42.2870   25.5710 Br        1 A81         0.0063
     22 N22        25.4620  -33.6650   17.2010 N.2       1 A81        -0.2178
     23 C23        24.3100  -33.0990   16.7790 C.2       1 A81         0.2348
     24 N24        23.1640  -33.7050   16.8440 N.pl3     1 A81        -0.0643
     25 C25        23.1070  -34.9620   17.3530 C.2       1 A81         0.1711
     26 N26        22.1730  -32.8510   16.3310 N.am      1 A81        -0.1371
     27 C27        22.7440  -31.7130   15.9540 C.2       1 A81         0.2241
     28 O28        22.1890  -30.7810   15.4810 O.2       1 A81        -0.3964
     29 C29        24.1060  -31.8140   16.2160 C.2       1 A81         0.1378
     30 BR         25.5020  -30.5030   15.9060 Br        1 A81        -0.0457
     31 H1         26.3503  -39.8020   20.8472 H         1 A81         0.1257
     32 H2         26.4045  -35.3356   18.0492 H         1 A81         0.1182
     33 H3         24.1386  -40.0321   18.3331 H         1 A81         0.2841
     34 H4         22.1937  -38.8517   21.4208 H         1 A81         0.2006
     35 H5         21.1990  -39.9623   23.7993 H         1 A81         0.2319
     36 H6         22.1525  -35.4825   17.4161 H         1 A81         0.1759
     37 H7         21.1986  -33.0649   16.2613 H         1 A81         0.2279
@<TRIPOS>BOND
     1   12    1 1  
     2    1   13 2  
     3    2    3 1  
     4    8    2 1  
     5    2   25 2  
     6    3   22 2  
     7    5    4 2  
     8    5    6 2  
     9    7    5 1  
    10    7    8 1  
    11   11    7 2  
    12    9    8 2  
    13   10    9 1  
    14   11   10 1  
    15   11   12 1  
    16   12   16 2  
    17   13   14 1  
    18   14   15 1  
    19   14   20 2  
    20   15   16 1  
    21   15   17 1  
    22   17   18 am 
    23   18   19 2  
    24   18   20 1  
    25   20   21 1  
    26   22   23 1  
    27   23   24 1  
    28   23   29 2  
    29   24   25 1  
    30   24   26 1  
    31   26   27 am 
    32   27   28 2  
    33   27   29 1  
    34   29   30 1  
    35    1   31 1  
    36    3   32 1  
    37   10   33 1  
    38   16   34 1  
    39   17   35 1  
    40   25   36 1  
    41   26   37 1  
@<TRIPOS>SUBSTRUCTURE
     1 A81         1

