### 
### Created by X-TOOL on Mon Sep 10 21:13:31 2018
### 

@<TRIPOS>MOLECULE
5wev_ligand
   35    38     1     0     0
SMALL
GAST_HUCK


@<TRIPOS>ATOM
      1 C4         14.5160  -23.0080  -20.2760 C.ar      1 9ZS         0.0597
      2 C5         14.1420  -22.1830  -21.3570 C.ar      1 9ZS         0.0576
      3 C6         14.6620  -20.8960  -21.4930 C.ar      1 9ZS        -0.0436
      4 C11        13.7750  -26.5910  -19.9600 C.ar      1 9ZS         0.0873
      5 C8         13.9370  -24.3810  -20.1340 C.2       1 9ZS         0.1413
      6 C12        13.9460  -27.9760  -19.8730 C.ar      1 9ZS        -0.0316
      7 C13        12.8360  -28.7510  -19.6590 C.ar      1 9ZS        -0.0251
      8 C3         15.4390  -22.4880  -19.3180 C.ar      1 9ZS         0.0576
      9 C1         15.5620  -20.4080  -20.5560 C.ar      1 9ZS        -0.0578
     10 C2         15.9450  -21.2000  -19.4800 C.ar      1 9ZS        -0.0436
     11 CL7        13.0320  -22.7550  -22.5560 Cl        1 9ZS        -0.0656
     12 N9         14.6580  -25.5460  -20.1420 N.pl3     1 9ZS        -0.2477
     13 N14        11.6280  -28.2020  -19.5540 N.ar      1 9ZS        -0.3051
     14 C15        11.3710  -26.9040  -19.6350 C.ar      1 9ZS         0.1436
     15 C16        12.4720  -26.0180  -19.8400 C.ar      1 9ZS         0.0855
     16 N17        12.6530  -24.6720  -19.9590 N.2       1 9ZS        -0.3001
     17 N18        10.0040  -26.5900  -19.4870 N.am      1 9ZS        -0.2181
     18 C19         9.2570  -25.6260  -20.0970 C.2       1 9ZS         0.2123
     19 O20         9.7620  -24.8210  -20.8510 O.2       1 9ZS        -0.3816
     20 C21         7.7670  -25.5660  -19.7930 C.3       1 9ZS         0.0560
     21 C22         6.7860  -25.1380  -20.8940 C.3       1 9ZS        -0.0303
     22 C23         7.0600  -24.2080  -19.7100 C.3       1 9ZS        -0.0303
     23 CL24       16.0050  -23.3790  -17.9230 Cl        1 9ZS        -0.0656
     24 H1         14.3631  -20.2766  -22.3309 H         1 9ZS         0.0633
     25 H2         14.9282  -28.4239  -19.9720 H         1 9ZS         0.0498
     26 H3         12.9434  -29.8263  -19.5741 H         1 9ZS         0.0673
     27 H4         15.9667  -19.4081  -20.6635 H         1 9ZS         0.0642
     28 H5         16.6493  -20.8090  -18.7546 H         1 9ZS         0.0633
     29 H6         15.6777  -25.6275  -20.2624 H         1 9ZS         0.2321
     30 H7          9.5064  -27.1619  -18.8348 H         1 9ZS         0.2331
     31 H8          7.4986  -26.3724  -19.0946 H         1 9ZS         0.0545
     32 H9          5.8106  -25.6380  -20.9863 H         1 9ZS         0.0294
     33 H10         7.1615  -24.8792  -21.8950 H         1 9ZS         0.0294
     34 H11         7.6319  -23.2805  -19.8606 H         1 9ZS         0.0294
     35 H12         6.2810  -24.0394  -18.9519 H         1 9ZS         0.0294
@<TRIPOS>BOND
     1    1    2 ar 
     2    5    1 1  
     3    1    8 ar 
     4    2    3 ar 
     5    2   11 1  
     6    3    9 ar 
     7    4    6 ar 
     8   12    4 1  
     9    4   15 ar 
    10    5   12 1  
    11    5   16 2  
    12    6    7 ar 
    13    7   13 ar 
    14    8   10 ar 
    15    8   23 1  
    16    9   10 ar 
    17   13   14 ar 
    18   14   15 ar 
    19   14   17 1  
    20   15   16 1  
    21   17   18 am 
    22   18   19 2  
    23   18   20 1  
    24   20   21 1  
    25   20   22 1  
    26   21   22 1  
    27    3   24 1  
    28    6   25 1  
    29    7   26 1  
    30    9   27 1  
    31   10   28 1  
    32   12   29 1  
    33   17   30 1  
    34   20   31 1  
    35   21   32 1  
    36   21   33 1  
    37   22   34 1  
    38   22   35 1  
@<TRIPOS>SUBSTRUCTURE
     1 9ZS         1

