### 
### Created by X-TOOL on Mon Aug  2 16:12:16 2021
### 

@<TRIPOS>MOLECULE
5wew_ligand
   37    41     1     0     0
SMALL
GAST_HUCK


@<TRIPOS>ATOM
      1 C10       -37.0350  -13.0640  -17.0550 C.2       1 A81         0.0651
      2 C20       -40.6110  -15.9690  -13.8210 C.2       1 A81         0.1747
      3 C21       -39.8740  -17.0890  -13.4250 C.2       1 A81         0.0959
      4 O01       -37.6170  -15.0630  -13.2210 O.2       1 A81        -0.5008
      5 N02       -38.1940  -14.0190  -13.9580 N.2       1 A81        -0.2287
      6 O03       -37.8690  -12.9120  -13.7350 O.2       1 A81        -0.5008
      7 C04       -39.1800  -14.3020  -14.9900 C.2       1 A81         0.1501
      8 C05       -40.2480  -15.1880  -14.9050 C.2       1 A81         0.1917
      9 N06       -40.9020  -15.1530  -16.0500 N.pl3     1 A81        -0.1472
     10 N07       -40.2850  -14.2740  -16.8850 N.2       1 A81        -0.1038
     11 C08       -39.2400  -13.7530  -16.2670 C.2       1 A81         0.1572
     12 C09       -38.3910  -12.8090  -16.8270 C.2       1 A81         0.1222
     13 N11       -36.2740  -12.1170  -17.6000 N.2       1 A81        -0.2178
     14 C12       -36.7960  -10.9120  -17.9420 C.2       1 A81         0.2348
     15 N13       -38.0590  -10.6360  -17.7490 N.pl3     1 A81        -0.0643
     16 C14       -38.8870  -11.5590  -17.1960 C.2       1 A81         0.1711
     17 N15       -38.3090   -9.3260  -18.1960 N.am      1 A81        -0.1371
     18 C16       -37.1890   -8.8060  -18.6620 C.2       1 A81         0.2241
     19 O17       -37.0500   -7.7190  -19.1140 O.2       1 A81        -0.3964
     20 C18       -36.1930   -9.7570  -18.5310 C.2       1 A81         0.1378
     21 BR2       -34.3440   -9.5220  -19.0600 Br        1 A81        -0.0457
     22 N22       -40.2890  -17.7890  -12.3770 N.2       1 A81        -0.1855
     23 C23       -41.4120  -17.4380  -11.7000 C.2       1 A81         0.2873
     24 N24       -42.1300  -16.4070  -12.0400 N.pl3     1 A81        -0.0320
     25 C25       -41.7540  -15.6510  -13.1010 C.2       1 A81         0.2082
     26 N26       -43.2210  -16.2940  -11.1640 N.am      1 A81        -0.1186
     27 C27       -43.1550  -17.2780  -10.2800 C.2       1 A81         0.2661
     28 O28       -43.9230  -17.4750   -9.4040 O.2       1 A81        -0.3700
     29 C29       -42.0310  -18.0410  -10.5650 C.2       1 A81         0.1917
     30 BR        -41.4320  -19.6140   -9.5990 Br        1 A81         0.0063
     31 H1        -36.6052  -14.0286  -16.7891 H         1 A81         0.1182
     32 H2        -38.9757  -17.3816  -13.9667 H         1 A81         0.1257
     33 H3        -41.7436  -15.7023  -16.2754 H         1 A81         0.2841
     34 H4        -39.9387  -11.3231  -17.0406 H         1 A81         0.1759
     35 H5        -39.1945   -8.8624  -18.1656 H         1 A81         0.2279
     36 H6        -42.3529  -14.7886  -13.3900 H         1 A81         0.2006
     37 H7        -43.9292  -15.5889  -11.2012 H         1 A81         0.2319
@<TRIPOS>BOND
     1   12    1 1  
     2    1   13 2  
     3    2    3 1  
     4    8    2 1  
     5    2   25 2  
     6    3   22 2  
     7    5    4 2  
     8    5    6 2  
     9    7    5 1  
    10    7    8 2  
    11   11    7 1  
    12    9    8 1  
    13   10    9 1  
    14   11   10 2  
    15   11   12 1  
    16   12   16 2  
    17   13   14 1  
    18   14   15 1  
    19   14   20 2  
    20   15   16 1  
    21   15   17 1  
    22   17   18 am 
    23   18   19 2  
    24   18   20 1  
    25   20   21 1  
    26   22   23 1  
    27   23   24 1  
    28   23   29 2  
    29   24   25 1  
    30   24   26 1  
    31   26   27 am 
    32   27   28 2  
    33   27   29 1  
    34   29   30 1  
    35    1   31 1  
    36    3   32 1  
    37    9   33 1  
    38   16   34 1  
    39   17   35 1  
    40   25   36 1  
    41   26   37 1  
@<TRIPOS>SUBSTRUCTURE
     1 A81         1

