### 
### Created by X-TOOL on Mon Sep 10 21:13:30 2018
### 

@<TRIPOS>MOLECULE
5wex_ligand
   33    34     1     0     0
SMALL
GAST_HUCK


@<TRIPOS>ATOM
      1 C16         1.6950    9.4390   82.6240 C.ar      1 8JS        -0.0379
      2 C21         0.9620    8.5830   84.6970 C.ar      1 8JS        -0.0379
      3 C5         -2.3480    5.0820   84.9110 C.ar      1 8JS        -0.0571
      4 C13        -0.1750    4.0400   84.9620 C.ar      1 8JS        -0.0571
      5 C17         2.6530   10.1640   83.2590 C.ar      1 8JS        -0.0369
      6 C20         1.9280    9.3340   85.3440 C.ar      1 8JS        -0.0369
      7 C6         -2.8580    4.0220   85.6400 C.ar      1 8JS        -0.0437
      8 C12        -0.6940    2.9800   85.6760 C.ar      1 8JS        -0.0437
      9 C15         0.8290    8.6310   83.3180 C.ar      1 8JS         0.0689
     10 C4         -1.0070    5.0770   84.5790 C.ar      1 8JS        -0.0060
     11 C18         2.7900   10.1260   84.6340 C.ar      1 8JS         0.1207
     12 C7         -2.0230    2.9550   86.0230 C.ar      1 8JS         0.0992
     13 C2         -0.9720    6.8990   82.9800 C.2       1 8JS         0.1905
     14 N10        -2.1590    0.2650   86.3070 N.am      1 8JS        -0.2618
     15 N14        -0.1370    7.9260   82.5610 N.pl3     1 8JS        -0.2310
     16 N3         -0.3700    6.1000   83.8780 N.2       1 8JS        -0.3019
     17 O9         -2.1250    1.7760   88.2660 O.2       1 8JS        -0.1516
     18 O11        -4.1370    1.7300   86.8560 O.2       1 8JS        -0.1516
     19 F19         3.7700   10.8730   85.2600 F         1 8JS        -0.1925
     20 S1         -2.6460    6.8290   82.2870 S.3       1 8JS        -0.0407
     21 S8         -2.6930    1.6170   86.9690 S.o2      1 8JS         0.0621
     22 H1          1.6128    9.5001   81.5448 H         1 8JS         0.0534
     23 H2          0.3007    7.9489   85.2763 H         1 8JS         0.0534
     24 H3         -2.9890    5.9012   84.6061 H         1 8JS         0.0546
     25 H4          0.8774    4.0604   84.7028 H         1 8JS         0.0546
     26 H5          3.3233   10.7847   82.6755 H         1 8JS         0.0577
     27 H6          2.0029    9.2947   86.4247 H         1 8JS         0.0577
     28 H7         -3.9058    4.0131   85.9176 H         1 8JS         0.0614
     29 H8         -0.0475    2.1595   85.9658 H         1 8JS         0.0614
     30 H9         -2.4228   -0.6189   86.6931 H         1 8JS         0.1634
     31 H10        -1.5609    0.3025   85.5065 H         1 8JS         0.1634
     32 H11        -0.2325    8.2106   81.5757 H         1 8JS         0.2269
     33 H12        -2.7703    7.5873   81.6345 H         1 8JS         0.1388
@<TRIPOS>BOND
     1    1    5 ar 
     2    9    1 ar 
     3    2    6 ar 
     4    9    2 ar 
     5    3    7 ar 
     6   10    3 ar 
     7    4    8 ar 
     8   10    4 ar 
     9    5   11 ar 
    10    6   11 ar 
    11    7   12 ar 
    12    8   12 ar 
    13   15    9 1  
    14   16   10 1  
    15   11   19 1  
    16   12   21 1  
    17   13   15 1  
    18   13   16 2  
    19   13   20 1  
    20   21   14 am 
    21   21   17 2  
    22   21   18 2  
    23    1   22 1  
    24    2   23 1  
    25    3   24 1  
    26    4   25 1  
    27    5   26 1  
    28    6   27 1  
    29    7   28 1  
    30    8   29 1  
    31   14   30 1  
    32   14   31 1  
    33   15   32 1  
    34   20   33 1  
@<TRIPOS>SUBSTRUCTURE
     1 8JS         1

