### 
### Created by X-TOOL on Wed Jan  1 15:39:37 2020
### 

@<TRIPOS>MOLECULE
5wf3_ligand
   61    64     1     0     0
SMALL
GAST_HUCK


@<TRIPOS>ATOM
      1 C10       128.6620  193.0890  282.3440 C.2       1 KU2         0.1937
      2 C13       133.8550  195.2730  280.6280 C.3       1 KU2         0.0903
      3 C14       130.3610  198.3280  282.0040 C.ar      1 KU2        -0.0681
      4 C17       128.4420  196.3770  281.4950 C.ar      1 KU2         0.0319
      5 C18       129.6800  196.3240  280.8850 C.ar      1 KU2        -0.0490
      6 C19       130.6340  197.2940  281.1390 C.ar      1 KU2        -0.0676
      7 C20       130.5890  194.1130  276.9510 C.ar      1 KU2        -0.0729
      8 C21       130.6880  193.0260  277.7880 C.ar      1 KU2        -0.0706
      9 C22       131.4150  193.1110  278.9640 C.ar      1 KU2        -0.0331
     10 C24       131.9420  195.3890  278.4610 C.ar      1 KU2        -0.0331
     11 C25       131.2130  195.2910  277.2870 C.ar      1 KU2        -0.0706
     12 C1        129.8040  194.7280  285.0500 C.2       1 KU2         0.1641
     13 C11       127.3910  193.9080  282.4820 C.3       1 KU2         0.0970
     14 C12       134.3460  195.1320  282.0450 C.3       1 KU2         0.0577
     15 C15       129.1340  198.4050  282.6240 C.ar      1 KU2        -0.0538
     16 C16       128.1770  197.4400  282.3710 C.ar      1 KU2         0.0518
     17 C2        131.7100  196.0140  284.6040 C.2       1 KU2         0.1060
     18 C23       132.0410  194.2950  279.2950 C.ar      1 KU2         0.0912
     19 C3        131.3020  196.9920  285.4620 C.2       1 KU2         0.1828
     20 C4        130.0600  196.8200  286.1590 C.2       1 KU2         0.2603
     21 C5        132.9820  196.1090  283.8350 C.2       1 KU2         0.2003
     22 C6        130.7970  191.8880  285.0680 C.3       1 KU2        -0.0274
     23 C7        129.4570  192.2770  285.6790 C.3       1 KU2        -0.0084
     24 C8        129.0420  193.4490  284.7790 C.3       1 KU2         0.1312
     25 C9        130.4960  191.9050  283.5780 C.3       1 KU2         0.0377
     26 N1        130.9660  194.9160  284.4110 N.2       1 KU2        -0.3043
     27 N2        129.3360  195.6660  285.9250 N.am      1 KU2        -0.1947
     28 N3        133.2310  195.1170  282.9800 N.am      1 KU2        -0.2858
     29 N4        129.3640  192.8510  283.4690 N.am      1 KU2        -0.2484
     30 O1        132.0480  198.0920  285.6460 O.3       1 KU2        -0.3268
     31 O2        129.6450  197.6710  286.9550 O.2       1 KU2        -0.3954
     32 O3        133.7680  197.0490  283.9530 O.2       1 KU2        -0.3921
     33 O4        129.0150  192.6100  281.2590 O.2       1 KU2        -0.3956
     34 O5        132.7560  194.3730  280.4630 O.3       1 KU2        -0.3160
     35 S1        127.2160  195.1570  281.1710 S.3       1 KU2        -0.0791
     36 CL1       126.6420  197.5620  283.1660 Cl        1 KU2        -0.0763
     37 H1        134.6601  195.0158  279.9240 H         1 KU2         0.0634
     38 H2        133.5249  196.3064  280.4458 H         1 KU2         0.0634
     39 H3        131.1134  199.0839  282.1980 H         1 KU2         0.0559
     40 H4        129.9067  195.5146  280.2005 H         1 KU2         0.0565
     41 H5        131.6017  197.2385  280.6536 H         1 KU2         0.0601
     42 H6        130.0213  194.0411  276.0303 H         1 KU2         0.0523
     43 H7        130.1942  192.0973  277.5258 H         1 KU2         0.0589
     44 H8        131.4916  192.2519  279.6206 H         1 KU2         0.0542
     45 H9        132.4317  196.3200  278.7226 H         1 KU2         0.0542
     46 H10       131.1341  196.1488  276.6290 H         1 KU2         0.0589
     47 H11       127.4057  194.4194  283.4557 H         1 KU2         0.0642
     48 H12       126.5275  193.2280  282.4379 H         1 KU2         0.0642
     49 H13       135.0054  195.9793  282.2840 H         1 KU2         0.0545
     50 H14       134.9085  194.1915  282.1397 H         1 KU2         0.0545
     51 H15       128.9194  199.2186  283.3074 H         1 KU2         0.0605
     52 H16       131.1092  190.8866  285.3991 H         1 KU2         0.0288
     53 H17       131.5780  192.6190  285.3242 H         1 KU2         0.0288
     54 H18       129.5693  192.5942  286.7262 H         1 KU2         0.0321
     55 H19       128.7337  191.4503  285.6219 H         1 KU2         0.0321
     56 H20       127.9661  193.6590  284.8702 H         1 KU2         0.0845
     57 H21       130.2086  190.9044  283.2228 H         1 KU2         0.0525
     58 H22       131.3643  192.2622  283.0048 H         1 KU2         0.0525
     59 H23       128.4673  195.5177  286.3977 H         1 KU2         0.2537
     60 H24       132.6219  194.3239  282.9812 H         1 KU2         0.1839
     61 H25       132.8295  198.0368  285.1086 H         1 KU2         0.2490
@<TRIPOS>BOND
     1    1   13 1  
     2   29    1 am 
     3    1   33 2  
     4   14    2 1  
     5    2   34 1  
     6    6    3 ar 
     7   15    3 ar 
     8    4    5 ar 
     9    4   16 ar 
    10   35    4 1  
    11    5    6 ar 
    12    8    7 ar 
    13   11    7 ar 
    14    9    8 ar 
    15   18    9 ar 
    16   10   11 ar 
    17   18   10 ar 
    18   24   12 1  
    19   12   26 2  
    20   12   27 1  
    21   13   35 1  
    22   28   14 1  
    23   16   15 ar 
    24   16   36 1  
    25   17   19 2  
    26   17   21 1  
    27   26   17 1  
    28   34   18 1  
    29   20   19 1  
    30   19   30 1  
    31   27   20 am 
    32   20   31 2  
    33   21   28 am 
    34   21   32 2  
    35   23   22 1  
    36   22   25 1  
    37   24   23 1  
    38   24   29 1  
    39   25   29 1  
    40    2   37 1  
    41    2   38 1  
    42    3   39 1  
    43    5   40 1  
    44    6   41 1  
    45    7   42 1  
    46    8   43 1  
    47    9   44 1  
    48   10   45 1  
    49   11   46 1  
    50   13   47 1  
    51   13   48 1  
    52   14   49 1  
    53   14   50 1  
    54   15   51 1  
    55   22   52 1  
    56   22   53 1  
    57   23   54 1  
    58   23   55 1  
    59   24   56 1  
    60   25   57 1  
    61   25   58 1  
    62   27   59 1  
    63   28   60 1  
    64   30   61 1  
@<TRIPOS>SUBSTRUCTURE
     1 KU2         1

