### 
### Created by X-TOOL on Wed Jan  1 15:39:38 2020
### 

@<TRIPOS>MOLECULE
5wf5_ligand
  104   110     1     0     0
SMALL
GAST_HUCK


@<TRIPOS>ATOM
      1 C1        -21.2800   -8.9320    6.9600 C.3       1 UKA         0.1408
      2 N1        -20.3580   -7.5870    8.8630 N.pl3     1 UKA        -0.1899
      3 O1        -19.0260   -8.2270    7.0590 O.3       1 UKA        -0.3181
      4 C2        -21.0140   -7.9530    5.8160 C.3       1 UKA         0.1295
      5 N2        -18.1370   -6.6710    4.2070 N.am      1 UKA        -0.2850
      6 O2        -21.6150   -8.3870    4.6020 O.3       1 UKA        -0.3840
      7 C3        -19.4860   -7.9980    5.7200 C.3       1 UKA         0.1788
      8 N3        -20.3110   -5.5660    9.8510 N.2       1 UKA        -0.2926
      9 O3        -21.2480  -10.2900    6.5330 O.3       1 UKA        -0.3834
     10 C4        -20.1010   -8.6370    7.8830 C.3       1 UKA         0.2038
     11 N4        -21.9920   -7.5290   12.5170 N.ar      1 UKA        -0.2516
     12 O4        -19.4460   -5.6020    5.7010 O.2       1 UKA        -0.3941
     13 C5        -19.0190   -6.6420    5.2060 C.2       1 UKA         0.2080
     14 N5        -21.4880   -8.8490   10.6030 N.ar      1 UKA        -0.2512
     15 O5        -22.6820  -10.9650   11.7760 O.2       1 UKA        -0.3737
     16 C6        -17.5830   -5.4750    3.5750 C.3       1 UKA         0.0281
     17 N6        -21.3640   -5.3040   12.7430 N.pl3     1 UKA        -0.2966
     18 O6        -25.5440  -10.2080   17.0950 O.2       1 UKA        -0.4008
     19 C7        -16.8440   -5.8060    2.3190 C.3       1 UKA        -0.0449
     20 N7        -23.3430   -9.7330   13.5410 N.am      1 UKA        -0.2803
     21 C8        -20.0020   -6.2670    8.7870 C.2       1 UKA         0.1142
     22 N8        -23.4110   -9.9280   16.4150 N.am      1 UKA        -0.2712
     23 C9        -20.9160   -6.4950   10.6870 C.ar      1 UKA         0.1087
     24 N9        -24.2840   -8.5530   18.0010 N.am      1 UKA        -0.2700
     25 C10       -20.9650   -7.7360   10.0870 C.ar      1 UKA         0.1671
     26 N10       -26.5470   -5.9600   20.4730 N.pl3     1 UKA        -0.2940
     27 C11       -21.4490   -6.4140   11.9930 C.ar      1 UKA         0.1366
     28 N11       -25.2850   -4.3870   21.5930 N.ar      1 UKA        -0.2853
     29 C12       -22.0030   -8.6770   11.8240 C.ar      1 UKA         0.1651
     30 C13       -21.6420   -5.2760   14.1700 C.3       1 UKA         0.0513
     31 C14       -22.9500   -4.5520   14.4880 C.3       1 UKA         0.0460
     32 C15       -23.0780   -4.1500   15.9520 C.ar      1 UKA        -0.0269
     33 C16       -24.1400   -5.3890   14.0430 C.ar      1 UKA        -0.0269
     34 C17       -22.1840   -4.6100   16.9090 C.ar      1 UKA        -0.0580
     35 C18       -22.3350   -4.2650   18.2400 C.ar      1 UKA        -0.0682
     36 C19       -23.3790   -3.4570   18.6320 C.ar      1 UKA        -0.0685
     37 C20       -24.2690   -2.9890   17.6930 C.ar      1 UKA        -0.0682
     38 C21       -24.1210   -3.3310   16.3610 C.ar      1 UKA        -0.0580
     39 C22       -24.8550   -5.0610   12.9000 C.ar      1 UKA        -0.0580
     40 C23       -25.9320   -5.8310   12.4970 C.ar      1 UKA        -0.0682
     41 C24       -26.3080   -6.9350   13.2290 C.ar      1 UKA        -0.0685
     42 C25       -25.6080   -7.2700   14.3660 C.ar      1 UKA        -0.0682
     43 C26       -24.5310   -6.5030   14.7730 C.ar      1 UKA        -0.0580
     44 C27       -22.7120   -9.8940   12.3770 C.2       1 UKA         0.2369
     45 C28       -24.0250  -10.8280   14.2140 C.3       1 UKA         0.0507
     46 C29       -23.4070  -11.1110   15.5660 C.3       1 UKA         0.0513
     47 C30       -24.4790   -9.6000   17.1650 C.2       1 UKA         0.2576
     48 C31       -25.3210   -8.0600   18.9040 C.3       1 UKA         0.0460
     49 C32       -24.7140   -7.5890   20.2120 C.3       1 UKA        -0.0098
     50 C33       -25.8000   -7.0380   21.1280 C.3       1 UKA         0.0317
     51 C34       -27.1650   -6.4140   19.2240 C.3       1 UKA         0.0317
     52 C35       -26.1160   -6.9450   18.2560 C.3       1 UKA        -0.0098
     53 C36       -26.9780   -3.6180   20.0720 C.ar      1 UKA        -0.0160
     54 C37       -26.6480   -2.3090   20.3710 C.ar      1 UKA        -0.0542
     55 C38       -25.6480   -2.0410   21.2730 C.ar      1 UKA        -0.0480
     56 C39       -24.9980   -3.1040   21.8560 C.ar      1 UKA        -0.0042
     57 C40       -26.2650   -4.6340   20.7120 C.ar      1 UKA         0.1135
     58 H1        -22.2429   -8.7232    7.4492 H         1 UKA         0.0678
     59 H2        -21.3724   -6.9426    6.0623 H         1 UKA         0.0673
     60 H3        -17.8367   -7.5634    3.8701 H         1 UKA         0.1851
     61 H4        -22.5545   -8.4584    4.7229 H         1 UKA         0.2102
     62 H5        -19.1471   -8.8001    5.0479 H         1 UKA         0.0869
     63 H6        -21.9129  -10.4276    5.8686 H         1 UKA         0.2101
     64 H7        -19.8322   -9.5583    8.4206 H         1 UKA         0.0998
     65 H8        -16.8911   -4.9882    4.2780 H         1 UKA         0.0517
     66 H9        -18.4056   -4.7857    3.3336 H         1 UKA         0.0517
     67 H10       -21.0870   -4.4250   12.2830 H         1 UKA         0.1858
     68 H11       -16.4437   -4.8826    1.8750 H         1 UKA         0.0249
     69 H12       -17.5294   -6.2882    1.6065 H         1 UKA         0.0249
     70 H13       -16.0149   -6.4907    2.5510 H         1 UKA         0.0249
     71 H14       -23.3475   -8.8279   13.9661 H         1 UKA         0.1851
     72 H15       -19.5055   -5.8369    7.9184 H         1 UKA         0.1362
     73 H16       -22.5994   -9.3444   16.4414 H         1 UKA         0.1846
     74 H17       -23.3933   -8.0984   18.0003 H         1 UKA         0.1848
     75 H18       -20.8171   -4.7587   14.6818 H         1 UKA         0.0573
     76 H19       -21.7108   -6.3103   14.5381 H         1 UKA         0.0573
     77 H20       -22.9580   -3.6236   13.8982 H         1 UKA         0.0639
     78 H21       -21.3588   -5.2463   16.6102 H         1 UKA         0.0561
     79 H22       -21.6294   -4.6318   18.9767 H         1 UKA         0.0600
     80 H23       -23.4990   -3.1909   19.6759 H         1 UKA         0.0561
     81 H24       -25.0895   -2.3497   17.9983 H         1 UKA         0.0600
     82 H25       -24.8269   -2.9555   15.6291 H         1 UKA         0.0561
     83 H26       -24.5673   -4.1935   12.3172 H         1 UKA         0.0561
     84 H27       -26.4817   -5.5640   11.6017 H         1 UKA         0.0600
     85 H28       -27.1513   -7.5375   12.9114 H         1 UKA         0.0561
     86 H29       -25.9018   -8.1382   14.9447 H         1 UKA         0.0600
     87 H30       -23.9872   -6.7746   15.6706 H         1 UKA         0.0561
     88 H31       -23.9537  -11.7318   13.5910 H         1 UKA         0.0540
     89 H32       -25.0830  -10.5605   14.3523 H         1 UKA         0.0540
     90 H33       -23.9812  -11.9079   16.0612 H         1 UKA         0.0537
     91 H34       -22.3684  -11.4431   15.4213 H         1 UKA         0.0537
     92 H35       -26.0086   -8.8903   19.1226 H         1 UKA         0.0554
     93 H36       -23.9766   -6.7990   20.0067 H         1 UKA         0.0307
     94 H37       -24.2161   -8.4357   20.7072 H         1 UKA         0.0307
     95 H38       -26.4952   -7.8494   21.3892 H         1 UKA         0.0520
     96 H39       -25.3328   -6.6464   22.0436 H         1 UKA         0.0520
     97 H40       -27.6915   -5.5694   18.7556 H         1 UKA         0.0520
     98 H41       -27.8844   -7.2150   19.4493 H         1 UKA         0.0520
     99 H42       -26.6156   -7.3312   17.3553 H         1 UKA         0.0307
    100 H43       -25.4343   -6.1285   17.9756 H         1 UKA         0.0307
    101 H44       -27.7652   -3.8483   19.3633 H         1 UKA         0.0610
    102 H45       -27.1791   -1.4938   19.8930 H         1 UKA         0.0699
    103 H46       -25.3783   -1.0203   21.5188 H         1 UKA         0.0597
    104 H47       -24.2090   -2.8923   22.5685 H         1 UKA         0.0781
@<TRIPOS>BOND
     1    1    4 1  
     2    1    9 1  
     3   10    1 1  
     4    2   10 1  
     5    2   21 1  
     6   25    2 1  
     7    3    7 1  
     8   10    3 1  
     9    4    6 1  
    10    7    4 1  
    11   13    5 am 
    12    5   16 1  
    13    7   13 1  
    14    8   21 2  
    15   23    8 1  
    16   11   27 ar 
    17   29   11 ar 
    18   13   12 2  
    19   14   25 ar 
    20   29   14 ar 
    21   44   15 2  
    22   16   19 1  
    23   27   17 1  
    24   17   30 1  
    25   47   18 2  
    26   20   44 am 
    27   45   20 1  
    28   22   46 1  
    29   47   22 am 
    30   25   23 ar 
    31   27   23 ar 
    32   24   47 am 
    33   48   24 1  
    34   26   50 1  
    35   26   51 1  
    36   57   26 1  
    37   28   56 ar 
    38   57   28 ar 
    39   44   29 1  
    40   30   31 1  
    41   31   32 1  
    42   31   33 1  
    43   32   34 ar 
    44   32   38 ar 
    45   33   39 ar 
    46   33   43 ar 
    47   34   35 ar 
    48   35   36 ar 
    49   37   36 ar 
    50   38   37 ar 
    51   39   40 ar 
    52   40   41 ar 
    53   42   41 ar 
    54   43   42 ar 
    55   46   45 1  
    56   49   48 1  
    57   52   48 1  
    58   50   49 1  
    59   51   52 1  
    60   53   54 ar 
    61   53   57 ar 
    62   54   55 ar 
    63   55   56 ar 
    64    1   58 1  
    65    4   59 1  
    66    5   60 1  
    67    6   61 1  
    68    7   62 1  
    69    9   63 1  
    70   10   64 1  
    71   16   65 1  
    72   16   66 1  
    73   17   67 1  
    74   19   68 1  
    75   19   69 1  
    76   19   70 1  
    77   20   71 1  
    78   21   72 1  
    79   22   73 1  
    80   24   74 1  
    81   30   75 1  
    82   30   76 1  
    83   31   77 1  
    84   34   78 1  
    85   35   79 1  
    86   36   80 1  
    87   37   81 1  
    88   38   82 1  
    89   39   83 1  
    90   40   84 1  
    91   41   85 1  
    92   42   86 1  
    93   43   87 1  
    94   45   88 1  
    95   45   89 1  
    96   46   90 1  
    97   46   91 1  
    98   48   92 1  
    99   49   93 1  
   100   49   94 1  
   101   50   95 1  
   102   50   96 1  
   103   51   97 1  
   104   51   98 1  
   105   52   99 1  
   106   52  100 1  
   107   53  101 1  
   108   54  102 1  
   109   55  103 1  
   110   56  104 1  
@<TRIPOS>SUBSTRUCTURE
     1 UKA         1

