### 
### Created by X-TOOL on Wed Jan  1 15:39:38 2020
### 

@<TRIPOS>MOLECULE
5wf6_ligand
  104   110     1     0     0
SMALL
GAST_HUCK


@<TRIPOS>ATOM
      1 C1         -6.1840  -11.5920   49.2670 C.3       1 UKA         0.1408
      2 N1         -5.1860  -10.3530   51.2050 N.pl3     1 UKA        -0.1899
      3 O1         -3.8770  -11.1450   49.4450 O.3       1 UKA        -0.3181
      4 C2         -5.8090  -10.5770   48.1870 C.3       1 UKA         0.1295
      5 N2         -2.5960   -9.4340   46.9890 N.am      1 UKA        -0.2850
      6 O2         -6.3980  -10.8930   46.9300 O.3       1 UKA        -0.3840
      7 C3         -4.2840  -10.7350   48.1300 C.3       1 UKA         0.1788
      8 N3         -5.0970   -8.2870   52.0860 N.2       1 UKA        -0.2926
      9 O3         -6.2320  -12.9230   48.7640 O.3       1 UKA        -0.3834
     10 C4         -5.0150  -11.4320   50.2360 C.3       1 UKA         0.2038
     11 N4         -6.5840  -10.1220   54.9490 N.ar      1 UKA        -0.2516
     12 O4         -4.1600   -8.3400   48.1910 O.2       1 UKA        -0.3941
     13 C5         -3.6760   -9.3870   47.7680 C.2       1 UKA         0.2080
     14 N5         -6.1830  -11.5360   53.0770 N.ar      1 UKA        -0.2512
     15 O5         -7.2750  -13.6000   54.4150 O.2       1 UKA        -0.3737
     16 C6         -1.8280   -8.2620   46.5820 C.3       1 UKA         0.0281
     17 N6         -6.0940   -7.8470   54.9660 N.pl3     1 UKA        -0.2966
     18 O6        -10.2700  -12.6630   59.5090 O.2       1 UKA        -0.4008
     19 C7         -2.6450   -7.3130   45.7770 C.3       1 UKA        -0.0449
     20 N7         -7.7740  -12.3170   56.1970 N.am      1 UKA        -0.2803
     21 C8         -4.8390   -9.0370   51.0430 C.2       1 UKA         0.1142
     22 N8         -8.0450  -12.6120   59.1290 N.am      1 UKA        -0.2712
     23 C9         -5.6540   -9.1710   52.9990 C.ar      1 UKA         0.1087
     24 N9         -8.9530  -11.2800   60.7280 N.am      1 UKA        -0.2700
     25 C10        -5.7150  -10.4450   52.4670 C.ar      1 UKA         0.1671
     26 N10       -11.3980   -8.5520   62.8510 N.pl3     1 UKA        -0.2940
     27 C11        -6.1180   -9.0240   54.3220 C.ar      1 UKA         0.1366
     28 N11       -10.5570   -6.7790   64.0670 N.ar      1 UKA        -0.2853
     29 C12        -6.6150  -11.3070   54.3210 C.ar      1 UKA         0.1651
     30 C13        -6.0830   -7.7110   56.4150 C.3       1 UKA         0.0513
     31 C14        -7.1980   -8.3310   57.2600 C.3       1 UKA         0.0460
     32 C15        -8.5190   -8.5690   56.5410 C.ar      1 UKA        -0.0269
     33 C16        -7.4230   -7.5390   58.5420 C.ar      1 UKA        -0.0269
     34 C17        -9.3020   -9.6640   56.8780 C.ar      1 UKA        -0.0580
     35 C18       -10.4980   -9.9030   56.2270 C.ar      1 UKA        -0.0682
     36 C19       -10.9300   -9.0520   55.2350 C.ar      1 UKA        -0.0685
     37 C20       -10.1670   -7.9550   54.8980 C.ar      1 UKA        -0.0682
     38 C21        -8.9700   -7.7130   55.5470 C.ar      1 UKA        -0.0580
     39 C22        -7.3850   -8.1670   59.7790 C.ar      1 UKA        -0.0580
     40 C23        -7.6380   -7.4550   60.9380 C.ar      1 UKA        -0.0682
     41 C24        -7.9290   -6.1110   60.8780 C.ar      1 UKA        -0.0685
     42 C25        -7.9640   -5.4750   59.6580 C.ar      1 UKA        -0.0682
     43 C26        -7.7110   -6.1820   58.4960 C.ar      1 UKA        -0.0580
     44 C27        -7.2460  -12.5140   54.9870 C.2       1 UKA         0.2369
     45 C28        -8.6240  -13.3060   56.8440 C.3       1 UKA         0.0507
     46 C29        -8.0630  -13.7210   58.1870 C.3       1 UKA         0.0513
     47 C30        -9.1590  -12.2130   59.7720 C.2       1 UKA         0.2576
     48 C31       -10.0350  -10.7410   61.5450 C.3       1 UKA         0.0460
     49 C32       -10.8610   -9.7400   60.7620 C.3       1 UKA        -0.0098
     50 C33       -11.9600   -9.1640   61.6430 C.3       1 UKA         0.0317
     51 C34       -10.6210   -9.5180   63.6360 C.3       1 UKA         0.0317
     52 C35        -9.4870  -10.1080   62.8090 C.3       1 UKA        -0.0098
     53 C36       -11.7710   -6.3050   62.0510 C.ar      1 UKA        -0.0160
     54 C37       -11.5910   -4.9510   62.2650 C.ar      1 UKA        -0.0542
     55 C38       -10.9020   -4.5140   63.3700 C.ar      1 UKA        -0.0480
     56 C39       -10.4060   -5.4590   64.2380 C.ar      1 UKA        -0.0042
     57 C40       -11.2350   -7.1910   62.9870 C.ar      1 UKA         0.1135
     58 H1         -7.1451  -11.3405   49.7393 H         1 UKA         0.0678
     59 H2         -6.0979   -9.5571   48.4808 H         1 UKA         0.0673
     60 H3         -2.2926  -10.3292   46.6626 H         1 UKA         0.1851
     61 H4         -7.3439  -10.8982   47.0172 H         1 UKA         0.2102
     62 H5         -3.9940  -11.4906   47.3850 H         1 UKA         0.0869
     63 H6         -6.8807  -12.9756   48.0720 H         1 UKA         0.2101
     64 H7         -4.8700  -12.3757   50.7822 H         1 UKA         0.0998
     65 H8         -0.9693   -8.5918   45.9787 H         1 UKA         0.0517
     66 H9         -1.4662   -7.7440   47.4824 H         1 UKA         0.0517
     67 H10        -6.0827   -6.9866   54.3999 H         1 UKA         0.1858
     68 H11        -2.0281   -6.4477   45.4930 H         1 UKA         0.0249
     69 H12        -3.5037   -6.9711   46.3734 H         1 UKA         0.0249
     70 H13        -3.0068   -7.8189   44.8697 H         1 UKA         0.0249
     71 H14        -7.5790  -11.4608   56.6754 H         1 UKA         0.1851
     72 H15        -4.3894   -8.6497   50.1299 H         1 UKA         0.1362
     73 H16        -7.1839  -12.1343   59.3032 H         1 UKA         0.1846
     74 H17        -8.0229  -10.9462   60.8813 H         1 UKA         0.1848
     75 H18        -6.0864   -6.6324   56.6307 H         1 UKA         0.0573
     76 H19        -5.1386   -8.1523   56.7662 H         1 UKA         0.0573
     77 H20        -6.8321   -9.3245   57.5582 H         1 UKA         0.0639
     78 H21        -8.9725  -10.3389   57.6597 H         1 UKA         0.0561
     79 H22       -11.0980  -10.7640   56.4988 H         1 UKA         0.0600
     80 H23       -11.8653   -9.2437   54.7217 H         1 UKA         0.0561
     81 H24       -10.5063   -7.2793   54.1213 H         1 UKA         0.0600
     82 H25        -8.3784   -6.8459   55.2763 H         1 UKA         0.0561
     83 H26        -7.1551   -9.2247   59.8377 H         1 UKA         0.0561
     84 H27        -7.6069   -7.9579   61.8978 H         1 UKA         0.0600
     85 H28        -8.1297   -5.5561   61.7873 H         1 UKA         0.0561
     86 H29        -8.1906   -4.4162   59.6073 H         1 UKA         0.0600
     87 H30        -7.7380   -5.6712   57.5403 H         1 UKA         0.0561
     88 H31        -8.6977  -14.1928   56.1973 H         1 UKA         0.0540
     89 H32        -9.6255  -12.8757   56.9919 H         1 UKA         0.0540
     90 H33        -8.6857  -14.5287   58.5991 H         1 UKA         0.0537
     91 H34        -7.0349  -14.0860   58.0464 H         1 UKA         0.0537
     92 H35       -10.6920  -11.5742   61.8352 H         1 UKA         0.0554
     93 H36       -11.3156  -10.2424   59.8954 H         1 UKA         0.0307
     94 H37       -10.2099   -8.9249   60.4133 H         1 UKA         0.0307
     95 H38       -12.5121   -8.4000   61.0761 H         1 UKA         0.0520
     96 H39       -12.6472   -9.9717   61.9352 H         1 UKA         0.0520
     97 H40       -11.2853  -10.3301   63.9663 H         1 UKA         0.0520
     98 H41       -10.1981   -9.0097   64.5151 H         1 UKA         0.0520
     99 H42        -8.7808   -9.3091   62.5386 H         1 UKA         0.0307
    100 H43        -8.9651  -10.8735   63.4020 H         1 UKA         0.0307
    101 H44       -12.3113   -6.6671   61.1838 H         1 UKA         0.0610
    102 H45       -11.9942   -4.2333   61.5598 H         1 UKA         0.0699
    103 H46       -10.7535   -3.4559   63.5527 H         1 UKA         0.0597
    104 H47        -9.8617   -5.1158   65.1104 H         1 UKA         0.0781
@<TRIPOS>BOND
     1    1    4 1  
     2    1    9 1  
     3   10    1 1  
     4    2   10 1  
     5    2   21 1  
     6   25    2 1  
     7    3    7 1  
     8   10    3 1  
     9    4    6 1  
    10    7    4 1  
    11   13    5 am 
    12    5   16 1  
    13    7   13 1  
    14    8   21 2  
    15   23    8 1  
    16   11   27 ar 
    17   29   11 ar 
    18   13   12 2  
    19   14   25 ar 
    20   29   14 ar 
    21   44   15 2  
    22   16   19 1  
    23   27   17 1  
    24   17   30 1  
    25   47   18 2  
    26   20   44 am 
    27   45   20 1  
    28   22   46 1  
    29   47   22 am 
    30   25   23 ar 
    31   27   23 ar 
    32   24   47 am 
    33   48   24 1  
    34   26   50 1  
    35   26   51 1  
    36   57   26 1  
    37   28   56 ar 
    38   57   28 ar 
    39   44   29 1  
    40   30   31 1  
    41   31   32 1  
    42   31   33 1  
    43   32   34 ar 
    44   32   38 ar 
    45   33   39 ar 
    46   33   43 ar 
    47   34   35 ar 
    48   35   36 ar 
    49   37   36 ar 
    50   38   37 ar 
    51   39   40 ar 
    52   40   41 ar 
    53   42   41 ar 
    54   43   42 ar 
    55   46   45 1  
    56   49   48 1  
    57   52   48 1  
    58   50   49 1  
    59   51   52 1  
    60   53   54 ar 
    61   53   57 ar 
    62   54   55 ar 
    63   55   56 ar 
    64    1   58 1  
    65    4   59 1  
    66    5   60 1  
    67    6   61 1  
    68    7   62 1  
    69    9   63 1  
    70   10   64 1  
    71   16   65 1  
    72   16   66 1  
    73   17   67 1  
    74   19   68 1  
    75   19   69 1  
    76   19   70 1  
    77   20   71 1  
    78   21   72 1  
    79   22   73 1  
    80   24   74 1  
    81   30   75 1  
    82   30   76 1  
    83   31   77 1  
    84   34   78 1  
    85   35   79 1  
    86   36   80 1  
    87   37   81 1  
    88   38   82 1  
    89   39   83 1  
    90   40   84 1  
    91   41   85 1  
    92   42   86 1  
    93   43   87 1  
    94   45   88 1  
    95   45   89 1  
    96   46   90 1  
    97   46   91 1  
    98   48   92 1  
    99   49   93 1  
   100   49   94 1  
   101   50   95 1  
   102   50   96 1  
   103   51   97 1  
   104   51   98 1  
   105   52   99 1  
   106   52  100 1  
   107   53  101 1  
   108   54  102 1  
   109   55  103 1  
   110   56  104 1  
@<TRIPOS>SUBSTRUCTURE
     1 UKA         1

