### 
### Created by X-TOOL on Wed Jan  1 15:39:36 2020
### 

@<TRIPOS>MOLECULE
5wf7_ligand
   78    82     1     0     0
SMALL
GAST_HUCK


@<TRIPOS>ATOM
      1 C24       -22.2500   -0.0310  -23.6220 C.ar      1 A9G        -0.0518
      2 C25       -22.9340   -0.4700  -22.4300 C.ar      1 A9G        -0.0266
      3 C26       -22.3540   -0.0600  -21.0940 C.ar      1 A9G        -0.0092
      4 C28       -21.6720   -0.4520  -18.7290 C.ar      1 A9G        -0.0159
      5 C27       -22.2370   -0.8680  -19.9460 C.ar      1 A9G        -0.0478
      6 C20       -22.5240    7.4670  -29.0610 C.3       1 A9G         0.0056
      7 C19       -21.9930    6.0600  -28.5950 C.2       1 A9G         0.0687
      8 C22       -20.6830    4.7710  -27.0040 C.2       1 A9G         0.1873
      9 C18       -22.2950    4.8260  -29.2440 C.2       1 A9G        -0.0510
     10 C17       -22.1580    2.2300  -29.5200 C.3       1 A9G        -0.0403
     11 C16       -21.8160    3.5610  -28.8060 C.2       1 A9G        -0.0723
     12 C11       -21.7590    0.2270  -26.1390 C.2       1 A9G         0.1977
     13 C10       -22.6570   -0.3250  -24.9210 C.ar      1 A9G         0.0358
     14 C15       -20.9770    3.4900  -27.6560 C.2       1 A9G         0.0145
     15 C14       -20.4220    2.1920  -27.1160 C.3       1 A9G         0.0484
     16 C01       -26.3850   -3.3860  -20.6950 C.3       1 A9G        -0.0626
     17 C02       -25.8950   -3.7180  -22.1480 C.3       1 A9G        -0.0270
     18 C03       -26.6860   -3.0790  -23.4550 C.3       1 A9G         0.0572
     19 C04       -27.2570   -4.2690  -24.2600 C.3       1 A9G        -0.0360
     20 C06       -25.6420   -2.3970  -25.7690 C.2       1 A9G         0.0224
     21 C07       -24.5800   -1.6800  -26.2810 C.2       1 A9G        -0.0451
     22 C08       -24.2310   -1.4780  -27.7730 C.3       1 A9G        -0.0479
     23 C09       -23.8230   -1.1370  -25.1530 C.ar      1 A9G        -0.0035
     24 C29       -21.1510    0.8910  -18.5980 C.ar      1 A9G         0.1142
     25 C31       -20.0560    0.4000  -16.1990 C.3       1 A9G         0.0699
     26 C32       -20.6580    0.6040  -14.7640 C.3       1 A9G        -0.0129
     27 C34       -20.5600    3.0320  -15.2850 C.3       1 A9G        -0.0129
     28 C35       -20.5640    2.8320  -16.8510 C.3       1 A9G         0.0699
     29 C37       -21.8120    1.2400  -20.8680 C.ar      1 A9G         0.0028
     30 C38       -24.0440   -1.2410  -22.6470 C.ar      1 A9G        -0.0323
     31 C39       -24.5270   -1.5890  -23.9400 C.ar      1 A9G         0.0684
     32 N05       -25.6650   -2.3650  -24.3260 N.pl3     1 A9G        -0.2698
     33 N13       -21.2620    1.5770  -26.1100 N.am      1 A9G        -0.2837
     34 N21       -21.1750    5.9910  -27.4710 N.am      1 A9G        -0.2246
     35 N30       -20.5240    1.3530  -17.2990 N.pl3     1 A9G        -0.2839
     36 N33       -21.3430    1.9270  -14.6320 N.4       1 A9G         0.2298
     37 N36       -21.2560    1.6870  -19.7170 N.ar      1 A9G        -0.2846
     38 O12       -21.4360   -0.4850  -27.0170 O.2       1 A9G        -0.3885
     39 O23       -19.8900    4.7310  -25.9080 O.2       1 A9G        -0.4303
     40 H1        -21.3564    0.5700  -23.4978 H         1 A9G         0.0576
     41 H2        -21.6265   -1.1363  -17.8895 H         1 A9G         0.0610
     42 H3        -22.6099   -1.8841  -20.0061 H         1 A9G         0.0697
     43 H4        -23.1509    7.3441  -29.9565 H         1 A9G         0.0478
     44 H5        -21.6715    8.1208  -29.2972 H         1 A9G         0.0478
     45 H6        -23.1206    7.9191  -28.2550 H         1 A9G         0.0478
     46 H7        -22.9305    4.8546  -30.1279 H         1 A9G         0.0211
     47 H8        -22.8078    2.4338  -30.3838 H         1 A9G         0.0382
     48 H9        -22.6789    1.5612  -28.8191 H         1 A9G         0.0382
     49 H10       -21.2303    1.7497  -29.8643 H         1 A9G         0.0382
     50 H11       -19.4367    2.3936  -26.6705 H         1 A9G         0.0586
     51 H12       -20.3088    1.4872  -27.9529 H         1 A9G         0.0586
     52 H13       -25.7404   -3.8973  -19.9649 H         1 A9G         0.0231
     53 H14       -27.4229   -3.7285  -20.5708 H         1 A9G         0.0231
     54 H15       -26.3352   -2.2995  -20.5305 H         1 A9G         0.0231
     55 H16       -25.9371   -4.8119  -22.2551 H         1 A9G         0.0291
     56 H17       -24.8494   -3.3830  -22.2148 H         1 A9G         0.0291
     57 H18       -27.4845   -2.3911  -23.1401 H         1 A9G         0.0630
     58 H19       -27.7939   -3.8908  -25.1424 H         1 A9G         0.0258
     59 H20       -27.9505   -4.8413  -23.6264 H         1 A9G         0.0258
     60 H21       -26.4329   -4.9216  -24.5841 H         1 A9G         0.0258
     61 H22       -26.3742   -2.9233  -26.3796 H         1 A9G         0.0824
     62 H23       -24.9727   -1.9984  -28.3967 H         1 A9G         0.0314
     63 H24       -23.2303   -1.8880  -27.9743 H         1 A9G         0.0314
     64 H25       -24.2417   -0.4039  -28.0099 H         1 A9G         0.0314
     65 H26       -20.3057   -0.6222  -16.5196 H         1 A9G         0.0573
     66 H27       -18.9639    0.5020  -16.1165 H         1 A9G         0.0573
     67 H28       -19.8446    0.5490  -14.0255 H         1 A9G         0.0834
     68 H29       -21.3871   -0.1957  -14.5667 H         1 A9G         0.0834
     69 H30       -21.0193    4.0007  -15.0387 H         1 A9G         0.0834
     70 H31       -19.5238    3.0132  -14.9164 H         1 A9G         0.0834
     71 H32       -19.6828    3.3426  -17.2666 H         1 A9G         0.0573
     72 H33       -21.4783    3.2907  -17.2554 H         1 A9G         0.0573
     73 H34       -21.8487    1.9371  -21.6973 H         1 A9G         0.0782
     74 H35       -24.5870   -1.6081  -21.7836 H         1 A9G         0.0582
     75 H36       -21.5197    2.1405  -25.3251 H         1 A9G         0.1856
     76 H37       -20.9347    6.8330  -26.9879 H         1 A9G         0.2510
     77 H38       -21.4534    2.1405  -13.6531 H         1 A9G         0.2015
     78 H39       -22.2501    1.8691  -15.0677 H         1 A9G         0.2015
@<TRIPOS>BOND
     1    2    1 ar 
     2    1   13 ar 
     3    3    2 1  
     4    2   30 ar 
     5    5    3 ar 
     6    3   29 ar 
     7    4    5 ar 
     8   24    4 ar 
     9    7    6 1  
    10    9    7 2  
    11   34    7 am 
    12   14    8 1  
    13    8   34 am 
    14    8   39 2  
    15   11    9 1  
    16   11   10 1  
    17   14   11 2  
    18   13   12 1  
    19   12   33 am 
    20   12   38 2  
    21   13   23 ar 
    22   15   14 1  
    23   33   15 1  
    24   17   16 1  
    25   18   17 1  
    26   18   19 1  
    27   32   18 1  
    28   21   20 2  
    29   20   32 1  
    30   21   22 1  
    31   23   21 1  
    32   23   31 ar 
    33   35   24 1  
    34   24   37 ar 
    35   26   25 1  
    36   25   35 1  
    37   36   26 1  
    38   27   28 1  
    39   27   36 1  
    40   28   35 1  
    41   29   37 ar 
    42   30   31 ar 
    43   31   32 1  
    44    1   40 1  
    45    4   41 1  
    46    5   42 1  
    47    6   43 1  
    48    6   44 1  
    49    6   45 1  
    50    9   46 1  
    51   10   47 1  
    52   10   48 1  
    53   10   49 1  
    54   15   50 1  
    55   15   51 1  
    56   16   52 1  
    57   16   53 1  
    58   16   54 1  
    59   17   55 1  
    60   17   56 1  
    61   18   57 1  
    62   19   58 1  
    63   19   59 1  
    64   19   60 1  
    65   20   61 1  
    66   22   62 1  
    67   22   63 1  
    68   22   64 1  
    69   25   65 1  
    70   25   66 1  
    71   26   67 1  
    72   26   68 1  
    73   27   69 1  
    74   27   70 1  
    75   28   71 1  
    76   28   72 1  
    77   29   73 1  
    78   30   74 1  
    79   33   75 1  
    80   34   76 1  
    81   36   77 1  
    82   36   78 1  
@<TRIPOS>SUBSTRUCTURE
     1 A9G         1

