### 
### Created by X-TOOL on Wed Jan  1 15:39:35 2020
### 

@<TRIPOS>MOLECULE
5wfc_ligand
   80    84     1     0     0
SMALL
GAST_HUCK


@<TRIPOS>ATOM
      1 C18        23.4910   -0.4050  -22.4410 C.ar      1 A97        -0.0143
      2 C29        24.1680    2.3670  -16.4530 C.3       1 A97        -0.0115
      3 C19        23.0990   -1.0070  -21.0900 C.ar      1 A97        -0.0136
      4 C25        23.3250   -0.4580  -15.9080 C.3       1 A97         0.0697
      5 C16        22.9910   -0.0730  -24.8870 C.ar      1 A97         0.0481
      6 C28        23.8730    2.8740  -14.1590 C.3       1 A97        -0.0429
      7 C14        22.0560   -0.4390  -26.0050 C.2       1 A97         0.2024
      8 C17        22.7200   -0.6170  -23.6270 C.ar      1 A97        -0.0418
      9 C12        20.4260   -2.2130  -26.9970 C.3       1 A97         0.0485
     10 C21        21.9560   -2.6710  -19.6680 C.ar      1 A97        -0.0053
     11 C20        22.3120   -2.1660  -20.9620 C.ar      1 A97        -0.0420
     12 C26        23.0050    0.7940  -15.0330 C.3       1 A97        -0.0115
     13 C23        23.0900   -0.9230  -18.5630 C.ar      1 A97         0.1121
     14 C01        23.8590   -0.3360  -30.6970 C.3       1 A97        -0.0635
     15 C02        23.5150   -1.7860  -30.2840 C.3       1 A97        -0.0470
     16 C03        22.3160   -1.9980  -29.3420 C.3       1 A97        -0.0286
     17 C04        21.9770   -3.3990  -28.7030 C.2       1 A97        -0.0693
     18 C05        22.5460   -4.6240  -29.2100 C.2       1 A97        -0.0508
     19 C06        22.2230   -5.9070  -28.6420 C.2       1 A97         0.0687
     20 C07        22.8000   -7.2460  -29.1530 C.3       1 A97         0.0056
     21 C09        20.8240   -4.7940  -27.1080 C.2       1 A97         0.1873
     22 C11        21.0600   -3.4800  -27.6090 C.2       1 A97         0.0148
     23 C30        23.7180    1.4340  -17.6220 C.3       1 A97         0.0697
     24 C31        23.4500   -0.4090  -19.8530 C.ar      1 A97        -0.0108
     25 C32        24.6060    0.4440  -22.5820 C.ar      1 A97        -0.0194
     26 C33        24.9530    1.0360  -23.8550 C.ar      1 A97         0.0984
     27 C34        24.1530    0.7820  -25.0010 C.ar      1 A97         0.0286
     28 C35        24.8150    1.5390  -26.0740 C.2       1 A97         0.0262
     29 C38        27.1810    2.5330  -23.5200 C.3       1 A97         0.0724
     30 C39        27.0120    4.0700  -23.5980 C.3       1 A97        -0.0344
     31 C40        28.5760    2.1070  -24.0910 C.3       1 A97        -0.0344
     32 N08        21.3520   -5.9700  -27.5820 N.am      1 A97        -0.2246
     33 N13        21.3390   -1.6370  -26.0270 N.am      1 A97        -0.2829
     34 N22        22.3350   -2.0640  -18.4880 N.ar      1 A97        -0.2876
     35 N24        23.6050   -0.1020  -17.3790 N.pl3     1 A97        -0.2846
     36 N27        24.1330    1.7660  -15.1100 N.4       1 A97         0.2359
     37 N36        25.9200    2.1930  -25.5830 N.2       1 A97        -0.1991
     38 N37        26.0440    1.9090  -24.2470 N.pl3     1 A97        -0.1938
     39 O10        19.9600   -4.8840  -26.0550 O.2       1 A97        -0.4303
     40 O15        21.9050    0.4210  -26.9480 O.2       1 A97        -0.3860
     41 H1         23.5066    3.2459  -16.4477 H         1 A97         0.0834
     42 H2         25.2012    2.6868  -16.6538 H         1 A97         0.0834
     43 H3         22.4649   -1.1426  -15.8698 H         1 A97         0.0572
     44 H4         24.2117   -0.9595  -15.4929 H         1 A97         0.0572
     45 H5         23.8369    2.4765  -13.1340 H         1 A97         0.0778
     46 H6         22.9107    3.3480  -14.4025 H         1 A97         0.0778
     47 H7         24.6785    3.6192  -14.2351 H         1 A97         0.0778
     48 H8         21.8484   -1.2559  -23.5419 H         1 A97         0.0615
     49 H9         19.4818   -2.4789  -26.4993 H         1 A97         0.0586
     50 H10        20.2271   -1.4808  -27.7935 H         1 A97         0.0586
     51 H11        21.3595   -3.5745  -19.6140 H         1 A97         0.0775
     52 H12        21.9709   -2.6831  -21.8515 H         1 A97         0.0597
     53 H13        22.8624    0.4822  -13.9878 H         1 A97         0.0834
     54 H14        22.0855    1.2719  -15.4018 H         1 A97         0.0834
     55 H15        24.7319   -0.3427  -31.3663 H         1 A97         0.0231
     56 H16        24.0899    0.2560  -29.7991 H         1 A97         0.0231
     57 H17        22.9999    0.1101  -31.2194 H         1 A97         0.0231
     58 H18        24.4018   -2.2045  -29.7857 H         1 A97         0.0284
     59 H19        23.3118   -2.3505  -31.2060 H         1 A97         0.0284
     60 H20        21.4238   -1.6982  -29.9112 H         1 A97         0.0418
     61 H21        22.4633   -1.3060  -28.4998 H         1 A97         0.0418
     62 H22        23.2406   -4.5768  -30.0474 H         1 A97         0.0211
     63 H23        22.3961   -8.0730  -28.5506 H         1 A97         0.0478
     64 H24        23.8964   -7.2301  -29.0655 H         1 A97         0.0478
     65 H25        22.5183   -7.3884  -30.2067 H         1 A97         0.0478
     66 H26        24.4391    1.5761  -18.4404 H         1 A97         0.0572
     67 H27        22.7250    1.7808  -17.9439 H         1 A97         0.0572
     68 H28        24.0335    0.5040  -19.8845 H         1 A97         0.0603
     69 H29        25.2194    0.6591  -21.7145 H         1 A97         0.0627
     70 H30        24.4782    1.5762  -27.1090 H         1 A97         0.0723
     71 H31        27.1349    2.2208  -22.4663 H         1 A97         0.0647
     72 H32        27.8425    4.5576  -23.0664 H         1 A97         0.0259
     73 H33        26.0585    4.3582  -23.1314 H         1 A97         0.0259
     74 H34        27.0151    4.3862  -24.6515 H         1 A97         0.0259
     75 H35        28.6795    1.0137  -24.0282 H         1 A97         0.0259
     76 H36        29.3740    2.5852  -23.5040 H         1 A97         0.0259
     77 H37        28.6541    2.4229  -25.1418 H         1 A97         0.0259
     78 H38        21.1092   -6.8469  -27.1672 H         1 A97         0.2510
     79 H39        21.4822   -2.2081  -25.2187 H         1 A97         0.1858
     80 H40        25.0059    1.3079  -14.8996 H         1 A97         0.2032
@<TRIPOS>BOND
     1    1    3 1  
     2    1    8 ar 
     3   25    1 ar 
     4   23    2 1  
     5    2   36 1  
     6    3   11 ar 
     7    3   24 ar 
     8    4   12 1  
     9   35    4 1  
    10    5    7 1  
    11    5    8 ar 
    12   27    5 ar 
    13   36    6 1  
    14    7   33 am 
    15    7   40 2  
    16    9   22 1  
    17   33    9 1  
    18   11   10 ar 
    19   10   34 ar 
    20   12   36 1  
    21   24   13 ar 
    22   13   34 ar 
    23   13   35 1  
    24   15   14 1  
    25   16   15 1  
    26   17   16 1  
    27   17   18 1  
    28   22   17 2  
    29   18   19 2  
    30   19   20 1  
    31   32   19 am 
    32   22   21 1  
    33   21   32 am 
    34   21   39 2  
    35   35   23 1  
    36   26   25 ar 
    37   26   27 ar 
    38   38   26 1  
    39   27   28 1  
    40   28   37 2  
    41   29   30 1  
    42   29   31 1  
    43   29   38 1  
    44   37   38 1  
    45    2   41 1  
    46    2   42 1  
    47    4   43 1  
    48    4   44 1  
    49    6   45 1  
    50    6   46 1  
    51    6   47 1  
    52    8   48 1  
    53    9   49 1  
    54    9   50 1  
    55   10   51 1  
    56   11   52 1  
    57   12   53 1  
    58   12   54 1  
    59   14   55 1  
    60   14   56 1  
    61   14   57 1  
    62   15   58 1  
    63   15   59 1  
    64   16   60 1  
    65   16   61 1  
    66   18   62 1  
    67   20   63 1  
    68   20   64 1  
    69   20   65 1  
    70   23   66 1  
    71   23   67 1  
    72   24   68 1  
    73   25   69 1  
    74   28   70 1  
    75   29   71 1  
    76   30   72 1  
    77   30   73 1  
    78   30   74 1  
    79   31   75 1  
    80   31   76 1  
    81   31   77 1  
    82   32   78 1  
    83   33   79 1  
    84   36   80 1  
@<TRIPOS>SUBSTRUCTURE
     1 A97         1

