### 
### Created by X-TOOL on Wed Jan  1 15:39:36 2020
### 

@<TRIPOS>MOLECULE
5wfd_ligand
   78    82     1     0     0
SMALL
GAST_HUCK


@<TRIPOS>ATOM
      1 C24        22.6760   -0.3380  -24.0990 C.ar      1 A9G        -0.0518
      2 C25        23.5000   -0.1080  -22.9100 C.ar      1 A9G        -0.0266
      3 C26        23.1430   -0.7130  -21.5750 C.ar      1 A9G        -0.0092
      4 C28        23.2170   -0.8610  -19.0860 C.ar      1 A9G        -0.0159
      5 C27        23.5520   -0.2570  -20.3080 C.ar      1 A9G        -0.0478
      6 C20        23.0220   -7.2550  -29.2790 C.3       1 A9G         0.0056
      7 C19        22.4290   -5.8910  -28.8720 C.2       1 A9G         0.0687
      8 C22        20.9300   -4.6080  -27.4520 C.2       1 A9G         0.1873
      9 C18        22.7920   -4.6600  -29.4880 C.2       1 A9G        -0.0510
     10 C17        22.6200   -2.0890  -29.7890 C.3       1 A9G        -0.0403
     11 C16        22.2360   -3.4100  -29.1160 C.2       1 A9G        -0.0723
     12 C11        21.9910   -0.1290  -26.5790 C.2       1 A9G         0.1977
     13 C10        22.9770    0.1980  -25.3720 C.ar      1 A9G         0.0358
     14 C15        21.2710   -3.3480  -28.0850 C.2       1 A9G         0.0145
     15 C14        20.6450   -2.0580  -27.6030 C.3       1 A9G         0.0484
     16 C01        26.4800    4.9390  -24.1940 C.3       1 A9G        -0.0626
     17 C02        26.6800    3.7810  -23.1870 C.3       1 A9G        -0.0270
     18 C03        27.1680    2.4110  -23.7950 C.3       1 A9G         0.0572
     19 C04        28.4470    2.6250  -24.5710 C.3       1 A9G        -0.0360
     20 C06        25.9890    2.2610  -26.0920 C.2       1 A9G         0.0224
     21 C07        24.8590    1.6910  -26.6390 C.2       1 A9G        -0.0451
     22 C08        24.3870    1.7760  -28.1100 C.3       1 A9G        -0.0479
     23 C09        24.1650    0.9740  -25.5710 C.ar      1 A9G        -0.0035
     24 C29        22.4090   -2.0570  -19.0760 C.ar      1 A9G         0.1142
     25 C31        22.6300   -2.1900  -16.4830 C.3       1 A9G         0.0699
     26 C32        22.2890   -2.9920  -15.2150 C.3       1 A9G        -0.0129
     27 C34        20.2160   -3.7780  -16.2380 C.3       1 A9G        -0.0129
     28 C35        20.5830   -3.0950  -17.5900 C.3       1 A9G         0.0699
     29 C37        22.3640   -1.8890  -21.4590 C.ar      1 A9G         0.0028
     30 C38        24.6340    0.6440  -23.1190 C.ar      1 A9G        -0.0323
     31 C39        24.9900    1.1820  -24.3660 C.ar      1 A9G         0.0684
     32 N05        26.1010    1.9540  -24.6950 N.pl3     1 A9G        -0.2698
     33 N13        21.5040   -1.4650  -26.6560 N.am      1 A9G        -0.2837
     34 N21        21.4840   -5.8370  -27.8390 N.am      1 A9G        -0.2246
     35 N30        22.0430   -2.7140  -17.7780 N.pl3     1 A9G        -0.2839
     36 N33        21.4510   -4.1770  -15.5650 N.4       1 A9G         0.2298
     37 N36        22.0070   -2.5180  -20.3020 N.ar      1 A9G        -0.2846
     38 O12        21.6520    0.6840  -27.3590 O.2       1 A9G        -0.3885
     39 O23        20.0250   -4.5120  -26.4560 O.2       1 A9G        -0.4303
     40 H1         21.7883   -0.9518  -23.9974 H         1 A9G         0.0576
     41 H2         23.5638   -0.4309  -18.1534 H         1 A9G         0.0610
     42 H3         24.1743    0.6299  -20.2730 H         1 A9G         0.0697
     43 H4         23.7414   -7.1121  -30.0988 H         1 A9G         0.0478
     44 H5         22.2132   -7.9215  -29.6130 H         1 A9G         0.0478
     45 H6         23.5345   -7.7044  -28.4156 H         1 A9G         0.0478
     46 H7         23.5339   -4.6794  -30.2849 H         1 A9G         0.0211
     47 H8         23.3741   -2.2795  -30.5669 H         1 A9G         0.0382
     48 H9         23.0345   -1.4013  -29.0372 H         1 A9G         0.0382
     49 H10        21.7273   -1.6374  -30.2464 H         1 A9G         0.0382
     50 H11        19.6713   -2.2704  -27.1375 H         1 A9G         0.0586
     51 H12        20.5037   -1.3748  -28.4534 H         1 A9G         0.0586
     52 H13        26.1408    5.8372  -23.6572 H         1 A9G         0.0231
     53 H14        25.7245    4.6502  -24.9396 H         1 A9G         0.0231
     54 H15        27.4325    5.1527  -24.7009 H         1 A9G         0.0231
     55 H16        25.7178    3.6022  -22.6847 H         1 A9G         0.0291
     56 H17        27.4258    4.1047  -22.4461 H         1 A9G         0.0291
     57 H18        27.3373    1.6740  -22.9962 H         1 A9G         0.0630
     58 H19        28.7841    1.6670  -24.9935 H         1 A9G         0.0258
     59 H20        29.2218    3.0221  -23.8987 H         1 A9G         0.0258
     60 H21        28.2661    3.3416  -25.3857 H         1 A9G         0.0258
     61 H22        26.7038    2.8658  -26.6482 H         1 A9G         0.0824
     62 H23        25.1014    2.3787  -28.6900 H         1 A9G         0.0314
     63 H24        23.3934    2.2463  -28.1497 H         1 A9G         0.0314
     64 H25        24.3307    0.7635  -28.5361 H         1 A9G         0.0314
     65 H26        23.7247   -2.1788  -16.5900 H         1 A9G         0.0573
     66 H27        22.2650   -1.1623  -16.3396 H         1 A9G         0.0573
     67 H28        21.7346   -2.3485  -14.5160 H         1 A9G         0.0834
     68 H29        23.2203   -3.3332  -14.7393 H         1 A9G         0.0834
     69 H30        19.5946   -4.6655  -16.4281 H         1 A9G         0.0834
     70 H31        19.6610   -3.0706  -15.6044 H         1 A9G         0.0834
     71 H32        19.9834   -2.1767  -17.6752 H         1 A9G         0.0573
     72 H33        20.3104   -3.7874  -18.4001 H         1 A9G         0.0573
     73 H34        22.0156   -2.3354  -22.3834 H         1 A9G         0.0782
     74 H35        25.2877    0.8310  -22.2747 H         1 A9G         0.0582
     75 H36        21.8190   -2.0743  -25.9284 H         1 A9G         0.1856
     76 H37        21.2035   -6.6778  -27.3760 H         1 A9G         0.2510
     77 H38        21.2178   -4.6747  -14.7200 H         1 A9G         0.2015
     78 H39        21.9770   -4.7814  -16.1766 H         1 A9G         0.2015
@<TRIPOS>BOND
     1    2    1 ar 
     2    1   13 ar 
     3    3    2 1  
     4    2   30 ar 
     5    5    3 ar 
     6    3   29 ar 
     7    4    5 ar 
     8   24    4 ar 
     9    7    6 1  
    10    9    7 2  
    11   34    7 am 
    12   14    8 1  
    13    8   34 am 
    14    8   39 2  
    15   11    9 1  
    16   11   10 1  
    17   14   11 2  
    18   13   12 1  
    19   12   33 am 
    20   12   38 2  
    21   13   23 ar 
    22   15   14 1  
    23   33   15 1  
    24   17   16 1  
    25   18   17 1  
    26   18   19 1  
    27   32   18 1  
    28   21   20 2  
    29   20   32 1  
    30   21   22 1  
    31   23   21 1  
    32   23   31 ar 
    33   35   24 1  
    34   24   37 ar 
    35   26   25 1  
    36   25   35 1  
    37   36   26 1  
    38   27   28 1  
    39   27   36 1  
    40   28   35 1  
    41   29   37 ar 
    42   30   31 ar 
    43   31   32 1  
    44    1   40 1  
    45    4   41 1  
    46    5   42 1  
    47    6   43 1  
    48    6   44 1  
    49    6   45 1  
    50    9   46 1  
    51   10   47 1  
    52   10   48 1  
    53   10   49 1  
    54   15   50 1  
    55   15   51 1  
    56   16   52 1  
    57   16   53 1  
    58   16   54 1  
    59   17   55 1  
    60   17   56 1  
    61   18   57 1  
    62   19   58 1  
    63   19   59 1  
    64   19   60 1  
    65   20   61 1  
    66   22   62 1  
    67   22   63 1  
    68   22   64 1  
    69   25   65 1  
    70   25   66 1  
    71   26   67 1  
    72   26   68 1  
    73   27   69 1  
    74   27   70 1  
    75   28   71 1  
    76   28   72 1  
    77   29   73 1  
    78   30   74 1  
    79   33   75 1  
    80   34   76 1  
    81   36   77 1  
    82   36   78 1  
@<TRIPOS>SUBSTRUCTURE
     1 A9G         1

