### 
### Created by X-TOOL on Mon Sep 10 21:13:33 2018
### 

@<TRIPOS>MOLECULE
5wfj_ligand
   44    46     1     0     0
SMALL
GAST_HUCK


@<TRIPOS>ATOM
      1 C1         -0.8750  -15.5460   -3.5240 C.2       1 9Z4         0.1274
      2 N2         -2.1900  -15.2380   -3.2260 N.pl3     1 9Z4        -0.1740
      3 N3         -2.7290  -13.9790   -3.0730 N.2       1 9Z4        -0.1850
      4 C4         -1.8720  -13.0260   -3.2500 C.2       1 9Z4         0.0353
      5 C5         -0.4990  -13.1470   -3.5830 C.2       1 9Z4         0.0832
      6 C6          0.0300  -14.4490   -3.7200 C.2       1 9Z4         0.1087
      7 C7         -0.7940  -16.9280   -3.5930 C.2       1 9Z4        -0.0662
      8 C8         -2.0620  -17.4400   -3.3330 C.2       1 9Z4        -0.0801
      9 C9         -2.9190  -16.3840   -3.1140 C.2       1 9Z4         0.0475
     10 C10         0.3250  -11.9310   -3.8340 C.2       1 9Z4         0.1836
     11 N11        -0.1920  -10.7510   -3.5150 N.am      1 9Z4        -0.3054
     12 O12         1.4480  -12.0080   -4.3530 O.2       1 9Z4        -0.4025
     13 N13         1.3280  -14.6390   -4.0100 N.pl3     1 9Z4        -0.2942
     14 C14         2.1470  -15.8250   -4.2190 C.3       1 9Z4         0.0604
     15 C15         2.0700  -16.3260   -5.6370 C.ar      1 9Z4        -0.0343
     16 C16         2.1240  -15.4450   -6.7090 C.ar      1 9Z4        -0.0736
     17 C17         2.0110  -15.9040   -8.0120 C.ar      1 9Z4        -0.0819
     18 C18         1.8430  -17.2550   -8.2630 C.ar      1 9Z4        -0.0481
     19 C19         1.8020  -18.1550   -7.2030 C.ar      1 9Z4         0.0593
     20 C20         1.9160  -17.6820   -5.8960 C.ar      1 9Z4        -0.0386
     21 N21         1.6720  -19.5400   -7.4800 N.am      1 9Z4        -0.2355
     22 C22         1.0640  -20.4900   -6.7420 C.2       1 9Z4         0.2032
     23 C23         1.0540  -21.8300   -7.3650 C.3       1 9Z4         0.0403
     24 O24         0.5320  -20.2560   -5.6490 O.2       1 9Z4        -0.3849
     25 C25         0.1850  -21.8770   -8.5980 C.3       1 9Z4        -0.0477
     26 H1         -2.2495  -12.0117   -3.1290 H         1 9Z4         0.0869
     27 H2          0.1009  -17.5089   -3.8114 H         1 9Z4         0.0275
     28 H3         -2.3306  -18.4950   -3.3071 H         1 9Z4         0.0325
     29 H4         -3.9830  -16.4523   -2.8922 H         1 9Z4         0.0797
     30 H5          0.3351   -9.9156   -3.6708 H         1 9Z4         0.1795
     31 H6         -1.1086  -10.6973   -3.1189 H         1 9Z4         0.1795
     32 H7          1.8557  -13.7595   -4.1046 H         1 9Z4         0.1895
     33 H8          1.7987  -16.6198   -3.5430 H         1 9Z4         0.0688
     34 H9          3.1935  -15.5784   -3.9867 H         1 9Z4         0.0688
     35 H10         2.2562  -14.3850   -6.5245 H         1 9Z4         0.0431
     36 H11         2.0543  -15.2026   -8.8374 H         1 9Z4         0.0561
     37 H12         1.7437  -17.6105   -9.2822 H         1 9Z4         0.0447
     38 H13         1.8840  -18.3831   -5.0698 H         1 9Z4         0.0437
     39 H14         2.0857  -19.8527   -8.3350 H         1 9Z4         0.2255
     40 H15         0.6721  -22.5580   -6.6342 H         1 9Z4         0.0505
     41 H16         2.0831  -22.0980   -7.6462 H         1 9Z4         0.0505
     42 H17         0.2091  -22.8904   -9.0251 H         1 9Z4         0.0254
     43 H18         0.5618  -21.1575   -9.3398 H         1 9Z4         0.0254
     44 H19        -0.8492  -21.6175   -8.3278 H         1 9Z4         0.0254
@<TRIPOS>BOND
     1    1    2 1  
     2    1    6 1  
     3    1    7 2  
     4    2    3 1  
     5    2    9 1  
     6    3    4 2  
     7    4    5 1  
     8    5    6 2  
     9    5   10 1  
    10    6   13 1  
    11    7    8 1  
    12    8    9 2  
    13   10   11 am 
    14   10   12 2  
    15   13   14 1  
    16   14   15 1  
    17   15   16 ar 
    18   15   20 ar 
    19   16   17 ar 
    20   17   18 ar 
    21   18   19 ar 
    22   19   20 ar 
    23   19   21 1  
    24   21   22 am 
    25   22   23 1  
    26   22   24 2  
    27   23   25 1  
    28    4   26 1  
    29    7   27 1  
    30    8   28 1  
    31    9   29 1  
    32   11   30 1  
    33   11   31 1  
    34   13   32 1  
    35   14   33 1  
    36   14   34 1  
    37   16   35 1  
    38   17   36 1  
    39   18   37 1  
    40   20   38 1  
    41   21   39 1  
    42   23   40 1  
    43   23   41 1  
    44   25   42 1  
    45   25   43 1  
    46   25   44 1  
@<TRIPOS>SUBSTRUCTURE
     1 9Z4         1

