### 
### Created by X-TOOL on Wed Jan  1 15:39:37 2020
### 

@<TRIPOS>MOLECULE
5wfm_ligand
   63    66     1     0     0
SMALL
GAST_HUCK


@<TRIPOS>ATOM
      1 C1        195.4540 -311.6820  686.0190 C.2       1 KU5         0.1641
      2 C10       194.9760 -316.0810  688.5040 C.ar      1 KU5        -0.0600
      3 C11       194.0170 -315.0930  688.4600 C.ar      1 KU5        -0.0616
      4 C12       193.1290 -315.0400  687.4120 C.ar      1 KU5        -0.0600
      5 C13       193.1920 -315.9750  686.3950 C.ar      1 KU5        -0.0369
      6 C14       194.2930 -310.8040  685.5970 C.3       1 KU5         0.1312
      7 C15       193.2470 -310.5340  686.6900 C.3       1 KU5        -0.0084
      8 C16       192.4060 -311.7990  686.6360 C.3       1 KU5        -0.0274
      9 C17       192.2120 -311.9870  685.1480 C.3       1 KU5         0.0377
     10 C18       193.7940 -311.5900  683.2780 C.2       1 KU5         0.1937
     11 C19       194.4680 -310.4380  682.5590 C.3       1 KU5         0.0970
     12 C2        196.6150 -313.6600  685.7460 C.2       1 KU5         0.1060
     13 C20       197.2620 -311.4170  682.7820 C.ar      1 KU5         0.0319
     14 C21       198.3440 -311.4000  683.6640 C.ar      1 KU5        -0.0490
     15 C22       199.2680 -312.4290  683.6560 C.ar      1 KU5        -0.0676
     16 C23       199.1340 -313.4750  682.7730 C.ar      1 KU5        -0.0681
     17 C24       198.0800 -313.5100  681.8890 C.ar      1 KU5        -0.0538
     18 C25       197.1510 -312.4870  681.8880 C.ar      1 KU5         0.0518
     19 C3        197.5140 -313.3170  686.7100 C.2       1 KU5         0.1828
     20 C4        197.3920 -312.0980  687.3700 C.2       1 KU5         0.2603
     21 C5        196.7400 -314.9800  685.0320 C.2       1 KU5         0.2003
     22 C6        195.6820 -316.5300  683.4610 C.3       1 KU5         0.0497
     23 C7        195.7410 -317.8100  684.2690 C.3       1 KU5         0.0908
     24 C8        194.1590 -316.9630  686.4380 C.ar      1 KU5         0.0882
     25 C9        195.0500 -317.0250  687.4960 C.ar      1 KU5        -0.0369
     26 N1        196.3360 -311.2940  686.9930 N.am      1 KU5        -0.1947
     27 N2        195.5940 -312.8600  685.4050 N.2       1 KU5        -0.3043
     28 N3        195.6960 -315.3280  684.2810 N.am      1 KU5        -0.2868
     29 N4        193.4560 -311.4550  684.5730 N.am      1 KU5        -0.2484
     30 O1        198.1710 -311.7160  688.2560 O.2       1 KU5        -0.3954
     31 O2        198.5420 -314.0930  687.0810 O.3       1 KU5        -0.3268
     32 O3        197.7650 -315.6530  685.1400 O.2       1 KU5        -0.3921
     33 O4        193.4610 -312.5910  682.6520 O.2       1 KU5        -0.3956
     34 O5        194.3760 -319.4580  685.7590 O.2       1 KU5        -0.1693
     35 O6        193.1370 -317.9440  684.2610 O.2       1 KU5        -0.1693
     36 S1        194.2410 -318.1670  685.1490 S.o2      1 KU5        -0.0012
     37 S2        196.1970 -310.0120  682.9350 S.3       1 KU5        -0.0791
     38 CL1       195.8500 -312.5840  680.7500 Cl        1 KU5        -0.0763
     39 H1        195.6751 -316.1187  689.3316 H         1 KU5         0.0618
     40 H2        193.9625 -314.3561  689.2531 H         1 KU5         0.0618
     41 H3        192.3755 -314.2613  687.3826 H         1 KU5         0.0618
     42 H4        192.4892 -315.9339  685.5707 H         1 KU5         0.0636
     43 H5        194.7031 -309.8547  685.2220 H         1 KU5         0.0845
     44 H6        192.6454 -309.6431  686.4571 H         1 KU5         0.0321
     45 H7        193.7203 -310.4097  687.6752 H         1 KU5         0.0321
     46 H8        191.4433 -311.6607  687.1498 H         1 KU5         0.0288
     47 H9        192.9394 -312.6524  687.0801 H         1 KU5         0.0288
     48 H10       191.3393 -311.4211  684.7901 H         1 KU5         0.0525
     49 H11       192.0865 -313.0510  684.8986 H         1 KU5         0.0525
     50 H12       193.8680 -309.5399  682.7673 H         1 KU5         0.0642
     51 H13       194.4247 -310.6667  681.4839 H         1 KU5         0.0642
     52 H14       198.4605 -310.5760  684.3587 H         1 KU5         0.0565
     53 H15       200.1016 -312.4111  684.3487 H         1 KU5         0.0601
     54 H16       199.8633 -314.2769  682.7735 H         1 KU5         0.0559
     55 H17       197.9788 -314.3372  681.1958 H         1 KU5         0.0605
     56 H18       194.7568 -316.5355  682.8661 H         1 KU5         0.0535
     57 H19       196.5510 -316.5026  682.7872 H         1 KU5         0.0535
     58 H20       196.5595 -317.7229  684.9987 H         1 KU5         0.0524
     59 H21       195.9484 -318.6446  683.5832 H         1 KU5         0.0524
     60 H22       195.7996 -317.8072  687.5339 H         1 KU5         0.0636
     61 H23       196.2116 -310.4084  687.4406 H         1 KU5         0.2537
     62 H24       194.8882 -314.7385  684.2808 H         1 KU5         0.1838
     63 H25       198.5320 -314.8949  686.5717 H         1 KU5         0.2490
@<TRIPOS>BOND
     1    1    6 1  
     2    1   26 1  
     3   27    1 2  
     4    2    3 ar 
     5   25    2 ar 
     6    4    3 ar 
     7    5    4 ar 
     8   24    5 ar 
     9    6    7 1  
    10    6   29 1  
    11    7    8 1  
    12    9    8 1  
    13   29    9 1  
    14   10   11 1  
    15   29   10 am 
    16   10   33 2  
    17   11   37 1  
    18   12   19 2  
    19   21   12 1  
    20   12   27 1  
    21   13   14 ar 
    22   13   18 ar 
    23   37   13 1  
    24   14   15 ar 
    25   15   16 ar 
    26   17   16 ar 
    27   18   17 ar 
    28   18   38 1  
    29   19   20 1  
    30   19   31 1  
    31   20   26 am 
    32   20   30 2  
    33   28   21 am 
    34   21   32 2  
    35   23   22 1  
    36   22   28 1  
    37   36   23 1  
    38   24   25 ar 
    39   24   36 1  
    40   36   34 2  
    41   36   35 2  
    42    2   39 1  
    43    3   40 1  
    44    4   41 1  
    45    5   42 1  
    46    6   43 1  
    47    7   44 1  
    48    7   45 1  
    49    8   46 1  
    50    8   47 1  
    51    9   48 1  
    52    9   49 1  
    53   11   50 1  
    54   11   51 1  
    55   14   52 1  
    56   15   53 1  
    57   16   54 1  
    58   17   55 1  
    59   22   56 1  
    60   22   57 1  
    61   23   58 1  
    62   23   59 1  
    63   25   60 1  
    64   26   61 1  
    65   28   62 1  
    66   31   63 1  
@<TRIPOS>SUBSTRUCTURE
     1 KU5         1

