### 
### Created by X-TOOL on Wed Jan  1 15:39:38 2020
### 

@<TRIPOS>MOLECULE
5wfw_ligand
   69    73     1     0     0
SMALL
GAST_HUCK


@<TRIPOS>ATOM
      1 C1        400.8890  105.8150  553.7650 C.2       1 GYA         0.2603
      2 C10       404.4110   99.6350  546.2230 C.3       1 GYA         0.0553
      3 C11       405.9310   99.7080  549.5370 C.ar      1 GYA         0.1060
      4 C12       407.1990   97.6950  549.5870 C.3       1 GYA         0.0553
      5 C13       406.3970  100.5950  550.4970 C.ar      1 GYA        -0.0459
      6 C14       406.3250  101.9560  550.2360 C.ar      1 GYA        -0.0578
      7 C15       406.7550  103.1220  551.0870 C.3       1 GYA        -0.0045
      8 C16       400.7660  103.8030  552.4650 C.2       1 GYA         0.1641
      9 C17       400.0280  102.5660  552.0020 C.3       1 GYA         0.1312
     10 C18       400.8420  102.0340  549.7180 C.2       1 GYA         0.1937
     11 C19       401.6940  101.1460  548.8340 C.3       1 GYA         0.0970
     12 C2        402.1710  105.9910  553.2530 C.2       1 GYA         0.1828
     13 C20       401.9290  102.8490  546.5380 C.ar      1 GYA         0.0319
     14 C21       402.6170  103.6870  547.4160 C.ar      1 GYA        -0.0490
     15 C22       403.0820  104.9140  546.9760 C.ar      1 GYA        -0.0676
     16 C23       402.8710  105.3120  545.6740 C.ar      1 GYA        -0.0681
     17 C24       402.1970  104.4950  544.7940 C.ar      1 GYA        -0.0538
     18 C25       401.7300  103.2700  545.2280 C.ar      1 GYA         0.0518
     19 C26       401.5270  100.6730  551.6960 C.3       1 GYA         0.0377
     20 C27       401.2260  100.8900  553.1640 C.3       1 GYA        -0.0274
     21 C28       399.8420  101.5190  553.1110 C.3       1 GYA        -0.0084
     22 C3        402.6890  105.0750  552.3880 C.2       1 GYA         0.1060
     23 C4        404.0730  105.2540  551.8320 C.2       1 GYA         0.2007
     24 C5        405.8900  104.2710  550.5340 C.3       1 GYA         0.0550
     25 C6        405.8410  103.9330  549.0310 C.3       1 GYA        -0.0045
     26 C7        405.7870  102.4290  549.0450 C.ar      1 GYA        -0.0578
     27 C8        405.3200  101.5510  548.0760 C.ar      1 GYA        -0.0459
     28 C9        405.3810  100.1890  548.3270 C.ar      1 GYA         0.1060
     29 N1        404.5570  104.2350  551.1070 N.am      1 GYA        -0.2823
     30 N2        402.0010  103.9940  551.9950 N.2       1 GYA        -0.3043
     31 N3        400.8150  101.7780  551.0370 N.am      1 GYA        -0.2484
     32 N4        400.2060  104.6940  553.3430 N.am      1 GYA        -0.1947
     33 O1        400.3510  106.6020  554.5590 O.2       1 GYA        -0.3954
     34 O2        402.8330  107.0810  553.6660 O.3       1 GYA        -0.3268
     35 O3        404.9570   99.2100  547.4670 O.3       1 GYA        -0.3310
     36 O4        405.9330   98.3440  549.6550 O.3       1 GYA        -0.3310
     37 O5        404.7220  106.2770  552.0420 O.2       1 GYA        -0.3921
     38 O6        400.1680  102.9390  549.2350 O.2       1 GYA        -0.3956
     39 S1        401.3220  101.2740  547.0610 S.3       1 GYA        -0.0791
     40 CL1       400.8840  102.2620  544.1030 Cl        1 GYA        -0.0763
     41 H1        404.1129   98.7553  545.6338 H         1 GYA         0.0570
     42 H2        405.1673  100.2091  545.6676 H         1 GYA         0.0570
     43 H3        403.5309  100.2689  546.4062 H         1 GYA         0.0570
     44 H4        407.0606   96.6091  549.6947 H         1 GYA         0.0570
     45 H5        407.8445   98.0645  550.3975 H         1 GYA         0.0570
     46 H6        407.6697   97.9101  548.6164 H         1 GYA         0.0570
     47 H7        406.8089  100.2321  551.4318 H         1 GYA         0.0434
     48 H8        407.8269  103.3339  550.9597 H         1 GYA         0.0413
     49 H9        406.5411  102.9390  552.1504 H         1 GYA         0.0413
     50 H10       399.0600  102.8697  551.5768 H         1 GYA         0.0845
     51 H11       401.5389  100.1019  549.1435 H         1 GYA         0.0642
     52 H12       402.7485  101.4204  548.9849 H         1 GYA         0.0642
     53 H13       402.7870  103.3776  548.4409 H         1 GYA         0.0565
     54 H14       403.6150  105.5653  547.6593 H         1 GYA         0.0601
     55 H15       403.2383  106.2756  545.3398 H         1 GYA         0.0559
     56 H16       402.0345  104.8106  543.7698 H         1 GYA         0.0605
     57 H17       401.1449   99.6994  551.3552 H         1 GYA         0.0525
     58 H18       402.6084  100.7305  551.5029 H         1 GYA         0.0525
     59 H19       401.9569  101.5699  553.6260 H         1 GYA         0.0288
     60 H20       401.2118   99.9378  553.7145 H         1 GYA         0.0288
     61 H21       399.0738  100.7793  552.8414 H         1 GYA         0.0321
     62 H22       399.5772  101.9902  554.0690 H         1 GYA         0.0321
     63 H23       406.3516  105.2525  550.7169 H         1 GYA         0.0592
     64 H24       406.7404  104.2949  548.5113 H         1 GYA         0.0413
     65 H25       404.9458  104.3598  548.5552 H         1 GYA         0.0413
     66 H26       404.9157  101.9232  547.1416 H         1 GYA         0.0434
     67 H27       403.9844  103.4290  550.9572 H         1 GYA         0.1844
     68 H28       399.2813  104.5274  553.6853 H         1 GYA         0.2537
     69 H29       403.6294  106.8166  554.1114 H         1 GYA         0.2490
@<TRIPOS>BOND
     1   12    1 1  
     2    1   32 am 
     3    1   33 2  
     4   35    2 1  
     5    3    5 ar 
     6   28    3 ar 
     7    3   36 1  
     8   36    4 1  
     9    5    6 ar 
    10    6    7 1  
    11   26    6 ar 
    12   24    7 1  
    13    8    9 1  
    14   30    8 2  
    15    8   32 1  
    16    9   21 1  
    17    9   31 1  
    18   10   11 1  
    19   31   10 am 
    20   10   38 2  
    21   11   39 1  
    22   22   12 2  
    23   12   34 1  
    24   13   14 ar 
    25   13   18 ar 
    26   39   13 1  
    27   14   15 ar 
    28   15   16 ar 
    29   17   16 ar 
    30   18   17 ar 
    31   18   40 1  
    32   19   20 1  
    33   31   19 1  
    34   21   20 1  
    35   23   22 1  
    36   22   30 1  
    37   29   23 am 
    38   23   37 2  
    39   25   24 1  
    40   24   29 1  
    41   26   25 1  
    42   27   26 ar 
    43   28   27 ar 
    44   28   35 1  
    45    2   41 1  
    46    2   42 1  
    47    2   43 1  
    48    4   44 1  
    49    4   45 1  
    50    4   46 1  
    51    5   47 1  
    52    7   48 1  
    53    7   49 1  
    54    9   50 1  
    55   11   51 1  
    56   11   52 1  
    57   14   53 1  
    58   15   54 1  
    59   16   55 1  
    60   17   56 1  
    61   19   57 1  
    62   19   58 1  
    63   20   59 1  
    64   20   60 1  
    65   21   61 1  
    66   21   62 1  
    67   24   63 1  
    68   25   64 1  
    69   25   65 1  
    70   27   66 1  
    71   29   67 1  
    72   32   68 1  
    73   34   69 1  
@<TRIPOS>SUBSTRUCTURE
     1 GYA         1

