### 
### Created by X-TOOL on Mon Sep 10 21:13:33 2018
### 

@<TRIPOS>MOLECULE
5wfz_ligand
   58    61     1     0     0
SMALL
GAST_HUCK


@<TRIPOS>ATOM
      1 C1        127.3410  105.3460  414.7020 C.ar      1 KU0         0.0887
      2 C10       134.2200  102.2090  417.5880 C.ar      1 KU0         0.0882
      3 C11       134.0820  103.2430  418.4980 C.ar      1 KU0        -0.0369
      4 C12       133.0290  103.2240  419.3940 C.ar      1 KU0        -0.0600
      5 C13       132.1250  102.1860  419.3820 C.ar      1 KU0        -0.0616
      6 C14       132.2650  101.1600  418.4770 C.ar      1 KU0        -0.0600
      7 C15       133.3120  101.1630  417.5740 C.ar      1 KU0        -0.0369
      8 C16       131.0600  105.7720  417.8420 C.2       1 KU0         0.1828
      9 C17       129.8050  105.5790  418.4160 C.2       1 KU0         0.2603
     10 C18       128.8440  101.2980  416.8040 C.3       1 KU0        -0.0084
     11 C19       129.9080  100.7290  415.8780 C.3       1 KU0        -0.0274
     12 C2        128.5210  104.8430  414.1520 C.ar      1 KU0         0.0973
     13 C20       129.3830  101.1460  414.5260 C.3       1 KU0         0.0374
     14 C21       129.5560  105.7540  413.9390 C.ar      1 KU0         0.0887
     15 C22       129.3760  107.0900  414.2650 C.ar      1 KU0         0.0308
     16 C23       127.2440  106.6980  414.9970 C.ar      1 KU0         0.0308
     17 C3        128.7290  103.4000  413.8000 C.2       1 KU0         0.2208
     18 C4        128.6270  102.7130  416.2350 C.3       1 KU0         0.1310
     19 C5        129.4800  103.8060  416.8400 C.2       1 KU0         0.1641
     20 C6        131.4600  104.9870  416.8020 C.2       1 KU0         0.1060
     21 C7        132.8160  105.1780  416.1760 C.2       1 KU0         0.2003
     22 C8        134.5330  104.1580  414.7650 C.3       1 KU0         0.0497
     23 C9        135.6100  103.8760  415.7950 C.3       1 KU0         0.0908
     24 N1        128.8840  102.5060  414.7900 N.am      1 KU0        -0.2469
     25 N2        130.6850  104.0130  416.3060 N.2       1 KU0        -0.3043
     26 N3        133.1970  104.2160  415.3370 N.am      1 KU0        -0.2868
     27 N4        129.0280  104.5760  417.8790 N.am      1 KU0        -0.1947
     28 N5        128.2420  107.5510  414.7830 N.ar      1 KU0        -0.2911
     29 O1        128.8470  103.0650  412.6230 O.2       1 KU0        -0.3791
     30 O2        133.5110  106.1510  416.4650 O.2       1 KU0        -0.3921
     31 O3        136.7700  101.9960  417.1770 O.2       1 KU0        -0.1693
     32 O4        135.2390  101.3270  415.3660 O.2       1 KU0        -0.1693
     33 O5        131.8090  106.7500  418.3710 O.3       1 KU0        -0.3268
     34 O6        129.3710  106.2540  419.3610 O.2       1 KU0        -0.3954
     35 S1        135.5610  102.2210  416.4400 S.o2      1 KU0        -0.0012
     36 CL1       125.9970  104.3120  415.0070 Cl        1 KU0        -0.0550
     37 CL2       131.0570  105.2340  413.2710 Cl        1 KU0        -0.0550
     38 H1        134.7935  104.0608  418.5081 H         1 KU0         0.0636
     39 H2        132.9148  104.0304  420.1093 H         1 KU0         0.0618
     40 H3        131.3015  102.1773  420.0869 H         1 KU0         0.0618
     41 H4        131.5507  100.3446  418.4716 H         1 KU0         0.0618
     42 H5        133.4214  100.3537  416.8612 H         1 KU0         0.0636
     43 H6        129.2021  101.3384  417.8433 H         1 KU0         0.0321
     44 H7        127.9187  100.7050  416.7577 H         1 KU0         0.0321
     45 H8        129.9721   99.6343  415.9641 H         1 KU0         0.0288
     46 H9        130.8948  101.1712  416.0798 H         1 KU0         0.0288
     47 H10       128.5724  100.4821  414.1912 H         1 KU0         0.0525
     48 H11       130.1845  101.1549  413.7727 H         1 KU0         0.0525
     49 H12       130.1903  107.7840  414.0909 H         1 KU0         0.0842
     50 H13       126.3188  107.0741  415.4184 H         1 KU0         0.0842
     51 H14       127.5772  103.0045  416.3862 H         1 KU0         0.0845
     52 H15       134.5552  103.3603  414.0080 H         1 KU0         0.0535
     53 H16       134.7509  105.1241  414.2862 H         1 KU0         0.0535
     54 H17       135.4840  104.5791  416.6315 H         1 KU0         0.0524
     55 H18       136.5914  104.0372  415.3251 H         1 KU0         0.0524
     56 H19       132.5381  103.5053  415.0906 H         1 KU0         0.1838
     57 H20       128.1168  104.4069  418.2548 H         1 KU0         0.2537
     58 H21       132.6194  106.3822  418.7032 H         1 KU0         0.2490
@<TRIPOS>BOND
     1   12    1 ar 
     2    1   16 ar 
     3    1   36 1  
     4    2    3 ar 
     5    2    7 ar 
     6   35    2 1  
     7    3    4 ar 
     8    4    5 ar 
     9    6    5 ar 
    10    7    6 ar 
    11    8    9 1  
    12   20    8 2  
    13    8   33 1  
    14    9   27 am 
    15    9   34 2  
    16   10   11 1  
    17   18   10 1  
    18   13   11 1  
    19   12   14 ar 
    20   17   12 1  
    21   24   13 1  
    22   14   15 ar 
    23   14   37 1  
    24   15   28 ar 
    25   16   28 ar 
    26   24   17 am 
    27   17   29 2  
    28   19   18 1  
    29   18   24 1  
    30   25   19 2  
    31   19   27 1  
    32   21   20 1  
    33   20   25 1  
    34   26   21 am 
    35   21   30 2  
    36   23   22 1  
    37   22   26 1  
    38   23   35 1  
    39   35   31 2  
    40   35   32 2  
    41    3   38 1  
    42    4   39 1  
    43    5   40 1  
    44    6   41 1  
    45    7   42 1  
    46   10   43 1  
    47   10   44 1  
    48   11   45 1  
    49   11   46 1  
    50   13   47 1  
    51   13   48 1  
    52   15   49 1  
    53   16   50 1  
    54   18   51 1  
    55   22   52 1  
    56   22   53 1  
    57   23   54 1  
    58   23   55 1  
    59   26   56 1  
    60   27   57 1  
    61   33   58 1  
@<TRIPOS>SUBSTRUCTURE
     1 KU0         1

