### 
### Created by X-TOOL on Mon Sep 10 21:13:33 2018
### 

@<TRIPOS>MOLECULE
5wg3_ligand
   59    63     1     0     0
SMALL
GAST_HUCK


@<TRIPOS>ATOM
      1 C10       -21.9930   27.7380   17.3330 C.ar      1 AFM         0.0922
      2 C13       -24.5520   26.6900   16.9250 C.ar      1 AFM        -0.0261
      3 C17       -23.6510   26.0100   17.7070 C.ar      1 AFM         0.0238
      4 C21       -18.3520   32.0030   18.1330 C.3       1 AFM        -0.0316
      5 C22       -17.7190   30.8170   17.3960 C.3       1 AFM         0.0000
      6 C24       -15.8810   26.8870   16.8390 C.ar      1 AFM         0.0767
      7 C28       -13.3240   24.6740   20.0030 C.2       1 AFM         0.0275
      8 F01       -15.6140   25.2750   15.1140 F         1 AFM        -0.1831
      9 C02       -16.3190   26.2990   15.6700 C.ar      1 AFM         0.1459
     10 C03       -17.4770   26.7480   15.0650 C.ar      1 AFM        -0.0288
     11 C04       -18.1910   27.7930   15.6340 C.ar      1 AFM        -0.0573
     12 C05       -17.7550   28.3950   16.8070 C.ar      1 AFM        -0.0376
     13 C06       -18.5760   29.5940   17.4460 C.3       1 AFM         0.0067
     14 C07       -18.9760   29.2180   18.8370 C.3       1 AFM         0.0390
     15 C08       -20.1320   28.1730   18.7670 C.3       1 AFM         0.0800
     16 O09       -20.7200   28.2920   17.5030 O.3       1 AFM        -0.3173
     17 C11       -22.9110   28.4210   16.5380 C.ar      1 AFM        -0.0331
     18 C12       -24.1800   27.9090   16.3330 C.ar      1 AFM        -0.0679
     19 N14       -25.7000   25.9840   16.8900 N.2       1 AFM        -0.3408
     20 N15       -25.5750   24.8650   17.6260 N.pl3     1 AFM        -0.2459
     21 C16       -24.3540   24.8400   18.1390 C.2       1 AFM         0.1066
     22 C18       -22.3530   26.5290   17.9190 C.ar      1 AFM        -0.0182
     23 C19       -19.5070   30.3900   19.6780 C.3       1 AFM        -0.0263
     24 N20       -18.8050   31.6980   19.5230 N.4       1 AFM         0.2275
     25 C23       -16.5940   27.9370   17.4060 C.ar      1 AFM        -0.0419
     26 C25       -14.5990   26.3870   17.5020 C.2       1 AFM         0.2043
     27 N26       -14.3870   26.5960   18.9270 N.am      1 AFM        -0.2766
     28 C27       -13.1610   26.1250   19.5580 C.3       1 AFM         0.0663
     29 C29       -12.3330   23.8520   20.4750 C.2       1 AFM        -0.0448
     30 C30       -12.9120   22.6240   20.7650 C.2       1 AFM         0.0420
     31 N31       -14.2120   22.7150   20.4730 N.pl3     1 AFM        -0.2309
     32 N32       -14.4370   23.9850   20.0090 N.2       1 AFM        -0.2293
     33 O33       -13.7790   25.8350   16.8540 O.2       1 AFM        -0.3868
     34 H1        -19.2239   32.3416   17.5541 H         1 AFM         0.0815
     35 H2        -17.6088   32.8123   18.1837 H         1 AFM         0.0815
     36 H3        -16.7491   30.5882   17.8617 H         1 AFM         0.0341
     37 H4        -17.5636   31.0969   16.3436 H         1 AFM         0.0341
     38 H5        -17.8266   26.2856   14.1490 H         1 AFM         0.0599
     39 H6        -19.0994   28.1434   15.1574 H         1 AFM         0.0584
     40 H7        -19.4863   29.7747   16.8555 H         1 AFM         0.0461
     41 H8        -18.1031   28.7809   19.3439 H         1 AFM         0.0403
     42 H9        -20.8761   28.3808   19.5500 H         1 AFM         0.0620
     43 H10       -19.7311   27.1576   18.9022 H         1 AFM         0.0620
     44 H11       -22.6290   29.3605   16.0766 H         1 AFM         0.0542
     45 H12       -24.8882   28.4489   15.7149 H         1 AFM         0.0589
     46 H13       -26.3034   24.1505   17.7665 H         1 AFM         0.2934
     47 H14       -23.9517   24.0591   18.7826 H         1 AFM         0.1368
     48 H15       -21.6430   25.9882   18.5342 H         1 AFM         0.0553
     49 H16       -19.4390   30.0986   20.7365 H         1 AFM         0.0819
     50 H17       -20.5620   30.5437   19.4071 H         1 AFM         0.0819
     51 H18       -19.4348   32.4287   19.8153 H         1 AFM         0.2014
     52 H19       -17.9950   31.6925   20.1230 H         1 AFM         0.2014
     53 H20       -16.2396   28.3988   18.3204 H         1 AFM         0.0597
     54 H21       -15.0828   27.0628   19.4728 H         1 AFM         0.1867
     55 H22       -12.3319   26.1939   18.8385 H         1 AFM         0.0667
     56 H23       -12.9390   26.7516   20.4344 H         1 AFM         0.0667
     57 H24       -11.2835   24.1146   20.5996 H         1 AFM         0.0315
     58 H25       -12.3999   21.7471   21.1585 H         1 AFM         0.0974
     59 H26       -14.9149   21.9694   20.5771 H         1 AFM         0.2525
@<TRIPOS>BOND
     1   16    1 1  
     2    1   17 ar 
     3    1   22 ar 
     4    3    2 ar 
     5   18    2 ar 
     6    2   19 2  
     7    3   21 2  
     8   22    3 ar 
     9    5    4 1  
    10    4   24 1  
    11   13    5 1  
    12    6    9 ar 
    13    6   25 ar 
    14   26    6 1  
    15   28    7 1  
    16    7   29 1  
    17    7   32 2  
    18    9    8 1  
    19    9   10 ar 
    20   10   11 ar 
    21   12   11 ar 
    22   12   13 1  
    23   25   12 ar 
    24   13   14 1  
    25   14   15 1  
    26   14   23 1  
    27   15   16 1  
    28   17   18 ar 
    29   20   19 1  
    30   21   20 1  
    31   23   24 1  
    32   27   26 am 
    33   26   33 2  
    34   27   28 1  
    35   29   30 2  
    36   30   31 1  
    37   31   32 1  
    38    4   34 1  
    39    4   35 1  
    40    5   36 1  
    41    5   37 1  
    42   10   38 1  
    43   11   39 1  
    44   13   40 1  
    45   14   41 1  
    46   15   42 1  
    47   15   43 1  
    48   17   44 1  
    49   18   45 1  
    50   20   46 1  
    51   21   47 1  
    52   22   48 1  
    53   23   49 1  
    54   23   50 1  
    55   24   51 1  
    56   24   52 1  
    57   25   53 1  
    58   27   54 1  
    59   28   55 1  
    60   28   56 1  
    61   29   57 1  
    62   30   58 1  
    63   31   59 1  
@<TRIPOS>SUBSTRUCTURE
     1 AFM         1

