### 
### Created by X-TOOL on Mon Sep 10 21:13:34 2018
### 

@<TRIPOS>MOLECULE
5wg4_ligand
   61    65     1     0     0
SMALL
GAST_HUCK


@<TRIPOS>ATOM
      1 C         -16.4410   26.2180   15.9400 C.ar      1 AFV         0.1459
      2 N         -25.9760   25.8590   17.0810 N.2       1 AFV        -0.3408
      3 C1        -17.7880   26.5120   15.2840 C.ar      1 AFV        -0.0288
      4 O1        -13.7570   26.2820   16.8930 O.2       1 AFV        -0.3868
      5 C2        -18.5040   27.5440   15.6820 C.ar      1 AFV        -0.0573
      6 O         -20.9250   28.2420   17.4380 O.3       1 AFV        -0.3173
      7 N1        -25.7590   24.7640   17.8440 N.pl3     1 AFV        -0.2459
      8 N2        -18.3320   31.5600   19.3990 N.4       1 AFV         0.2275
      9 C3        -17.9870   28.4490   16.7970 C.ar      1 AFV        -0.0376
     10 N3        -14.4360   26.9850   18.9640 N.am      1 AFV        -0.2732
     11 C4        -18.8140   29.6520   17.2620 C.3       1 AFV         0.0067
     12 N4        -11.6070   24.6780   20.0490 N.ar      1 AFV        -0.2960
     13 C5        -19.2420   29.4090   18.7060 C.3       1 AFV         0.0390
     14 C6        -20.5880   28.6360   18.7400 C.3       1 AFV         0.0800
     15 C7        -22.2170   27.7210   17.2980 C.ar      1 AFV         0.0922
     16 C8        -23.1730   28.4140   16.5170 C.ar      1 AFV        -0.0331
     17 C9        -24.4580   27.8930   16.3710 C.ar      1 AFV        -0.0679
     18 C10       -24.7710   26.7150   16.9860 C.ar      1 AFV        -0.0261
     19 C11       -24.5630   24.9100   18.1880 C.2       1 AFV         0.1066
     20 C12       -23.8090   25.9960   17.7840 C.ar      1 AFV         0.0238
     21 C13       -22.5420   26.5090   17.9270 C.ar      1 AFV        -0.0182
     22 C14       -19.4390   30.6830   19.4570 C.3       1 AFV        -0.0263
     23 C15       -18.2680   32.1070   18.0600 C.3       1 AFV        -0.0316
     24 C16       -17.9440   30.9150   17.0700 C.3       1 AFV         0.0000
     25 C17       -16.8230   28.1970   17.3630 C.ar      1 AFV        -0.0419
     26 C18       -15.9990   26.9950   16.9040 C.ar      1 AFV         0.0768
     27 C19       -14.6430   26.7140   17.5520 C.2       1 AFV         0.2047
     28 C20       -13.1370   26.7240   19.5570 C.3       1 AFV         0.0792
     29 C21       -12.9670   25.2360   19.8360 C.ar      1 AFV         0.0502
     30 C22       -11.4580   23.4250   20.2850 C.ar      1 AFV         0.0028
     31 C23       -12.6760   22.5140   20.3470 C.ar      1 AFV        -0.0410
     32 C24       -13.8490   22.9920   20.1650 C.ar      1 AFV        -0.0488
     33 C25       -14.0220   24.4500   19.8900 C.ar      1 AFV        -0.0304
     34 F         -15.6970   25.1480   15.5290 F         1 AFV        -0.1831
     35 H1        -18.1554   25.8714   14.4905 H         1 AFV         0.0599
     36 H2        -19.4612   27.7505   15.2171 H         1 AFV         0.0584
     37 H3        -26.4112   24.0031   18.0820 H         1 AFV         0.2934
     38 H4        -17.4839   31.0552   19.6037 H         1 AFV         0.2014
     39 H5        -18.4495   32.3048   20.0680 H         1 AFV         0.2014
     40 H6        -15.1817   27.3481   19.5226 H         1 AFV         0.1873
     41 H7        -19.7167   29.7476   16.6407 H         1 AFV         0.0461
     42 H8        -18.4640   28.8136   19.2062 H         1 AFV         0.0403
     43 H9        -20.4855   27.7465   19.3789 H         1 AFV         0.0620
     44 H10       -21.3768   29.2881   19.1431 H         1 AFV         0.0620
     45 H11       -22.9067   29.3471   16.0338 H         1 AFV         0.0542
     46 H12       -25.1986   28.4163   15.7771 H         1 AFV         0.0589
     47 H13       -24.1026   24.1570   18.8259 H         1 AFV         0.1368
     48 H14       -21.8017   25.9833   18.5191 H         1 AFV         0.0553
     49 H15       -20.3135   31.2010   19.0364 H         1 AFV         0.0819
     50 H16       -19.6308   30.4369   20.5118 H         1 AFV         0.0819
     51 H17       -17.4753   32.8675   18.0031 H         1 AFV         0.0815
     52 H18       -19.2333   32.5629   17.7947 H         1 AFV         0.0815
     53 H19       -18.0895   31.2766   16.0414 H         1 AFV         0.0341
     54 H20       -16.8914   30.6293   17.2128 H         1 AFV         0.0341
     55 H21       -16.4517   28.8410   18.1519 H         1 AFV         0.0597
     56 H22       -13.0516   27.2814   20.5015 H         1 AFV         0.0713
     57 H23       -12.3496   27.0545   18.8637 H         1 AFV         0.0713
     58 H24       -10.4661   23.0162   20.4399 H         1 AFV         0.0803
     59 H25       -12.5492   21.4560   20.5461 H         1 AFV         0.0652
     60 H26       -14.7145   22.3409   20.2103 H         1 AFV         0.0719
     61 H27       -15.0135   24.8599   19.7353 H         1 AFV         0.0652
@<TRIPOS>BOND
     1    1    3 ar 
     2   26    1 ar 
     3    1   34 1  
     4    7    2 1  
     5   18    2 2  
     6    3    5 ar 
     7   27    4 2  
     8    9    5 ar 
     9   14    6 1  
    10    6   15 1  
    11   19    7 1  
    12   22    8 1  
    13   23    8 1  
    14    9   11 1  
    15   25    9 ar 
    16   10   27 am 
    17   28   10 1  
    18   11   13 1  
    19   11   24 1  
    20   29   12 ar 
    21   12   30 ar 
    22   13   14 1  
    23   13   22 1  
    24   15   16 ar 
    25   15   21 ar 
    26   16   17 ar 
    27   17   18 ar 
    28   20   18 ar 
    29   20   19 2  
    30   21   20 ar 
    31   24   23 1  
    32   26   25 ar 
    33   27   26 1  
    34   28   29 1  
    35   29   33 ar 
    36   30   31 ar 
    37   31   32 ar 
    38   32   33 ar 
    39    3   35 1  
    40    5   36 1  
    41    7   37 1  
    42    8   38 1  
    43    8   39 1  
    44   10   40 1  
    45   11   41 1  
    46   13   42 1  
    47   14   43 1  
    48   14   44 1  
    49   16   45 1  
    50   17   46 1  
    51   19   47 1  
    52   21   48 1  
    53   22   49 1  
    54   22   50 1  
    55   23   51 1  
    56   23   52 1  
    57   24   53 1  
    58   24   54 1  
    59   25   55 1  
    60   28   56 1  
    61   28   57 1  
    62   30   58 1  
    63   31   59 1  
    64   32   60 1  
    65   33   61 1  
@<TRIPOS>SUBSTRUCTURE
     1 AFV         1

