### 
### Created by X-TOOL on Mon Sep 10 21:13:32 2018
### 

@<TRIPOS>MOLECULE
5wg5_ligand
   45    48     1     0     0
SMALL
GAST_HUCK


@<TRIPOS>ATOM
      1 F         -14.9340   24.7320   15.8140 F         1 ZSO        -0.1893
      2 C         -15.5750   25.8280   16.2520 C.ar      1 ZSO         0.1248
      3 C5        -15.3000   26.3360   17.5170 C.ar      1 ZSO        -0.0349
      4 C4        -15.9620   27.4720   17.9690 C.ar      1 ZSO        -0.0617
      5 C3        -16.8960   28.0990   17.1530 C.ar      1 ZSO        -0.0431
      6 C2        -17.1690   27.5910   15.8880 C.ar      1 ZSO        -0.0617
      7 C1        -16.5070   26.4560   15.4360 C.ar      1 ZSO        -0.0349
      8 C6        -17.6120   29.3080   17.6220 C.3       1 ZSO         0.0057
      9 C10       -18.2340   29.0460   18.9850 C.3       1 ZSO         0.0385
     10 C9        -18.9250   30.3070   19.4820 C.3       1 ZSO        -0.0263
     11 N         -17.9640   31.4230   19.5500 N.4       1 ZSO         0.2275
     12 C8        -17.4270   31.7290   18.2110 C.3       1 ZSO        -0.0316
     13 C7        -16.6810   30.5140   17.6710 C.3       1 ZSO        -0.0000
     14 C11       -19.2580   27.9260   18.8810 C.3       1 ZSO         0.0777
     15 O         -19.9010   28.0400   17.6120 O.3       1 ZSO        -0.3245
     16 C12       -21.1270   27.4740   17.3960 C.ar      1 ZSO         0.0795
     17 C18       -21.5020   26.3290   18.0890 C.ar      1 ZSO        -0.0383
     18 C17       -22.7520   25.7730   17.8540 C.ar      1 ZSO        -0.0008
     19 C15       -23.6120   26.3490   16.9440 C.ar      1 ZSO         0.0786
     20 C14       -23.2460   27.4910   16.2450 C.ar      1 ZSO        -0.0403
     21 C13       -21.9950   28.0520   16.4740 C.ar      1 ZSO        -0.0391
     22 C16       -23.3120   24.6120   18.4690 C.2       1 ZSO         0.0174
     23 N2        -24.5320   24.5210   17.8890 N.2       1 ZSO        -0.2084
     24 N1        -24.7120   25.5760   16.9630 N.pl3     1 ZSO        -0.2178
     25 H1        -14.5695   25.8463   18.1507 H         1 ZSO         0.0587
     26 H2        -15.7501   27.8677   18.9557 H         1 ZSO         0.0547
     27 H3        -17.8990   28.0808   15.2537 H         1 ZSO         0.0547
     28 H4        -16.7176   26.0615   14.4485 H         1 ZSO         0.0587
     29 H5        -18.4203   29.5290   16.9094 H         1 ZSO         0.0461
     30 H6        -17.4455   28.7557   19.6949 H         1 ZSO         0.0403
     31 H7        -19.3392   30.1230   20.4843 H         1 ZSO         0.0819
     32 H8        -19.7395   30.5709   18.7914 H         1 ZSO         0.0819
     33 H9        -17.2040   31.1687   20.1614 H         1 ZSO         0.2014
     34 H10       -18.4297   32.2393   19.9144 H         1 ZSO         0.2014
     35 H11       -16.7363   32.5823   18.2795 H         1 ZSO         0.0815
     36 H12       -18.2555   31.9814   17.5329 H         1 ZSO         0.0815
     37 H13       -16.3150   30.7327   16.6570 H         1 ZSO         0.0341
     38 H14       -15.8281   30.2890   18.3282 H         1 ZSO         0.0341
     39 H15       -20.0006   28.0218   19.6868 H         1 ZSO         0.0616
     40 H16       -18.7553   26.9507   18.9596 H         1 ZSO         0.0616
     41 H17       -20.8260   25.8754   18.8048 H         1 ZSO         0.0483
     42 H18       -23.9266   27.9393   15.5302 H         1 ZSO         0.0544
     43 H19       -21.6945   28.9421   15.9331 H         1 ZSO         0.0532
     44 H20       -22.8672   23.9604   19.2196 H         1 ZSO         0.0703
     45 H21       -25.5555   25.7282   16.3918 H         1 ZSO         0.2431
@<TRIPOS>BOND
     1    1    2 1  
     2    2    3 ar 
     3    2    7 ar 
     4    3    4 ar 
     5    4    5 ar 
     6    5    6 ar 
     7    5    8 1  
     8    6    7 ar 
     9    8    9 1  
    10    8   13 1  
    11    9   10 1  
    12    9   14 1  
    13   10   11 1  
    14   11   12 1  
    15   12   13 1  
    16   14   15 1  
    17   15   16 1  
    18   16   17 ar 
    19   16   21 ar 
    20   17   18 ar 
    21   18   19 ar 
    22   18   22 1  
    23   19   20 ar 
    24   19   24 1  
    25   20   21 ar 
    26   22   23 2  
    27   23   24 1  
    28    3   25 1  
    29    4   26 1  
    30    6   27 1  
    31    7   28 1  
    32    8   29 1  
    33    9   30 1  
    34   10   31 1  
    35   10   32 1  
    36   11   33 1  
    37   11   34 1  
    38   12   35 1  
    39   12   36 1  
    40   13   37 1  
    41   13   38 1  
    42   14   39 1  
    43   14   40 1  
    44   17   41 1  
    45   20   42 1  
    46   21   43 1  
    47   22   44 1  
    48   24   45 1  
@<TRIPOS>SUBSTRUCTURE
     1 ZSO         1

