### 
### Created by X-TOOL on Wed Jan  1 15:39:38 2020
### 

@<TRIPOS>MOLECULE
5wg6_ligand
   78    82     1     0     0
SMALL
GAST_HUCK


@<TRIPOS>ATOM
      1 C24       -81.0680    1.9100  -55.0910 C.ar      1 A9G        -0.0518
      2 C25       -81.3420    2.8270  -56.1320 C.ar      1 A9G        -0.0266
      3 C26       -82.6430    2.9030  -56.8830 C.ar      1 A9G        -0.0092
      4 C28       -84.0930    3.5650  -58.7840 C.ar      1 A9G        -0.0159
      5 C27       -82.8490    3.5210  -58.1310 C.ar      1 A9G        -0.0478
      6 C20       -83.2830    2.2080  -46.7640 C.3       1 A9G         0.0056
      7 C19       -82.6480    1.5280  -47.9580 C.2       1 A9G         0.0687
      8 C22       -82.8500    0.4130  -49.9940 C.2       1 A9G         0.1873
      9 C18       -81.2600    1.4160  -48.0770 C.2       1 A9G        -0.0510
     10 C17       -79.2010    0.7030  -49.2680 C.3       1 A9G        -0.0403
     11 C16       -80.6760    0.7930  -49.1840 C.2       1 A9G        -0.0723
     12 C11       -79.6830    0.7740  -53.2490 C.2       1 A9G         0.1977
     13 C10       -79.8850    1.8110  -54.3820 C.ar      1 A9G         0.0358
     14 C15       -81.4640    0.2590  -50.1830 C.2       1 A9G         0.0145
     15 C14       -80.9130   -0.4150  -51.3900 C.3       1 A9G         0.0484
     16 C01       -75.9310    6.8280  -58.2680 C.3       1 A9G        -0.0626
     17 C02       -76.2780    5.5480  -57.5050 C.3       1 A9G        -0.0270
     18 C03       -77.7010    5.5670  -56.8850 C.3       1 A9G         0.0572
     19 C04       -77.8940    6.9600  -56.2510 C.3       1 A9G        -0.0360
     20 C06       -76.9820    4.0140  -54.9960 C.2       1 A9G         0.0224
     21 C07       -77.4580    2.9690  -54.2290 C.2       1 A9G        -0.0451
     22 C08       -76.6250    2.3260  -53.1650 C.3       1 A9G        -0.0479
     23 C09       -78.8120    2.7050  -54.6800 C.ar      1 A9G        -0.0035
     24 C29       -85.2530    2.9770  -58.2220 C.ar      1 A9G         0.1142
     25 C31       -86.8420    2.3460  -60.2220 C.3       1 A9G         0.0699
     26 C32       -87.8910    1.2030  -60.1460 C.3       1 A9G        -0.0129
     27 C34       -88.8740    2.2360  -58.1750 C.3       1 A9G        -0.0129
     28 C35       -87.8400    3.3790  -58.2600 C.3       1 A9G         0.0699
     29 C37       -83.8610    2.3510  -56.4120 C.ar      1 A9G         0.0028
     30 C38       -80.3070    3.6880  -56.4190 C.ar      1 A9G        -0.0323
     31 C39       -79.0840    3.6470  -55.7430 C.ar      1 A9G         0.0684
     32 N05       -77.9380    4.4490  -55.9180 N.pl3     1 A9G        -0.2698
     33 N13       -80.8950    0.5420  -52.5070 N.am      1 A9G        -0.2837
     34 N21       -83.4570    1.0200  -48.9300 N.am      1 A9G        -0.2246
     35 N30       -86.5340    3.0490  -58.9320 N.pl3     1 A9G        -0.2839
     36 N33       -89.1330    1.6860  -59.5270 N.4       1 A9G         0.2298
     37 N36       -85.0870    2.3650  -56.9990 N.ar      1 A9G        -0.2846
     38 O12       -78.6680    0.2270  -53.0290 O.2       1 A9G        -0.3885
     39 O23       -83.6360   -0.0860  -50.9440 O.2       1 A9G        -0.4303
     40 H1        -81.8599    1.2197  -54.8237 H         1 A9G         0.0576
     41 H2        -84.1668    4.0626  -59.7442 H         1 A9G         0.0610
     42 H3        -82.0002    3.9895  -58.6159 H         1 A9G         0.0697
     43 H4        -82.4959    2.5580  -46.0799 H         1 A9G         0.0478
     44 H5        -83.9343    1.4939  -46.2388 H         1 A9G         0.0478
     45 H6        -83.8802    3.0663  -47.1055 H         1 A9G         0.0478
     46 H7        -80.6218    1.8214  -47.2932 H         1 A9G         0.0211
     47 H8        -78.7535    1.1824  -48.3848 H         1 A9G         0.0382
     48 H9        -78.8537    1.2141  -50.1780 H         1 A9G         0.0382
     49 H10       -78.8996   -0.3543  -49.3035 H         1 A9G         0.0382
     50 H11       -81.5451   -1.2761  -51.6524 H         1 A9G         0.0586
     51 H12       -79.8893   -0.7608  -51.1842 H         1 A9G         0.0586
     52 H13       -74.9138    6.7458  -58.6785 H         1 A9G         0.0231
     53 H14       -75.9819    7.6879  -57.5839 H         1 A9G         0.0231
     54 H15       -76.6477    6.9705  -59.0902 H         1 A9G         0.0231
     55 H16       -75.5462    5.4159  -56.6945 H         1 A9G         0.0291
     56 H17       -76.2120    4.6985  -58.2007 H         1 A9G         0.0291
     57 H18       -78.4331    5.4522  -57.6979 H         1 A9G         0.0630
     58 H19       -78.8939    7.0207  -55.7966 H         1 A9G         0.0258
     59 H20       -77.7966    7.7330  -57.0275 H         1 A9G         0.0258
     60 H21       -77.1292    7.1197  -55.4767 H         1 A9G         0.0258
     61 H22       -75.9870    4.4449  -54.8951 H         1 A9G         0.0824
     62 H23       -75.6399    2.8139  -53.1257 H         1 A9G         0.0314
     63 H24       -76.4963    1.2581  -53.3953 H         1 A9G         0.0314
     64 H25       -77.1264    2.4334  -52.1918 H         1 A9G         0.0314
     65 H26       -87.2154    3.0976  -60.9330 H         1 A9G         0.0573
     66 H27       -85.9037    1.9158  -60.6022 H         1 A9G         0.0573
     67 H28       -87.4838    0.3771  -59.5442 H         1 A9G         0.0834
     68 H29       -88.1090    0.8433  -61.1624 H         1 A9G         0.0834
     69 H30       -89.8129    2.6245  -57.7537 H         1 A9G         0.0834
     70 H31       -88.4831    1.4385  -57.5260 H         1 A9G         0.0834
     71 H32       -87.6157    3.7049  -57.2336 H         1 A9G         0.0573
     72 H33       -88.3023    4.2084  -58.8153 H         1 A9G         0.0573
     73 H34       -83.8073    1.8492  -55.4526 H         1 A9G         0.0782
     74 H35       -80.4457    4.4269  -57.1999 H         1 A9G         0.0582
     75 H36       -81.7299    1.0346  -52.7526 H         1 A9G         0.1856
     76 H37       -84.4527    1.0884  -48.8676 H         1 A9G         0.2510
     77 H38       -89.7836    0.9197  -59.4520 H         1 A9G         0.2015
     78 H39       -89.5305    2.4088  -60.1062 H         1 A9G         0.2015
@<TRIPOS>BOND
     1    2    1 ar 
     2    1   13 ar 
     3    3    2 1  
     4    2   30 ar 
     5    5    3 ar 
     6    3   29 ar 
     7    4    5 ar 
     8   24    4 ar 
     9    7    6 1  
    10    9    7 2  
    11   34    7 am 
    12   14    8 1  
    13    8   34 am 
    14    8   39 2  
    15   11    9 1  
    16   11   10 1  
    17   14   11 2  
    18   13   12 1  
    19   12   33 am 
    20   12   38 2  
    21   13   23 ar 
    22   15   14 1  
    23   33   15 1  
    24   17   16 1  
    25   18   17 1  
    26   18   19 1  
    27   32   18 1  
    28   21   20 2  
    29   20   32 1  
    30   21   22 1  
    31   23   21 1  
    32   23   31 ar 
    33   35   24 1  
    34   24   37 ar 
    35   26   25 1  
    36   25   35 1  
    37   36   26 1  
    38   27   28 1  
    39   27   36 1  
    40   28   35 1  
    41   29   37 ar 
    42   30   31 ar 
    43   31   32 1  
    44    1   40 1  
    45    4   41 1  
    46    5   42 1  
    47    6   43 1  
    48    6   44 1  
    49    6   45 1  
    50    9   46 1  
    51   10   47 1  
    52   10   48 1  
    53   10   49 1  
    54   15   50 1  
    55   15   51 1  
    56   16   52 1  
    57   16   53 1  
    58   16   54 1  
    59   17   55 1  
    60   17   56 1  
    61   18   57 1  
    62   19   58 1  
    63   19   59 1  
    64   19   60 1  
    65   20   61 1  
    66   22   62 1  
    67   22   63 1  
    68   22   64 1  
    69   25   65 1  
    70   25   66 1  
    71   26   67 1  
    72   26   68 1  
    73   27   69 1  
    74   27   70 1  
    75   28   71 1  
    76   28   72 1  
    77   29   73 1  
    78   30   74 1  
    79   33   75 1  
    80   34   76 1  
    81   36   77 1  
    82   36   78 1  
@<TRIPOS>SUBSTRUCTURE
     1 A9G         1

