### 
### Created by X-TOOL on Wed Jan  1 15:39:34 2020
### 

@<TRIPOS>MOLECULE
5wg7_ligand
   15    15     1     0     0
SMALL
GAST_HUCK


@<TRIPOS>ATOM
      1 CAJ        -1.9930    7.5400   84.0250 C.3       1 AUD         0.0134
      2 CAC        -1.7300    6.4630   85.0640 C.2       1 AUD         0.1270
      3 OAB        -2.8490    5.7270   85.6100 O.3       1 AUD        -0.1275
      4 SAA        -2.5780    4.9640   86.9630 S.o2      1 AUD         0.2103
      5 OAG        -3.4600    3.7910   86.9680 O.2       1 AUD        -0.1165
      6 OAH        -2.7580    5.9810   87.9960 O.2       1 AUD        -0.1165
      7 NAF        -1.1300    4.3310   87.1160 N.am      1 AUD        -0.1406
      8 CAE        -0.1050    4.8200   86.2900 C.2       1 AUD         0.1736
      9 OAI         0.9960    4.3920   86.3550 O.2       1 AUD        -0.4181
     10 CAD        -0.4210    5.9920   85.2540 C.2       1 AUD         0.0113
     11 H1         -1.0395    7.9957   83.7199 H         1 AUD         0.0502
     12 H2         -2.6475    8.3124   84.4551 H         1 AUD         0.0502
     13 H3         -2.4824    7.0916   83.1478 H         1 AUD         0.0502
     14 H4         -0.9531    3.6054   87.7810 H         1 AUD         0.2136
     15 H5          0.3941    6.4349   84.6836 H         1 AUD         0.0196
@<TRIPOS>BOND
     1    1    2 1  
     2    2    3 1  
     3    2   10 2  
     4    3    4 1  
     5    4    5 2  
     6    4    6 2  
     7    4    7 am 
     8    7    8 am 
     9    8    9 2  
    10    8   10 1  
    11    1   11 1  
    12    1   12 1  
    13    1   13 1  
    14    7   14 1  
    15   10   15 1  
@<TRIPOS>SUBSTRUCTURE
     1 AUD         1

