### 
### Created by X-TOOL on Mon Aug  2 16:12:17 2021
### 

@<TRIPOS>MOLECULE
5wg8_ligand
   25    26     1     0     0
SMALL
GAST_HUCK


@<TRIPOS>ATOM
      1 C10         4.5070   -1.9320   -9.9620 C.3       1 LB1         0.0157
      2 C13         2.8930   -0.3520  -11.1600 C.3       1 LB1         0.0498
      3 C07         3.9470   -0.5080  -10.0910 C.3       1 LB1         0.0157
      4 C08         5.2080    0.2990  -10.4760 C.3       1 LB1         0.0644
      5 C09         5.9990   -1.6910  -10.2260 C.3       1 LB1         0.0644
      6 C11         6.1410    0.4880   -9.2750 C.3       1 LB1        -0.0239
      7 C12         6.6500   -0.9470   -9.0560 C.3       1 LB1        -0.0239
      8 C14         3.9890   -2.9630  -10.9420 C.3       1 LB1         0.0498
      9 O01         5.9680   -0.6670  -11.2490 O.3       1 LB1        -0.3726
     10 O02         3.2080   -0.7620  -12.2830 O.3       1 LB1        -0.3946
     11 O04         4.6710   -3.2480  -11.9310 O.3       1 LB1        -0.3946
     12 H1          4.3352   -2.3084   -8.9428 H         1 LB1         0.0352
     13 H2          2.6528    0.7180  -11.2452 H         1 LB1         0.0561
     14 H3          1.9982   -0.9041  -10.8366 H         1 LB1         0.0561
     15 H4          3.5329   -0.1696   -9.1298 H         1 LB1         0.0352
     16 H5          4.9735    1.2387  -10.9975 H         1 LB1         0.0600
     17 H6          6.5383   -2.6080  -10.5057 H         1 LB1         0.0600
     18 H7          5.5944    0.8594   -8.3956 H         1 LB1         0.0291
     19 H8          6.9663    1.1758   -9.5112 H         1 LB1         0.0291
     20 H9          7.7475   -0.9956   -9.1111 H         1 LB1         0.0291
     21 H10         6.3133   -1.3483   -8.0888 H         1 LB1         0.0291
     22 H11         3.0210   -2.5958  -11.3137 H         1 LB1         0.0561
     23 H12         3.8356   -3.8947  -10.3777 H         1 LB1         0.0561
     24 H13         3.9725   -0.2882  -12.5889 H         1 LB1         0.2094
     25 H14         4.8068   -2.4680  -12.4560 H         1 LB1         0.2094
@<TRIPOS>BOND
     1    1    3 1  
     2    1    5 1  
     3    1    8 1  
     4    3    2 1  
     5    2   10 1  
     6    3    4 1  
     7    4    6 1  
     8    4    9 1  
     9    5    7 1  
    10    5    9 1  
    11    6    7 1  
    12    8   11 1  
    13    1   12 1  
    14    2   13 1  
    15    2   14 1  
    16    3   15 1  
    17    4   16 1  
    18    5   17 1  
    19    6   18 1  
    20    6   19 1  
    21    7   20 1  
    22    7   21 1  
    23    8   22 1  
    24    8   23 1  
    25   10   24 1  
    26   11   25 1  
@<TRIPOS>SUBSTRUCTURE
     1 LB1         1

