### 
### Created by X-TOOL on Wed Jan  1 15:39:37 2020
### 

@<TRIPOS>MOLECULE
5wg9_ligand
   63    66     1     0     0
SMALL
GAST_HUCK


@<TRIPOS>ATOM
      1 C1        492.3570  196.7140  553.7600 C.2       1 KU4         0.2603
      2 C10       493.7240  194.2270  544.4430 C.ar      1 KU4        -0.0729
      3 C11       493.5760  193.1150  545.2380 C.ar      1 KU4        -0.0706
      4 C12       494.2330  193.0240  546.4550 C.ar      1 KU4        -0.0331
      5 C13       492.0480  194.7230  552.4470 C.2       1 KU4         0.1641
      6 C14       491.2340  193.5090  552.0440 C.3       1 KU4         0.1312
      7 C15       491.1200  193.1860  549.5840 C.2       1 KU4         0.1834
      8 C16       489.8480  193.9950  549.5650 C.3       1 KU4         0.0473
      9 C17       489.9080  195.1930  548.6340 C.3       1 KU4        -0.0016
     10 C18       491.0980  196.0860  548.8830 C.ar      1 KU4        -0.0267
     11 C19       492.2930  195.9330  548.1840 C.ar      1 KU4        -0.0596
     12 C2        493.5950  196.8560  553.1370 C.2       1 KU4         0.1828
     13 C20       493.3750  196.7590  548.4150 C.ar      1 KU4        -0.0684
     14 C21       493.2880  197.7600  549.3540 C.ar      1 KU4        -0.0682
     15 C22       492.1260  197.9400  550.0620 C.ar      1 KU4        -0.0546
     16 C23       491.0450  197.1090  549.8240 C.ar      1 KU4         0.0413
     17 C24       492.7030  191.8780  550.9970 C.3       1 KU4         0.0377
     18 C25       492.8250  191.8210  552.5090 C.3       1 KU4        -0.0274
     19 C26       491.4570  192.3040  552.9690 C.3       1 KU4        -0.0084
     20 C3        494.0020  195.9380  552.2150 C.2       1 KU4         0.1060
     21 C4        495.3390  196.0510  551.5310 C.2       1 KU4         0.2003
     22 C5        496.8470  194.9810  549.9150 C.3       1 KU4         0.0577
     23 C6        496.5900  195.0550  548.4310 C.3       1 KU4         0.0903
     24 C7        495.0470  194.0670  546.8700 C.ar      1 KU4         0.0912
     25 C8        495.1990  195.1900  546.0710 C.ar      1 KU4        -0.0331
     26 C9        494.5320  195.2590  544.8580 C.ar      1 KU4        -0.0706
     27 N1        495.6160  195.0600  550.6850 N.am      1 KU4        -0.2858
     28 N2        493.2430  194.8860  551.8750 N.2       1 KU4        -0.3043
     29 N3        491.6720  192.9030  550.7750 N.am      1 KU4        -0.2491
     30 N4        491.6020  195.6180  553.3900 N.am      1 KU4        -0.1947
     31 O1        491.9190  197.5050  554.6100 O.2       1 KU4        -0.3954
     32 O2        494.3260  197.9170  553.5080 O.3       1 KU4        -0.3268
     33 O3        495.7000  193.9930  548.0730 O.3       1 KU4        -0.3160
     34 O4        496.1010  196.9870  551.7660 O.2       1 KU4        -0.3921
     35 O5        491.6360  192.7610  548.5550 O.2       1 KU4        -0.3965
     36 CL1       489.5830  197.3730  550.7430 Cl        1 KU4        -0.0772
     37 H1        493.2058  194.2897  543.4930 H         1 KU4         0.0523
     38 H2        492.9392  192.3015  544.9097 H         1 KU4         0.0589
     39 H3        494.1115  192.1447  547.0772 H         1 KU4         0.0542
     40 H4        490.1727  193.7955  552.0053 H         1 KU4         0.0845
     41 H5        489.6492  194.3559  550.5849 H         1 KU4         0.0525
     42 H6        489.0245  193.3421  549.2401 H         1 KU4         0.0525
     43 H7        488.9920  195.7867  548.7701 H         1 KU4         0.0452
     44 H8        489.9573  194.8273  547.5978 H         1 KU4         0.0452
     45 H9        492.3754  195.1474  547.4416 H         1 KU4         0.0557
     46 H10       494.2932  196.6185  547.8562 H         1 KU4         0.0601
     47 H11       494.1382  198.4076  549.5352 H         1 KU4         0.0559
     48 H12       492.0553  198.7281  550.8029 H         1 KU4         0.0605
     49 H13       492.3853  190.9063  550.5911 H         1 KU4         0.0525
     50 H14       493.6571  192.1736  550.5363 H         1 KU4         0.0525
     51 H15       493.6232  192.4870  552.8687 H         1 KU4         0.0288
     52 H16       493.0206  190.7948  552.8535 H         1 KU4         0.0288
     53 H17       490.6868  191.5333  552.8184 H         1 KU4         0.0321
     54 H18       491.4718  192.6060  554.0266 H         1 KU4         0.0321
     55 H19       497.5012  195.8166  550.2044 H         1 KU4         0.0545
     56 H20       497.3473  194.0280  550.1418 H         1 KU4         0.0545
     57 H21       497.5380  194.9455  547.8839 H         1 KU4         0.0634
     58 H22       496.1321  196.0235  548.1811 H         1 KU4         0.0634
     59 H23       495.8344  196.0074  546.3925 H         1 KU4         0.0542
     60 H24       494.6486  196.1352  544.2304 H         1 KU4         0.0589
     61 H25       494.9408  194.3309  550.5734 H         1 KU4         0.1839
     62 H26       490.7101  195.4723  553.8182 H         1 KU4         0.2537
     63 H27       495.1491  197.6195  553.8774 H         1 KU4         0.2490
@<TRIPOS>BOND
     1   12    1 1  
     2    1   30 am 
     3    1   31 2  
     4    3    2 ar 
     5    2   26 ar 
     6    4    3 ar 
     7   24    4 ar 
     8    5    6 1  
     9   28    5 2  
    10    5   30 1  
    11    6   19 1  
    12    6   29 1  
    13    7    8 1  
    14   29    7 am 
    15    7   35 2  
    16    8    9 1  
    17    9   10 1  
    18   10   11 ar 
    19   10   16 ar 
    20   11   13 ar 
    21   20   12 2  
    22   12   32 1  
    23   13   14 ar 
    24   15   14 ar 
    25   16   15 ar 
    26   16   36 1  
    27   17   18 1  
    28   29   17 1  
    29   19   18 1  
    30   21   20 1  
    31   20   28 1  
    32   27   21 am 
    33   21   34 2  
    34   23   22 1  
    35   22   27 1  
    36   33   23 1  
    37   24   25 ar 
    38   24   33 1  
    39   25   26 ar 
    40    2   37 1  
    41    3   38 1  
    42    4   39 1  
    43    6   40 1  
    44    8   41 1  
    45    8   42 1  
    46    9   43 1  
    47    9   44 1  
    48   11   45 1  
    49   13   46 1  
    50   14   47 1  
    51   15   48 1  
    52   17   49 1  
    53   17   50 1  
    54   18   51 1  
    55   18   52 1  
    56   19   53 1  
    57   19   54 1  
    58   22   55 1  
    59   22   56 1  
    60   23   57 1  
    61   23   58 1  
    62   25   59 1  
    63   26   60 1  
    64   27   61 1  
    65   30   62 1  
    66   32   63 1  
@<TRIPOS>SUBSTRUCTURE
     1 KU4         1

