### 
### Created by X-TOOL on Wed Jan  1 15:39:35 2020
### 

@<TRIPOS>MOLECULE
5wgp_ligand
   15    15     1     0     0
SMALL
GAST_HUCK


@<TRIPOS>ATOM
      1 CAJ        -1.3280    6.7000   84.4870 C.3       1 AUD         0.0134
      2 CAC        -1.3350    5.3380   85.1550 C.2       1 AUD         0.1270
      3 OAB        -2.4410    4.9930   86.0240 O.3       1 AUD        -0.1275
      4 SAA        -2.3650    3.6090   86.7840 S.o2      1 AUD         0.2103
      5 OAG        -3.7510    3.2730   87.0720 O.2       1 AUD        -0.1165
      6 OAH        -1.4610    3.8270   87.8990 O.2       1 AUD        -0.1165
      7 NAF        -1.7140    2.4750   85.8840 N.am      1 AUD        -0.1406
      8 CAE        -0.7240    2.8390   84.9550 C.2       1 AUD         0.1736
      9 OAI        -0.1900    2.0230   84.2670 O.2       1 AUD        -0.4181
     10 CAD        -0.3600    4.3830   84.8060 C.2       1 AUD         0.0113
     11 H1         -0.4252    6.7994   83.8664 H         1 AUD         0.0502
     12 H2         -1.3322    7.4859   85.2566 H         1 AUD         0.0502
     13 H3         -2.2214    6.8023   83.8535 H         1 AUD         0.0502
     14 H4         -2.0021    1.5218   85.9760 H         1 AUD         0.2136
     15 H5          0.6190    4.6926   84.4431 H         1 AUD         0.0196
@<TRIPOS>BOND
     1    1    2 1  
     2    2    3 1  
     3    2   10 2  
     4    3    4 1  
     5    4    5 2  
     6    4    6 2  
     7    4    7 am 
     8    7    8 am 
     9    8    9 2  
    10    8   10 1  
    11    1   11 1  
    12    1   12 1  
    13    1   13 1  
    14    7   14 1  
    15   10   15 1  
@<TRIPOS>SUBSTRUCTURE
     1 AUD         1

