### 
### Created by X-TOOL on Mon Aug  2 16:12:17 2021
### 

@<TRIPOS>MOLECULE
5wh5_ligand
   42    43     1     0     0
SMALL
GAST_HUCK


@<TRIPOS>ATOM
      1 F2          7.8460   -3.0620   61.0070 F         1 R91        -0.1739
      2 C1          6.5600   -2.7290   61.3220 C.3       1 R91         0.3655
      3 F1          6.4590   -1.3800   61.4950 F         1 R91        -0.1739
      4 O1          5.7120   -3.1580   60.2640 O.3       1 R91        -0.2566
      5 C2          5.7600   -2.6750   58.9750 C.ar      1 R91         0.1321
      6 C3          4.8370   -3.1860   58.0800 C.ar      1 R91         0.1266
      7 O2          3.9530   -4.1370   58.5130 O.3       1 R91        -0.3150
      8 C8          2.7840   -4.4940   57.7500 C.3       1 R91         0.1041
      9 C11         2.9920   -5.8760   57.1700 C.3       1 R91         0.0779
     10 O3          2.5930   -6.7550   58.2290 O.3       1 R91        -0.3768
     11 C10         1.7140   -6.0800   59.1310 C.3       1 R91         0.0505
     12 C9          1.6140   -4.6480   58.6890 C.3       1 R91         0.0031
     13 C7          6.6660   -1.7010   58.5430 C.ar      1 R91        -0.0342
     14 C6          6.6390   -1.2570   57.2220 C.ar      1 R91        -0.0625
     15 C5          5.7070   -1.7790   56.3250 C.ar      1 R91         0.0123
     16 C4          4.8130   -2.7410   56.7610 C.ar      1 R91        -0.0227
     17 C12         5.5920   -1.3430   54.8920 C.2       1 R91         0.1224
     18 O4          4.5240   -1.5210   54.3150 O.2       1 R91        -0.3840
     19 C13         6.7290   -0.6800   54.1500 C.3       1 R91         0.0229
     20 C14         7.2850   -1.6260   53.0960 C.3       1 R91        -0.0316
     21 C16         8.4040   -0.9570   52.2910 C.3       1 R91        -0.0606
     22 C15         7.7430   -2.9170   53.7670 C.3       1 R91        -0.0606
     23 H1          6.2669   -3.2350   62.2537 H         1 R91         0.1418
     24 H2          2.5824   -3.7480   56.9671 H         1 R91         0.0669
     25 H3          4.0478   -6.0352   56.9056 H         1 R91         0.0589
     26 H4          2.3643   -6.0256   56.2792 H         1 R91         0.0589
     27 H5          2.1172   -6.1288   60.1533 H         1 R91         0.0561
     28 H6          0.7196   -6.5496   59.1062 H         1 R91         0.0561
     29 H7          0.6632   -4.4616   58.1682 H         1 R91         0.0317
     30 H8          1.7032   -3.9638   59.5457 H         1 R91         0.0317
     31 H9          7.3907   -1.2906   59.2369 H         1 R91         0.0526
     32 H10         7.3445   -0.5036   56.8907 H         1 R91         0.0554
     33 H11         4.0870   -3.1521   56.0689 H         1 R91         0.0560
     34 H12         7.5258   -0.4195   54.8622 H         1 R91         0.0486
     35 H13         6.3609    0.2340   53.6611 H         1 R91         0.0486
     36 H14         6.4744   -1.8764   52.3958 H         1 R91         0.0319
     37 H15         8.7862   -1.6623   51.5383 H         1 R91         0.0234
     38 H16         9.2201   -0.6664   52.9689 H         1 R91         0.0234
     39 H17         8.0091   -0.0621   51.7878 H         1 R91         0.0234
     40 H18         6.9053   -3.3550   54.3295 H         1 R91         0.0234
     41 H19         8.5724   -2.6981   54.4556 H         1 R91         0.0234
     42 H20         8.0815   -3.6289   52.9998 H         1 R91         0.0234
@<TRIPOS>BOND
     1    1    2 1  
     2    2    3 1  
     3    2    4 1  
     4    4    5 1  
     5    5    6 ar 
     6    5   13 ar 
     7    6    7 1  
     8    6   16 ar 
     9    7    8 1  
    10    8    9 1  
    11    8   12 1  
    12    9   10 1  
    13   10   11 1  
    14   11   12 1  
    15   13   14 ar 
    16   14   15 ar 
    17   15   16 ar 
    18   15   17 1  
    19   17   18 2  
    20   17   19 1  
    21   19   20 1  
    22   20   21 1  
    23   20   22 1  
    24    2   23 1  
    25    8   24 1  
    26    9   25 1  
    27    9   26 1  
    28   11   27 1  
    29   11   28 1  
    30   12   29 1  
    31   12   30 1  
    32   13   31 1  
    33   14   32 1  
    34   16   33 1  
    35   19   34 1  
    36   19   35 1  
    37   20   36 1  
    38   21   37 1  
    39   21   38 1  
    40   21   39 1  
    41   22   40 1  
    42   22   41 1  
    43   22   42 1  
@<TRIPOS>SUBSTRUCTURE
     1 R91         1

