### 
### Created by X-TOOL on Mon Aug  2 16:12:17 2021
### 

@<TRIPOS>MOLECULE
5wh6_ligand
   42    43     1     0     0
SMALL
GAST_HUCK


@<TRIPOS>ATOM
      1 C1          6.4810   -2.7510   61.4450 C.3       1 AKJ         0.3655
      2 O2          3.6780   -3.8880   58.8290 O.3       1 AKJ        -0.3150
      3 C3          4.6520   -3.1050   58.2760 C.ar      1 AKJ         0.1266
      4 C4          4.6080   -2.7090   56.9430 C.ar      1 AKJ        -0.0227
      5 C5          5.6060   -1.9050   56.4140 C.ar      1 AKJ         0.0123
      6 C6          6.6660   -1.5140   57.2440 C.ar      1 AKJ        -0.0625
      7 C7          6.7070   -1.9180   58.5790 C.ar      1 AKJ        -0.0342
      8 C8          2.5460   -4.3330   58.0870 C.3       1 AKJ         0.1041
      9 C10         2.5690   -6.6570   58.4510 C.3       1 AKJ         0.0505
     10 C11         2.8920   -5.6240   57.3880 C.3       1 AKJ         0.0031
     11 C14         7.1600   -1.5420   53.1960 C.3       1 AKJ        -0.0316
     12 C16         8.2220   -0.7820   52.4010 C.3       1 AKJ        -0.0606
     13 F1          6.4270   -1.3940   61.5710 F         1 AKJ        -0.1739
     14 F2          7.7560   -3.1320   61.1460 F         1 AKJ        -0.1739
     15 O1          5.6190   -3.1830   60.3950 O.3       1 AKJ        -0.2566
     16 C2          5.6870   -2.7230   59.0970 C.ar      1 AKJ         0.1321
     17 O3          1.5690   -6.0890   59.3000 O.3       1 AKJ        -0.3768
     18 C9          1.4420   -4.6940   59.0620 C.3       1 AKJ         0.0779
     19 C12         5.4680   -1.5030   54.9680 C.2       1 AKJ         0.1224
     20 O4          4.5050   -1.8910   54.3190 O.2       1 AKJ        -0.3840
     21 C13         6.4850   -0.6590   54.2430 C.3       1 AKJ         0.0229
     22 C15         7.7480   -2.7960   53.8370 C.3       1 AKJ        -0.0606
     23 H1          6.1686   -3.2167   62.3913 H         1 AKJ         0.1418
     24 H2          3.7870   -3.0316   56.3130 H         1 AKJ         0.0560
     25 H3          7.4601   -0.8929   56.8455 H         1 AKJ         0.0554
     26 H4          7.5288   -1.6082   59.2143 H         1 AKJ         0.0526
     27 H5          2.2195   -3.5629   57.3727 H         1 AKJ         0.0669
     28 H6          3.4709   -6.8917   59.0353 H         1 AKJ         0.0561
     29 H7          2.1874   -7.5754   57.9809 H         1 AKJ         0.0561
     30 H8          3.9561   -5.6554   57.1110 H         1 AKJ         0.0317
     31 H9          2.2747   -5.7694   56.4893 H         1 AKJ         0.0317
     32 H10         6.3839   -1.8632   52.4857 H         1 AKJ         0.0319
     33 H11         8.6790   -1.4563   51.6618 H         1 AKJ         0.0234
     34 H12         8.9974   -0.4104   53.0870 H         1 AKJ         0.0234
     35 H13         7.7537    0.0674   51.8822 H         1 AKJ         0.0234
     36 H14         0.4579   -4.4691   58.6251 H         1 AKJ         0.0589
     37 H15         1.5632   -4.1338   60.0008 H         1 AKJ         0.0589
     38 H16         5.9860    0.1895   53.7520 H         1 AKJ         0.0486
     39 H17         7.2344   -0.2820   54.9545 H         1 AKJ         0.0486
     40 H18         8.2272   -3.4132   53.0628 H         1 AKJ         0.0234
     41 H19         6.9449   -3.3720   54.3200 H         1 AKJ         0.0234
     42 H20         8.4957   -2.5067   54.5901 H         1 AKJ         0.0234
@<TRIPOS>BOND
     1    1   13 1  
     2    1   14 1  
     3   15    1 1  
     4    3    2 1  
     5    2    8 1  
     6    4    3 ar 
     7    3   16 ar 
     8    5    4 ar 
     9    5    6 ar 
    10   19    5 1  
    11    6    7 ar 
    12    7   16 ar 
    13    8   10 1  
    14    8   18 1  
    15   10    9 1  
    16   17    9 1  
    17   11   12 1  
    18   21   11 1  
    19   11   22 1  
    20   16   15 1  
    21   18   17 1  
    22   19   20 2  
    23   19   21 1  
    24    1   23 1  
    25    4   24 1  
    26    6   25 1  
    27    7   26 1  
    28    8   27 1  
    29    9   28 1  
    30    9   29 1  
    31   10   30 1  
    32   10   31 1  
    33   11   32 1  
    34   12   33 1  
    35   12   34 1  
    36   12   35 1  
    37   18   36 1  
    38   18   37 1  
    39   21   38 1  
    40   21   39 1  
    41   22   40 1  
    42   22   41 1  
    43   22   42 1  
@<TRIPOS>SUBSTRUCTURE
     1 AKJ         1

