### 
### Created by X-TOOL on Mon Sep 10 21:13:33 2018
### 

@<TRIPOS>MOLECULE
5whc_ligand
   37    39     1     0     0
SMALL
GAST_HUCK


@<TRIPOS>ATOM
      1 C4         32.8280    3.0390   -3.3890 C.3       1 AJJ         0.0016
      2 C5         32.6180    2.8790   -4.8920 C.3       1 AJJ        -0.0301
      3 C6         31.0620    4.7710   -2.8830 C.2       1 AJJ         0.0915
      4 N1         31.0880    5.6780   -1.8600 N.2       1 AJJ        -0.2701
      5 C7         30.5890    6.7430   -2.4050 C.2       1 AJJ         0.2239
      6 C8         30.3350    8.0450   -1.7880 C.ar      1 AJJ         0.0382
      7 N2         30.5890    5.2280   -4.0030 N.2       1 AJJ        -0.1358
      8 C9         29.7690    9.0770   -2.5270 C.ar      1 AJJ        -0.0508
      9 C10        29.4890   10.2970   -1.9400 C.ar      1 AJJ        -0.0268
     10 C11        29.7740   10.5020   -0.5990 C.ar      1 AJJ         0.0938
     11 C12        30.3510    9.4850    0.1460 C.ar      1 AJJ        -0.0268
     12 C13        30.6280    8.2670   -0.4480 C.ar      1 AJJ        -0.0508
     13 N          31.6330    1.8380   -5.1800 N.4       1 AJJ         0.2333
     14 C          32.0760    0.5360   -4.6610 C.3       1 AJJ        -0.0431
     15 O          30.2600    6.5710   -3.6940 O.3       1 AJJ        -0.1497
     16 C1         30.3440    2.2150   -4.6060 C.3       1 AJJ        -0.0301
     17 C2         30.4340    2.3460   -3.0900 C.3       1 AJJ         0.0016
     18 C3         31.5070    3.3610   -2.6810 C.3       1 AJJ         0.0216
     19 O1         29.4700   11.6960   -0.0100 O.3       1 AJJ        -0.3291
     20 H1         33.5406    3.8577   -3.2105 H         1 AJJ         0.0342
     21 H2         33.2358    2.1024   -2.9810 H         1 AJJ         0.0342
     22 H3         33.5750    2.6071   -5.3611 H         1 AJJ         0.0816
     23 H4         32.2636    3.8334   -5.3085 H         1 AJJ         0.0816
     24 H5         29.5444    8.9235   -3.5763 H         1 AJJ         0.0639
     25 H6         29.0468   11.0930   -2.5282 H         1 AJJ         0.0559
     26 H7         30.5847    9.6442    1.1925 H         1 AJJ         0.0559
     27 H8         31.0794    7.4756    0.1393 H         1 AJJ         0.0639
     28 H9         31.5296    1.7616   -6.1798 H         1 AJJ         0.2031
     29 H10        31.3181   -0.2274   -4.8908 H         1 AJJ         0.0777
     30 H11        32.2109    0.6023   -3.5713 H         1 AJJ         0.0777
     31 H12        33.0304    0.2588   -5.1325 H         1 AJJ         0.0777
     32 H13        29.6003    1.4440   -4.8561 H         1 AJJ         0.0816
     33 H14        30.0298    3.1794   -5.0316 H         1 AJJ         0.0816
     34 H15        30.6861    1.3654   -2.6600 H         1 AJJ         0.0342
     35 H16        29.4602    2.6777   -2.7006 H         1 AJJ         0.0342
     36 H17        31.6794    3.2367   -1.6017 H         1 AJJ         0.0479
     37 H18        29.0844   12.2770   -0.6552 H         1 AJJ         0.2506
@<TRIPOS>BOND
     1    1    2 1  
     2   18    1 1  
     3    2   13 1  
     4    3    4 1  
     5    3    7 2  
     6    3   18 1  
     7    4    5 2  
     8    5    6 1  
     9    5   15 1  
    10    6    8 ar 
    11    6   12 ar 
    12    7   15 1  
    13    8    9 ar 
    14    9   10 ar 
    15   10   11 ar 
    16   10   19 1  
    17   11   12 ar 
    18   13   14 1  
    19   13   16 1  
    20   16   17 1  
    21   17   18 1  
    22    1   20 1  
    23    1   21 1  
    24    2   22 1  
    25    2   23 1  
    26    8   24 1  
    27    9   25 1  
    28   11   26 1  
    29   12   27 1  
    30   13   28 1  
    31   14   29 1  
    32   14   30 1  
    33   14   31 1  
    34   16   32 1  
    35   16   33 1  
    36   17   34 1  
    37   17   35 1  
    38   18   36 1  
    39   19   37 1  
@<TRIPOS>SUBSTRUCTURE
     1 AJJ         1

