### 
### Created by X-TOOL on Wed Jan  1 15:39:38 2020
### 

@<TRIPOS>MOLECULE
5wi0_ligand
   33    34     1     0     0
SMALL
GAST_HUCK


@<TRIPOS>ATOM
      1 N1         16.3990    8.3980    3.1670 N.pl3     1 AQ1        -0.2072
      2 C4         14.9440    8.8310    1.2490 C.2       1 AQ1         0.1515
      3 C5         14.1180    9.6760    2.0400 C.2       1 AQ1         0.2668
      4 C6         15.5510    9.0960    3.8910 C.cat     1 AQ1         0.2295
      5 C7         14.8620    9.3480    6.3700 C.ar      1 AQ1         0.1127
      6 C8         13.7000   10.1240    6.3490 C.ar      1 AQ1        -0.0258
      7 C10        13.5720   10.0330    8.7560 C.ar      1 AQ1        -0.0640
      8 F          16.4950    8.2510    7.6240 F         1 AQ1        -0.1803
      9 C12        15.3430    8.9530    7.6060 C.ar      1 AQ1         0.1711
     10 C11        14.7300    9.2700    8.7970 C.ar      1 AQ1        -0.0253
     11 C9         13.0670   10.4670    7.5390 C.ar      1 AQ1        -0.0639
     12 N2         15.6390    8.9660    5.2400 N.pl3     1 AQ1        -0.2643
     13 N          14.4740    9.7480    3.3680 N.am      1 AQ1        -0.2415
     14 O          13.1900   10.3760    1.6190 O.2       1 AQ1        -0.3421
     15 C3         16.0390    8.2380    1.7970 C.2       1 AQ1         0.1886
     16 C2         16.9620    7.3290    1.0450 C.3       1 AQ1         0.0647
     17 C1         16.4810    5.8700    0.7540 C.3       1 AQ1        -0.0267
     18 C          15.3620    5.7560   -0.2690 C.3       1 AQ1        -0.0607
     19 H1         17.2612    7.9959    3.5617 H         1 AQ1         0.2546
     20 H2         14.6995    8.6581    0.2020 H         1 AQ1         0.1479
     21 H3         13.2910   10.4595    5.4028 H         1 AQ1         0.0592
     22 H4         13.0609   10.2905    9.6766 H         1 AQ1         0.0600
     23 H5         15.1410    8.9325    9.7416 H         1 AQ1         0.0603
     24 H6         12.1721   11.0782    7.5153 H         1 AQ1         0.0594
     25 H7         16.4908    8.4581    5.5183 H         1 AQ1         0.2180
     26 H8         13.9143   10.3068    3.9799 H         1 AQ1         0.1816
     27 H9         17.8937    7.2564    1.6252 H         1 AQ1         0.0712
     28 H10        17.1701    7.8041    0.0750 H         1 AQ1         0.0712
     29 H11        16.1258    5.4326    1.6987 H         1 AQ1         0.0317
     30 H12        17.3419    5.2939    0.3840 H         1 AQ1         0.0317
     31 H13        15.0952    4.6974   -0.4041 H         1 AQ1         0.0233
     32 H14        15.6986    6.1746   -1.2289 H         1 AQ1         0.0233
     33 H15        14.4826    6.3133    0.0859 H         1 AQ1         0.0233
@<TRIPOS>BOND
     1    4    1 ar 
     2    1   15 1  
     3    3    2 1  
     4   15    2 2  
     5   13    3 am 
     6    3   14 2  
     7   12    4 ar 
     8    4   13 ar 
     9    6    5 ar 
    10    5    9 ar 
    11    5   12 1  
    12   11    6 ar 
    13    7   10 ar 
    14    7   11 ar 
    15    9    8 1  
    16    9   10 ar 
    17   15   16 1  
    18   16   17 1  
    19   17   18 1  
    20    1   19 1  
    21    2   20 1  
    22    6   21 1  
    23    7   22 1  
    24   10   23 1  
    25   11   24 1  
    26   12   25 1  
    27   13   26 1  
    28   16   27 1  
    29   16   28 1  
    30   17   29 1  
    31   17   30 1  
    32   18   31 1  
    33   18   32 1  
    34   18   33 1  
@<TRIPOS>SUBSTRUCTURE
     1 AQ1         1

