### 
### Created by X-TOOL on Wed Jan  1 15:39:36 2020
### 

@<TRIPOS>MOLECULE
5wi1_ligand
   28    29     1     0     0
SMALL
GAST_HUCK


@<TRIPOS>ATOM
      1 N1         15.8800    8.6010    4.9310 N.2       1 AOY        -0.2977
      2 C4         15.5670    6.9100    0.1920 C.3       1 AOY         0.0774
      3 C5         16.8970    7.0970    0.8930 C.3       1 AOY        -0.0197
      4 C6         16.6890    7.4330    2.3530 C.3       1 AOY        -0.0119
      5 C7         15.4360    8.9330    6.2330 C.ar      1 AOY         0.0206
      6 C8         14.2920    9.7140    6.4120 C.ar      1 AOY        -0.0491
      7 C10        14.5740    9.5920    8.7990 C.ar      1 AOY        -0.0654
      8 C1         15.5440    8.3940    2.5650 C.3       1 AOY         0.1189
      9 C2         15.2790    8.9380    3.7980 C.2       1 AOY         0.0332
     10 C3         14.5600    8.6950    1.5250 C.2       1 AOY         0.2583
     11 O1         14.5820    7.9760    0.3830 O.3       1 AOY        -0.2740
     12 O2         13.7050    9.5430    1.6190 O.2       1 AOY        -0.3645
     13 C9         13.8690   10.0410    7.6930 C.ar      1 AOY        -0.0646
     14 C11        15.7210    8.8320    8.6230 C.ar      1 AOY        -0.0646
     15 C12        16.1510    8.4940    7.3450 C.ar      1 AOY        -0.0491
     16 H1         15.1229    5.9727    0.5585 H         1 AOY         0.0613
     17 H2         15.7648    6.8248   -0.8867 H         1 AOY         0.0613
     18 H3         17.4483    7.9165    0.4089 H         1 AOY         0.0295
     19 H4         17.4797    6.1672    0.8159 H         1 AOY         0.0295
     20 H5         17.6100    7.8889    2.7453 H         1 AOY         0.0329
     21 H6         16.4768    6.5040    2.9025 H         1 AOY         0.0329
     22 H7         13.7347   10.0647    5.5509 H         1 AOY         0.0595
     23 H8         14.2301    9.8340    9.7981 H         1 AOY         0.0586
     24 H9         16.1777    9.2442    2.2726 H         1 AOY         0.0830
     25 H10        14.5122    9.7096    3.8494 H         1 AOY         0.1225
     26 H11        12.9830   10.6505    7.8292 H         1 AOY         0.0608
     27 H12        16.2852    8.4998    9.4869 H         1 AOY         0.0608
     28 H13        17.0414    7.8897    7.2139 H         1 AOY         0.0595
@<TRIPOS>BOND
     1    1    5 1  
     2    9    1 2  
     3    3    2 1  
     4    2   11 1  
     5    4    3 1  
     6    8    4 1  
     7    5    6 ar 
     8    5   15 ar 
     9    6   13 ar 
    10   13    7 ar 
    11    7   14 ar 
    12    8    9 1  
    13    8   10 1  
    14   10   11 1  
    15   10   12 2  
    16   14   15 ar 
    17    2   16 1  
    18    2   17 1  
    19    3   18 1  
    20    3   19 1  
    21    4   20 1  
    22    4   21 1  
    23    6   22 1  
    24    7   23 1  
    25    8   24 1  
    26    9   25 1  
    27   13   26 1  
    28   14   27 1  
    29   15   28 1  
@<TRIPOS>SUBSTRUCTURE
     1 AOY         1

