### 
### Created by X-TOOL on Mon Sep 10 21:13:34 2018
### 

@<TRIPOS>MOLECULE
5wic_ligand
   11    11     1     0     0
SMALL
GAST_HUCK


@<TRIPOS>ATOM
      1 C1          1.0220  -14.2840  -19.7660 C.2       1 FOA         0.0899
      2 C2          0.2330  -15.5560  -19.5540 C.2       1 FOA         0.1457
      3 C3         -0.3880  -16.3100  -20.5430 C.2       1 FOA        -0.0514
      4 C4         -1.0040  -17.4050  -19.9300 C.2       1 FOA        -0.0607
      5 C5         -0.7600  -17.3220  -18.5640 C.2       1 FOA         0.0827
      6 O6          2.2600  -14.3480  -19.9880 O.co2     1 FOA        -0.5620
      7 O7          0.4440  -13.1660  -19.7190 O.co2     1 FOA        -0.5620
      8 O8          0.0050  -16.1800  -18.3290 O.3       1 FOA        -0.2568
      9 H1         -0.3936  -16.0867  -21.6089 H         1 FOA         0.0394
     10 H2         -1.5739  -18.1847  -20.4333 H         1 FOA         0.0349
     11 H3         -1.1060  -18.0262  -17.8088 H         1 FOA         0.1003
@<TRIPOS>BOND
     1    1    2 1  
     2    1    6 ar 
     3    1    7 ar 
     4    2    3 2  
     5    2    8 1  
     6    3    4 1  
     7    4    5 2  
     8    5    8 1  
     9    3    9 1  
    10    4   10 1  
    11    5   11 1  
@<TRIPOS>SUBSTRUCTURE
     1 FOA         1

