### 
### Created by X-TOOL on Mon Sep 10 21:13:34 2018
### 

@<TRIPOS>MOLECULE
5wii_ligand
   13    13     1     0     0
SMALL
GAST_HUCK


@<TRIPOS>ATOM
      1 CAH       -32.5380   -9.3960   13.0830 C.2       1 AO4         0.0715
      2 OAI       -32.2080  -10.5850   13.2850 O.co2     1 AO4        -0.5575
      3 OAJ       -31.7850   -8.4260   12.8350 O.co2     1 AO4        -0.5575
      4 CAF       -34.0400   -9.0800   13.1470 C.ar      1 AO4         0.0278
      5 CAA       -34.8490   -9.1800   12.0320 C.ar      1 AO4        -0.0036
      6 CAB       -36.2610   -8.8560   12.2030 C.ar      1 AO4         0.1212
      7 CL1       -37.3800   -8.9660   10.7820 Cl        1 AO4        -0.0390
      8 NAC       -36.8360   -8.4560   13.4200 N.ar      1 AO4        -0.2789
      9 CAD       -36.0270   -8.3770   14.4480 C.ar      1 AO4         0.0119
     10 CAE       -34.5980   -8.6800   14.3750 C.ar      1 AO4        -0.0229
     11 H1        -34.4517   -9.4861   11.0710 H         1 AO4         0.0727
     12 H2        -36.4387   -8.0709   15.4029 H         1 AO4         0.0823
     13 H3        -33.9750   -8.5972   15.2583 H         1 AO4         0.0718
@<TRIPOS>BOND
     1    1    2 ar 
     2    1    3 ar 
     3    1    4 1  
     4    4    5 ar 
     5    4   10 ar 
     6    5    6 ar 
     7    6    7 1  
     8    6    8 ar 
     9    8    9 ar 
    10    9   10 ar 
    11    5   11 1  
    12    9   12 1  
    13   10   13 1  
@<TRIPOS>SUBSTRUCTURE
     1 AO4         1

