### 
### Created by X-TOOL on Mon Aug  2 16:12:17 2021
### 

@<TRIPOS>MOLECULE
5wij_ligand
   61    64     1     0     0
SMALL
GAST_HUCK


@<TRIPOS>ATOM
      1 C4         -0.6420   -5.1290    0.5860 C.ar      1 AQG         0.1452
      2 C5         -1.8660   -5.3870   -0.0010 C.ar      1 AQG         0.1045
      3 C6         -2.8130   -6.1890    0.7050 C.ar      1 AQG         0.1760
      4 C8         -0.6610   -4.1350   -1.3570 C.2       1 AQG         0.1034
      5 N1         -2.4760   -6.6590    1.9160 N.ar      1 AQG        -0.2395
      6 N2         -0.9000   -6.9080    3.8030 N.pl3     1 AQG        -0.2464
      7 N3         -0.3810   -5.6490    1.8250 N.ar      1 AQG        -0.2561
      8 C2         -1.2770   -6.3970    2.4610 C.ar      1 AQG         0.1808
      9 CAA        -3.3500   -8.7910    9.7740 C.3       1 AQG        -0.0447
     10 CAB        -3.6390  -12.3670   10.1060 C.3       1 AQG        -0.0447
     11 CAD        -1.1490   -8.1500    5.8980 C.ar      1 AQG        -0.0323
     12 CAE        -2.6050   -8.7740    4.0890 C.ar      1 AQG        -0.0323
     13 CAF        -1.7230   -9.1250    6.7090 C.ar      1 AQG        -0.0515
     14 CAG        -3.1900   -9.7540    4.9070 C.ar      1 AQG        -0.0515
     15 CAI        -6.8430  -10.7120    0.0640 C.3       1 AQG        -0.0530
     16 CAJ        -6.2720   -9.9090   -1.1030 C.3       1 AQG        -0.0527
     17 CAK        -7.4680   -9.7950    1.1060 C.3       1 AQG        -0.0527
     18 CAL        -4.3930   -9.2710    8.7590 C.3       1 AQG         0.0303
     19 CAM        -4.7220  -11.7610    9.1880 C.3       1 AQG         0.0303
     20 CAN        -5.6510   -8.5760   -0.6830 C.3       1 AQG        -0.0477
     21 CAO        -6.4110   -8.9120    1.7650 C.3       1 AQG        -0.0477
     22 CAP        -5.0330   -6.9520    1.0970 C.3       1 AQG         0.0801
     23 CAW        -3.3850  -11.0120    7.1370 C.2       1 AQG         0.1987
     24 CAX        -1.5750   -7.9670    4.5900 C.ar      1 AQG         0.0693
     25 CAY        -2.7580   -9.9240    6.2150 C.ar      1 AQG         0.0379
     26 CBD        -5.3100   -8.4480    0.8070 C.3       1 AQG        -0.0121
     27 N7         -1.8380   -4.7510   -1.2090 N.2       1 AQG        -0.3017
     28 N9          0.0840   -4.3520   -0.2750 N.pl3     1 AQG        -0.2401
     29 NBE        -4.1600  -10.6650    8.3610 N.am      1 AQG        -0.2747
     30 O6         -4.0930   -6.4830    0.1390 O.3       1 AQG        -0.2928
     31 OAC        -3.2290  -12.1470    6.8610 O.2       1 AQG        -0.3900
     32 H1         -0.3595   -3.5492   -2.2241 H         1 AQG         0.1318
     33 H2         -0.0724   -6.4759    4.2380 H         1 AQG         0.2180
     34 H3         -3.5577   -7.7458   10.0467 H         1 AQG         0.0249
     35 H4         -2.3463   -8.8615    9.3296 H         1 AQG         0.0249
     36 H5         -3.3974   -9.4211   10.6744 H         1 AQG         0.0249
     37 H6         -4.0791  -13.1757   10.7079 H         1 AQG         0.0249
     38 H7         -3.2450  -11.5862   10.7732 H         1 AQG         0.0249
     39 H8         -2.8212  -12.7709    9.4912 H         1 AQG         0.0249
     40 H9         -0.3574   -7.5243    6.2941 H         1 AQG         0.0549
     41 H10        -2.9502   -8.6418    3.0700 H         1 AQG         0.0549
     42 H11        -1.3674   -9.2646    7.7235 H         1 AQG         0.0640
     43 H12        -3.9828  -10.3808    4.5150 H         1 AQG         0.0640
     44 H13        -6.0329  -11.2895    0.5333 H         1 AQG         0.0265
     45 H14        -7.6119  -11.4008   -0.3159 H         1 AQG         0.0265
     46 H15        -7.0849   -9.7048   -1.8154 H         1 AQG         0.0265
     47 H16        -5.4964  -10.5142   -1.5952 H         1 AQG         0.0265
     48 H17        -7.9561  -10.4081    1.8779 H         1 AQG         0.0265
     49 H18        -8.2176   -9.1548    0.6180 H         1 AQG         0.0265
     50 H19        -4.3419   -8.6316    7.8654 H         1 AQG         0.0519
     51 H20        -5.3930   -9.1913    9.2102 H         1 AQG         0.0519
     52 H21        -5.5384  -11.3623    9.8081 H         1 AQG         0.0519
     53 H22        -5.1146  -12.5470    8.5261 H         1 AQG         0.0519
     54 H23        -6.3611   -7.7757   -0.9383 H         1 AQG         0.0269
     55 H24        -4.7223   -8.4389   -1.2564 H         1 AQG         0.0269
     56 H25        -5.9431   -9.4815    2.5816 H         1 AQG         0.0269
     57 H26        -6.9098   -8.0225    2.1772 H         1 AQG         0.0269
     58 H27        -4.6205   -6.8388    2.1104 H         1 AQG         0.0630
     59 H28        -5.9672   -6.3771    1.0150 H         1 AQG         0.0630
     60 H29        -4.4051   -9.0405    1.0072 H         1 AQG         0.0328
     61 H30         1.0378   -3.9977   -0.1146 H         1 AQG         0.2380
@<TRIPOS>BOND
     1    1    2 ar 
     2    7    1 ar 
     3    1   28 1  
     4    3    2 ar 
     5    2   27 1  
     6    5    3 ar 
     7    3   30 1  
     8    4   27 2  
     9   28    4 1  
    10    8    5 ar 
    11    6    8 1  
    12   24    6 1  
    13    8    7 ar 
    14   18    9 1  
    15   19   10 1  
    16   13   11 ar 
    17   11   24 ar 
    18   14   12 ar 
    19   12   24 ar 
    20   25   13 ar 
    21   25   14 ar 
    22   16   15 1  
    23   17   15 1  
    24   20   16 1  
    25   21   17 1  
    26   29   18 1  
    27   29   19 1  
    28   26   20 1  
    29   26   21 1  
    30   22   26 1  
    31   30   22 1  
    32   23   25 1  
    33   23   29 am 
    34   23   31 2  
    35    4   32 1  
    36    6   33 1  
    37    9   34 1  
    38    9   35 1  
    39    9   36 1  
    40   10   37 1  
    41   10   38 1  
    42   10   39 1  
    43   11   40 1  
    44   12   41 1  
    45   13   42 1  
    46   14   43 1  
    47   15   44 1  
    48   15   45 1  
    49   16   46 1  
    50   16   47 1  
    51   17   48 1  
    52   17   49 1  
    53   18   50 1  
    54   18   51 1  
    55   19   52 1  
    56   19   53 1  
    57   20   54 1  
    58   20   55 1  
    59   21   56 1  
    60   21   57 1  
    61   22   58 1  
    62   22   59 1  
    63   26   60 1  
    64   28   61 1  
@<TRIPOS>SUBSTRUCTURE
     1 AQG         1

