### 
### Created by X-TOOL on Mon Aug  2 16:12:17 2021
### 

@<TRIPOS>MOLECULE
5wik_ligand
   51    53     1     0     0
SMALL
GAST_HUCK


@<TRIPOS>ATOM
      1 C1         27.2570   67.3990   87.3530 C.ar      1 MOL         0.1717
      2 C2         25.9460   66.8090   89.2230 C.ar      1 MOL         0.1537
      3 C3         26.9790   66.0440   89.6820 C.ar      1 MOL         0.1154
      4 O1         25.6150   64.7230   92.7450 O.3       1 MOL        -0.3349
      5 O2         24.5860   72.3440   83.7460 O.3       1 MOL        -0.3406
      6 C11        22.0640   70.2570   88.3650 C.3       1 MOL        -0.0626
      7 C12        22.3160   71.0180   90.7550 C.3       1 MOL        -0.0626
      8 C13        27.9640   64.5400   91.3480 C.3       1 MOL         0.0275
      9 C14        26.7010   69.2020   85.5260 C.ar      1 MOL         0.0483
     10 C15        25.7620   69.9110   86.2620 C.ar      1 MOL        -0.0175
     11 C16        25.0590   70.9530   85.6690 C.ar      1 MOL         0.1490
     12 C17        25.2950   71.2920   84.3440 C.ar      1 MOL         0.1425
     13 C18        26.2350   70.5870   83.6090 C.ar      1 MOL         0.1490
     14 C19        26.9350   69.5500   84.2020 C.ar      1 MOL        -0.0175
     15 N1         28.2690   66.6590   87.7940 N.ar      1 MOL        -0.2966
     16 N2         26.1150   67.4810   88.0350 N.ar      1 MOL        -0.2509
     17 C4         28.1940   65.9730   88.9270 C.ar      1 MOL         0.0115
     18 N3         27.4770   68.0990   86.0840 N.pl3     1 MOL        -0.2603
     19 N4         24.7820   66.8810   89.9450 N.pl3     1 MOL        -0.2726
     20 C5         23.6690   67.6870   89.4480 C.3       1 MOL         0.0389
     21 C6         23.7740   69.1580   89.8660 C.3       1 MOL        -0.0277
     22 C7         22.4010   69.8340   89.7950 C.3       1 MOL        -0.0446
     23 C8         24.6590   66.2050   91.0900 C.2       1 MOL         0.0562
     24 C9         25.7310   65.4300   91.5460 C.2       1 MOL         0.1689
     25 N5         26.8620   65.3530   90.8560 N.pl3     1 MOL        -0.2589
     26 C10        23.3700   66.2670   91.9110 C.3       1 MOL        -0.0316
     27 F1         24.1320   71.6480   86.3890 F         1 MOL        -0.1941
     28 F2         26.4710   70.9150   82.3060 F         1 MOL        -0.1941
     29 H1         24.7556   64.8762   93.1198 H         1 MOL         0.2405
     30 H2         24.8675   72.4416   82.8439 H         1 MOL         0.2417
     31 H3         21.0748   70.7378   88.3484 H         1 MOL         0.0232
     32 H4         22.0519   69.3707   87.7136 H         1 MOL         0.0232
     33 H5         22.8228   70.9669   88.0041 H         1 MOL         0.0232
     34 H6         22.5631   70.6829   91.7732 H         1 MOL         0.0232
     35 H7         21.2955   71.4284   90.7416 H         1 MOL         0.0232
     36 H8         23.0281   71.7957   90.4420 H         1 MOL         0.0232
     37 H9         28.8077   64.6019   90.6449 H         1 MOL         0.0511
     38 H10        27.6367   63.4936   91.4366 H         1 MOL         0.0511
     39 H11        28.2808   64.9099   92.3343 H         1 MOL         0.0511
     40 H12        25.5771   69.6523   87.2983 H         1 MOL         0.0460
     41 H13        27.6737   69.0038   83.6266 H         1 MOL         0.0460
     42 H14        29.0297   65.3749   89.2720 H         1 MOL         0.0639
     43 H15        28.2742   67.7737   85.5188 H         1 MOL         0.2111
     44 H16        22.7300   67.2741   89.8451 H         1 MOL         0.0555
     45 H17        23.6577   67.6329   88.3494 H         1 MOL         0.0555
     46 H18        24.4690   69.6779   89.1902 H         1 MOL         0.0290
     47 H19        24.1531   69.2154   90.8970 H         1 MOL         0.0290
     48 H20        21.6495   69.0950   90.1098 H         1 MOL         0.0296
     49 H21        23.4778   65.6429   92.8104 H         1 MOL         0.0313
     50 H22        22.5309   65.8948   91.3049 H         1 MOL         0.0313
     51 H23        23.1743   67.3078   92.2083 H         1 MOL         0.0313
@<TRIPOS>BOND
     1    1   15 ar 
     2   16    1 ar 
     3    1   18 1  
     4    2    3 ar 
     5    2   16 ar 
     6   19    2 1  
     7    3   17 ar 
     8    3   25 1  
     9   24    4 1  
    10   12    5 1  
    11   22    6 1  
    12   22    7 1  
    13   25    8 1  
    14    9   10 ar 
    15    9   14 ar 
    16   18    9 1  
    17   10   11 ar 
    18   11   12 ar 
    19   11   27 1  
    20   13   12 ar 
    21   14   13 ar 
    22   13   28 1  
    23   17   15 ar 
    24   19   20 1  
    25   23   19 1  
    26   20   21 1  
    27   21   22 1  
    28   23   24 2  
    29   23   26 1  
    30   24   25 1  
    31    4   29 1  
    32    5   30 1  
    33    6   31 1  
    34    6   32 1  
    35    6   33 1  
    36    7   34 1  
    37    7   35 1  
    38    7   36 1  
    39    8   37 1  
    40    8   38 1  
    41    8   39 1  
    42   10   40 1  
    43   14   41 1  
    44   17   42 1  
    45   18   43 1  
    46   20   44 1  
    47   20   45 1  
    48   21   46 1  
    49   21   47 1  
    50   22   48 1  
    51   26   49 1  
    52   26   50 1  
    53   26   51 1  
@<TRIPOS>SUBSTRUCTURE
     1 MOL         1

