### 
### Created by X-TOOL on Mon Aug  2 16:12:17 2021
### 

@<TRIPOS>MOLECULE
5win_ligand
   39    41     1     0     0
SMALL
GAST_HUCK


@<TRIPOS>ATOM
      1 S          -4.2940  -10.9370    5.8560 S.o2      1 SKE         0.0603
      2 C1         -1.2330   -5.0490    0.1550 C.2       1 SKE         0.2527
      3 F1         -3.5320   -8.2830   -0.5130 F         1 SKE        -0.1782
      4 N1         -0.6330   -4.2090   -0.7880 N.pl3     1 SKE        -0.2893
      5 O1         -5.5030  -10.5010    6.3300 O.2       1 SKE        -0.1521
      6 C2         -1.5510   -6.1730    1.9140 C.2       1 SKE         0.1508
      7 F2         -5.8490   -4.3800   -1.5660 F         1 SKE        -0.1782
      8 N2         -0.7400   -5.3480    1.2740 N.2       1 SKE        -0.2739
      9 O2         -4.8180  -11.9150    5.0270 O.2       1 SKE        -0.1521
     10 C3         -2.0170   -7.7280    3.7730 C.ar      1 SKE         0.0575
     11 N3         -1.2630   -6.6950    3.1830 N.pl3     1 SKE        -0.2669
     12 O3         -2.9760   -4.9590   -1.9560 O.2       1 SKE        -0.3518
     13 C4         -2.8480   -8.5150    3.0620 C.ar      1 SKE        -0.0385
     14 N4         -3.5540  -11.4160    7.2360 N.am      1 SKE        -0.2623
     15 C5         -3.5310   -9.4960    3.6880 C.ar      1 SKE        -0.0460
     16 N5         -2.5630   -6.3630    1.1530 N.2       1 SKE        -0.1813
     17 C6         -3.3980   -9.6670    5.0230 C.ar      1 SKE         0.0952
     18 N6         -2.3920   -5.6680    0.0540 N.am      1 SKE        -0.0829
     19 C7         -2.5550   -8.8850    5.7300 C.ar      1 SKE        -0.0460
     20 C8         -1.8650   -7.9150    5.0950 C.ar      1 SKE        -0.0385
     21 C9         -3.2590   -5.5920   -1.0590 C.2       1 SKE         0.2888
     22 C10        -4.5740   -6.3160   -1.0590 C.ar      1 SKE         0.1350
     23 C11        -4.6300   -7.6310   -0.7700 C.ar      1 SKE         0.1536
     24 C12        -5.7860   -8.3250   -0.7130 C.ar      1 SKE        -0.0261
     25 C13        -6.9540   -7.6960   -0.9540 C.ar      1 SKE        -0.0610
     26 C14        -6.9190   -6.3690   -1.2320 C.ar      1 SKE        -0.0261
     27 C15        -5.7540   -5.6660   -1.2770 C.ar      1 SKE         0.1536
     28 H1          0.2830   -3.7822   -0.5886 H         1 SKE         0.1819
     29 H2         -1.1070   -4.0170   -1.6821 H         1 SKE         0.1819
     30 H3         -0.4656   -6.3063    3.7064 H         1 SKE         0.2073
     31 H4         -2.9669   -8.3613    1.9956 H         1 SKE         0.0527
     32 H5         -3.1648  -10.7355    7.8568 H         1 SKE         0.1633
     33 H6         -3.4913  -12.3890    7.4579 H         1 SKE         0.1633
     34 H7         -4.1863  -10.1471    3.1208 H         1 SKE         0.0604
     35 H8         -2.4337   -9.0348    6.7967 H         1 SKE         0.0604
     36 H9         -1.1844   -7.2832    5.6542 H         1 SKE         0.0527
     37 H10        -5.7756   -9.3824   -0.4747 H         1 SKE         0.0582
     38 H11        -7.8939   -8.2354   -0.9264 H         1 SKE         0.0633
     39 H12        -7.8510   -5.8501   -1.4251 H         1 SKE         0.0582
@<TRIPOS>BOND
     1    1    5 2  
     2    1    9 2  
     3    1   14 am 
     4   17    1 1  
     5    2    4 1  
     6    2    8 2  
     7   18    2 1  
     8   23    3 1  
     9    6    8 1  
    10    6   11 1  
    11   16    6 2  
    12   27    7 1  
    13   11   10 1  
    14   10   13 ar 
    15   10   20 ar 
    16   21   12 2  
    17   13   15 ar 
    18   15   17 ar 
    19   18   16 1  
    20   19   17 ar 
    21   21   18 am 
    22   20   19 ar 
    23   22   21 1  
    24   22   23 ar 
    25   22   27 ar 
    26   23   24 ar 
    27   24   25 ar 
    28   25   26 ar 
    29   26   27 ar 
    30    4   28 1  
    31    4   29 1  
    32   11   30 1  
    33   13   31 1  
    34   14   32 1  
    35   14   33 1  
    36   15   34 1  
    37   19   35 1  
    38   20   36 1  
    39   24   37 1  
    40   25   38 1  
    41   26   39 1  
@<TRIPOS>SUBSTRUCTURE
     1 SKE         1

