### 
### Created by X-TOOL on Mon Sep 10 21:13:34 2018
### 

@<TRIPOS>MOLECULE
5wio_ligand
   21    22     1     0     0
SMALL
GAST_HUCK


@<TRIPOS>ATOM
      1 OAM        39.0490   14.7380    3.5800 O.co2     1 XXE        -0.5573
      2 CAL        38.2010   14.0430    4.1990 C.2       1 XXE         0.0789
      3 OAN        38.3710   13.7840    5.4190 O.co2     1 XXE        -0.5573
      4 CAH        36.9770   13.5220    3.4770 C.ar      1 XXE         0.0768
      5 CAG        35.7890   13.3350    4.1670 C.ar      1 XXE         0.0150
      6 NAI        37.0450   13.2390    2.1450 N.ar      1 XXE        -0.2926
      7 CAJ        35.9470   12.7690    1.4890 C.ar      1 XXE         0.0087
      8 CAK        34.7610   12.5790    2.1780 C.ar      1 XXE         0.0031
      9 CAF        34.6930   12.8630    3.5120 C.ar      1 XXE         0.1170
     10 NAA        33.4750   12.6660    4.2120 N.pl3     1 XXE        -0.2327
     11 CAB        33.3450   12.1580    5.5110 C.2       1 XXE         0.0314
     12 CAC        31.9880   12.1190    5.8200 C.2       1 XXE        -0.0829
     13 CAD        31.2720   12.6030    4.7100 C.2       1 XXE        -0.0829
     14 CAE        32.1900   12.9380    3.7220 C.2       1 XXE         0.0314
     15 H1         35.7331   13.5640    5.2251 H         1 XXE         0.0714
     16 H2         36.0019   12.5443    0.4300 H         1 XXE         0.0810
     17 H3         33.8864   12.2048    1.6584 H         1 XXE         0.0698
     18 H4         34.1604   11.8486    6.1632 H         1 XXE         0.0818
     19 H5         31.5559   11.7738    6.7581 H         1 XXE         0.0289
     20 H6         30.1896   12.6983    4.6378 H         1 XXE         0.0289
     21 H7         31.9526   13.3414    2.7387 H         1 XXE         0.0818
@<TRIPOS>BOND
     1    1    2 ar 
     2    2    3 ar 
     3    2    4 1  
     4    4    5 ar 
     5    4    6 ar 
     6    5    9 ar 
     7    6    7 ar 
     8    7    8 ar 
     9    8    9 ar 
    10    9   10 1  
    11   10   11 1  
    12   10   14 1  
    13   11   12 2  
    14   12   13 1  
    15   13   14 2  
    16    5   15 1  
    17    7   16 1  
    18    8   17 1  
    19   11   18 1  
    20   12   19 1  
    21   13   20 1  
    22   14   21 1  
@<TRIPOS>SUBSTRUCTURE
     1 XXE         1

