### 
### Created by X-TOOL on Mon Sep 10 21:13:34 2018
### 

@<TRIPOS>MOLECULE
5wip_ligand
   20    21     1     0     0
SMALL
GAST_HUCK


@<TRIPOS>ATOM
      1 CAA       -37.9590   -8.9950   11.1190 C.2       1 XXO         0.1379
      2 CAC       -39.8410   -9.2050   10.0010 C.2       1 XXO         0.0858
      3 CAD       -39.0280   -8.5040    9.1950 C.2       1 XXO        -0.0561
      4 CAE       -37.7270   -8.3000    9.8430 C.2       1 XXO        -0.0499
      5 CAF       -36.9590   -9.1470   12.2630 C.ar      1 XXO         0.0790
      6 CAH       -36.6170   -9.3170   14.6340 C.ar      1 XXO         0.0076
      7 CAI       -35.1230   -9.4340   14.3460 C.ar      1 XXO        -0.0249
      8 CAJ       -34.7000   -9.4020   13.1350 C.ar      1 XXO         0.0254
      9 CAK       -35.6700   -9.2520   12.0090 C.ar      1 XXO        -0.0156
     10 CAL       -33.2050   -9.5200   12.8460 C.2       1 XXO         0.0708
     11 NAG       -37.4490   -9.1860   13.6660 N.ar      1 XXO        -0.2944
     12 OAB       -39.2300   -9.4830   11.0960 O.3       1 XXO        -0.2570
     13 OAM       -32.6360  -10.6400   12.9250 O.co2     1 XXO        -0.5576
     14 OAN       -32.5450   -8.4960   12.5270 O.co2     1 XXO        -0.5576
     15 H1        -40.8635   -9.4941    9.7626 H         1 XXO         0.1038
     16 H2        -39.2950   -8.1396    8.2041 H         1 XXO         0.0370
     17 H3        -36.8405   -7.7809    9.4816 H         1 XXO         0.0419
     18 H4        -36.9755   -9.3446   15.6566 H         1 XXO         0.0818
     19 H5        -34.4198   -9.5440   15.1636 H         1 XXO         0.0702
     20 H6        -35.3145   -9.2296   10.9852 H         1 XXO         0.0718
@<TRIPOS>BOND
     1    1    4 2  
     2    5    1 1  
     3    1   12 1  
     4    2    3 2  
     5   12    2 1  
     6    4    3 1  
     7    5    9 ar 
     8   11    5 ar 
     9    6    7 ar 
    10    6   11 ar 
    11    7    8 ar 
    12    8    9 ar 
    13    8   10 1  
    14   10   13 ar 
    15   10   14 ar 
    16    2   15 1  
    17    3   16 1  
    18    4   17 1  
    19    6   18 1  
    20    7   19 1  
    21    9   20 1  
@<TRIPOS>SUBSTRUCTURE
     1 XXO         1

