### 
### Created by X-TOOL on Wed Jan  1 15:39:36 2020
### 

@<TRIPOS>MOLECULE
5wj6_ligand
   63    67     1     0     0
SMALL
GAST_HUCK


@<TRIPOS>ATOM
      1 N12        82.9620  164.5300    1.9390 N.am      1 B4A        -0.1967
      2 C13        83.8810  165.2820    1.1090 C.2       1 B4A         0.2240
      3 C15        84.3900  167.7690    1.4530 C.ar      1 B4A        -0.0236
      4 C17        84.5700  169.8160    0.2220 C.ar      1 B4A        -0.0681
      5 C20        83.3470  168.3170    2.1990 C.ar      1 B4A        -0.0579
      6 C26        73.6750  162.9890   -2.7640 C.2       1 B4A         0.2123
      7 C28        71.8230  164.7210   -2.7500 C.2       1 B4A         0.2240
      8 C01        77.8560  159.8850   -1.1400 C.3       1 B4A        -0.0087
      9 C02        76.5440  159.7750   -0.3840 C.3       1 B4A         0.0363
     10 N03        75.9620  161.1100   -0.1960 N.pl3     1 B4A        -0.2752
     11 C04        76.8570  162.0570    0.4400 C.3       1 B4A         0.0363
     12 C05        78.0640  162.1970   -0.4250 C.3       1 B4A        -0.0087
     13 C06        78.6840  160.8480   -0.4060 C.3       1 B4A         0.0460
     14 N07        79.9650  161.0760   -0.9460 N.pl3     1 B4A        -0.2859
     15 C08        80.6900  161.9000    0.0310 C.2       1 B4A         0.1841
     16 N09        80.5870  161.8160    1.3720 N.2       1 B4A        -0.2912
     17 N10        81.3380  162.6900    2.0820 N.2       1 B4A        -0.2899
     18 C11        82.0910  163.5510    1.3810 C.2       1 B4A         0.2123
     19 C14        84.8550  166.3360    1.7330 C.3       1 B4A         0.0779
     20 C16        85.0090  168.5120    0.4670 C.ar      1 B4A        -0.0579
     21 C18        83.5190  170.3690    0.9680 C.ar      1 B4A        -0.0684
     22 C19        82.9060  169.6280    1.9530 C.ar      1 B4A        -0.0681
     23 O21        83.9120  165.1110   -0.0950 O.2       1 B4A        -0.3783
     24 S22        81.7680  163.1850   -0.2900 S.3       1 B4A         0.0826
     25 C23        75.2010  161.6560   -1.2540 C.2       1 B4A         0.1864
     26 N24        75.2110  161.3370   -2.5620 N.2       1 B4A        -0.2910
     27 N25        74.3890  162.0230   -3.3630 N.2       1 B4A        -0.2899
     28 N27        72.7130  163.8080   -3.4270 N.am      1 B4A        -0.1967
     29 C29        70.7910  165.4510   -3.5640 C.3       1 B4A         0.0779
     30 C30        70.2840  166.8260   -3.1120 C.ar      1 B4A        -0.0236
     31 C31        69.8000  167.1170   -1.8110 C.ar      1 B4A        -0.0579
     32 C32        69.3550  168.4040   -1.5080 C.ar      1 B4A        -0.0681
     33 C33        69.3730  169.3870   -2.5060 C.ar      1 B4A        -0.0684
     34 C34        69.8280  169.0800   -3.7940 C.ar      1 B4A        -0.0681
     35 C35        70.2710  167.8080   -4.0930 C.ar      1 B4A        -0.0579
     36 O36        71.8860  164.8770   -1.5650 O.2       1 B4A        -0.3783
     37 S37        74.0820  162.9320   -1.0870 S.3       1 B4A         0.0828
     38 H1         82.9388  164.7018    2.9239 H         1 B4A         0.2379
     39 H2         85.0467  170.4060   -0.5525 H         1 B4A         0.0600
     40 H3         82.8728  167.7268    2.9748 H         1 B4A         0.0561
     41 H4         77.6749  160.2434   -2.1641 H         1 B4A         0.0308
     42 H5         78.3557  158.9058   -1.1772 H         1 B4A         0.0308
     43 H6         76.7266  159.3151    0.5984 H         1 B4A         0.0527
     44 H7         75.8440  159.1495   -0.9573 H         1 B4A         0.0527
     45 H8         77.1498  161.6859    1.4332 H         1 B4A         0.0527
     46 H9         76.3573  163.0313    0.5452 H         1 B4A         0.0527
     47 H10        78.7535  162.9490   -0.0139 H         1 B4A         0.0308
     48 H11        77.7794  162.4812   -1.4488 H         1 B4A         0.0308
     49 H12        78.7836  160.4884    0.6288 H         1 B4A         0.0561
     50 H13        80.3231  160.7325   -1.8486 H         1 B4A         0.1870
     51 H14        85.8571  166.1953    1.3018 H         1 B4A         0.0666
     52 H15        84.8989  166.1812    2.8212 H         1 B4A         0.0666
     53 H16        85.8243  168.0895   -0.1091 H         1 B4A         0.0561
     54 H17        83.1887  171.3820    0.7686 H         1 B4A         0.0561
     55 H18        82.0929  170.0509    2.5318 H         1 B4A         0.0600
     56 H19        72.6514  163.7457   -4.4232 H         1 B4A         0.2379
     57 H20        69.9114  164.7932   -3.6238 H         1 B4A         0.0666
     58 H21        71.2174  165.5854   -4.5690 H         1 B4A         0.0666
     59 H22        69.7759  166.3414   -1.0541 H         1 B4A         0.0561
     60 H23        68.9994  168.6407   -0.5117 H         1 B4A         0.0600
     61 H24        69.0327  170.3910   -2.2797 H         1 B4A         0.0561
     62 H25        69.8323  169.8462   -4.5608 H         1 B4A         0.0600
     63 H26        70.6096  167.5750   -5.0961 H         1 B4A         0.0561
@<TRIPOS>BOND
     1    1    2 am 
     2   18    1 1  
     3    2   19 1  
     4    2   23 2  
     5    3    5 ar 
     6   19    3 1  
     7    3   20 ar 
     8   20    4 ar 
     9    4   21 ar 
    10    5   22 ar 
    11    6   27 2  
    12    6   28 1  
    13   37    6 1  
    14   28    7 am 
    15    7   29 1  
    16    7   36 2  
    17    9    8 1  
    18    8   13 1  
    19   10    9 1  
    20   10   11 1  
    21   25   10 1  
    22   11   12 1  
    23   12   13 1  
    24   13   14 1  
    25   14   15 1  
    26   15   16 2  
    27   15   24 1  
    28   16   17 1  
    29   18   17 2  
    30   24   18 1  
    31   22   21 ar 
    32   25   26 2  
    33   25   37 1  
    34   26   27 1  
    35   29   30 1  
    36   30   31 ar 
    37   30   35 ar 
    38   31   32 ar 
    39   32   33 ar 
    40   33   34 ar 
    41   34   35 ar 
    42    1   38 1  
    43    4   39 1  
    44    5   40 1  
    45    8   41 1  
    46    8   42 1  
    47    9   43 1  
    48    9   44 1  
    49   11   45 1  
    50   11   46 1  
    51   12   47 1  
    52   12   48 1  
    53   13   49 1  
    54   14   50 1  
    55   19   51 1  
    56   19   52 1  
    57   20   53 1  
    58   21   54 1  
    59   22   55 1  
    60   28   56 1  
    61   29   57 1  
    62   29   58 1  
    63   31   59 1  
    64   32   60 1  
    65   33   61 1  
    66   34   62 1  
    67   35   63 1  
@<TRIPOS>SUBSTRUCTURE
     1 B4A         1

