### 
### Created by X-TOOL on Wed Jan  1 15:39:35 2020
### 

@<TRIPOS>MOLECULE
5wkl_ligand
   63    64     1     0     0
SMALL
GAST_HUCK


@<TRIPOS>ATOM
      1 C11       -20.9830   -1.2810    5.4980 C.3       1 AVY         0.0674
      2 C12       -20.2840   -2.1190    6.5830 C.3       1 AVY        -0.0079
      3 C13       -20.7610   -3.5850    6.6290 C.3       1 AVY         0.0526
      4 C14       -20.1410   -4.3300    7.7460 C.2       1 AVY         0.1792
      5 C24       -22.1440   -7.8110    4.0620 C.3       1 AVY         0.0087
      6 C25       -23.3110   -7.2590    4.8830 C.ar      1 AVY        -0.0405
      7 C16       -22.4910   -4.7560    7.9300 C.3       1 AVY         0.0332
      8 C02       -21.5500   -5.2250    2.4920 C.2       1 AVY         0.3220
      9 C04       -20.9250   -2.8620    1.9730 C.3       1 AVY         0.1329
     10 C05       -21.1330   -1.8380    0.8590 C.3       1 AVY        -0.0101
     11 C06       -20.5010   -2.3070   -0.4550 C.3       1 AVY        -0.0425
     12 C07       -20.8340   -1.3920   -1.6380 C.3       1 AVY        -0.0625
     13 C08       -18.9810   -2.4580   -0.3520 C.3       1 AVY        -0.0625
     14 C09       -21.4990   -2.3600    3.2940 C.2       1 AVY         0.2019
     15 C17       -22.2600   -3.6270    6.8860 C.3       1 AVY        -0.0129
     16 C19       -20.6020    0.2000    5.4940 C.3       1 AVY         0.0673
     17 C23       -22.2800   -7.5200    2.4890 C.3       1 AVY         0.0868
     18 C26       -23.8010   -5.9710    4.7110 C.ar      1 AVY        -0.0603
     19 C27       -24.8460   -5.5140    5.4970 C.ar      1 AVY        -0.0686
     20 C28       -25.4030   -6.3430    6.4550 C.ar      1 AVY        -0.0687
     21 C29       -24.9110   -7.6220    6.6290 C.ar      1 AVY        -0.0686
     22 C30       -23.8620   -8.0770    5.8540 C.ar      1 AVY        -0.0603
     23 N03       -21.6000   -4.0850    1.6170 N.am      1 AVY        -0.2412
     24 N10       -20.5510   -1.7890    4.2200 N.am      1 AVY        -0.2797
     25 N15       -21.2090   -5.0400    8.5220 N.am      1 AVY        -0.2866
     26 O01       -20.7290   -5.3120    3.3600 O.2       1 AVY        -0.3774
     27 O18       -18.9920   -4.4130    8.0080 O.2       1 AVY        -0.3968
     28 O20       -21.2430    0.8210    4.4100 O.3       1 AVY        -0.3927
     29 O21       -22.6510   -2.4420    3.5680 O.2       1 AVY        -0.3945
     30 O22       -22.5650   -6.1670    2.2720 O.3       1 AVY        -0.2617
     31 H1        -22.0725   -1.3793    5.6132 H         1 AVY         0.0580
     32 H2        -20.4823   -1.6573    7.5615 H         1 AVY         0.0315
     33 H3        -19.2018   -2.1108    6.3862 H         1 AVY         0.0315
     34 H4        -20.5218   -4.0736    5.6730 H         1 AVY         0.0539
     35 H5        -22.0952   -8.8995    4.2126 H         1 AVY         0.0452
     36 H6        -21.2135   -7.3488    4.4233 H         1 AVY         0.0452
     37 H7        -22.8876   -5.6548    7.4352 H         1 AVY         0.0521
     38 H8        -23.1989   -4.4198    8.7018 H         1 AVY         0.0521
     39 H9        -19.8484   -3.0530    2.0931 H         1 AVY         0.0799
     40 H10       -20.6720   -0.8851    1.1579 H         1 AVY         0.0315
     41 H11       -22.2121   -1.6909    0.7048 H         1 AVY         0.0315
     42 H12       -20.9206   -3.2997   -0.6750 H         1 AVY         0.0298
     43 H13       -20.3536   -1.7801   -2.5483 H         1 AVY         0.0232
     44 H14       -20.4635   -0.3770   -1.4321 H         1 AVY         0.0232
     45 H15       -21.9240   -1.3621   -1.7830 H         1 AVY         0.0232
     46 H16       -18.7343   -3.1141    0.4958 H         1 AVY         0.0232
     47 H17       -18.5241   -1.4697   -0.1958 H         1 AVY         0.0232
     48 H18       -18.5924   -2.8988   -1.2819 H         1 AVY         0.0232
     49 H19       -22.8002   -3.8528    5.9548 H         1 AVY         0.0312
     50 H20       -22.6054   -2.6621    7.2855 H         1 AVY         0.0312
     51 H21       -19.5119    0.3026    5.3890 H         1 AVY         0.0580
     52 H22       -20.9255    0.6691    6.4349 H         1 AVY         0.0580
     53 H23       -23.0933   -8.1339    2.0746 H         1 AVY         0.0634
     54 H24       -21.3348   -7.7773    1.9885 H         1 AVY         0.0634
     55 H25       -23.3648   -5.3220    3.9602 H         1 AVY         0.0557
     56 H26       -25.2271   -4.5082    5.3619 H         1 AVY         0.0599
     57 H27       -26.2241   -5.9892    7.0679 H         1 AVY         0.0559
     58 H28       -25.3502   -8.2717    7.3773 H         1 AVY         0.0599
     59 H29       -23.4698   -9.0760    6.0065 H         1 AVY         0.0557
     60 H30       -22.1061   -4.1409    0.7563 H         1 AVY         0.1899
     61 H31       -19.5832   -1.7452    3.9723 H         1 AVY         0.1855
     62 H32       -21.0558   -5.6186    9.3231 H         1 AVY         0.1851
     63 H33       -20.9623    0.4109    3.6003 H         1 AVY         0.2095
@<TRIPOS>BOND
     1    1    2 1  
     2    1   16 1  
     3   24    1 1  
     4    2    3 1  
     5    3    4 1  
     6    3   15 1  
     7    4   25 am 
     8    4   27 2  
     9    5    6 1  
    10   17    5 1  
    11    6   18 ar 
    12    6   22 ar 
    13   15    7 1  
    14    7   25 1  
    15    8   23 am 
    16    8   26 2  
    17   30    8 1  
    18    9   10 1  
    19    9   14 1  
    20   23    9 1  
    21   10   11 1  
    22   11   12 1  
    23   11   13 1  
    24   14   24 am 
    25   14   29 2  
    26   16   28 1  
    27   17   30 1  
    28   18   19 ar 
    29   19   20 ar 
    30   20   21 ar 
    31   21   22 ar 
    32    1   31 1  
    33    2   32 1  
    34    2   33 1  
    35    3   34 1  
    36    5   35 1  
    37    5   36 1  
    38    7   37 1  
    39    7   38 1  
    40    9   39 1  
    41   10   40 1  
    42   10   41 1  
    43   11   42 1  
    44   12   43 1  
    45   12   44 1  
    46   12   45 1  
    47   13   46 1  
    48   13   47 1  
    49   13   48 1  
    50   15   49 1  
    51   15   50 1  
    52   16   51 1  
    53   16   52 1  
    54   17   53 1  
    55   17   54 1  
    56   18   55 1  
    57   19   56 1  
    58   20   57 1  
    59   21   58 1  
    60   22   59 1  
    61   23   60 1  
    62   24   61 1  
    63   25   62 1  
    64   28   63 1  
@<TRIPOS>SUBSTRUCTURE
     1 AVY         1

