### 
### Created by X-TOOL on Wed Jan  1 15:39:35 2020
### 

@<TRIPOS>MOLECULE
5wkm_ligand
   48    48     1     0     0
SMALL
GAST_HUCK


@<TRIPOS>ATOM
      1 C02       -21.5580   -5.6680    2.0060 C.2       1 N02         0.3215
      2 C04       -20.9340   -3.2780    1.8550 C.3       1 N02         0.1329
      3 C05       -20.9890   -2.1610    0.8090 C.3       1 N02        -0.0101
      4 C06       -20.4960   -2.5860   -0.5880 C.3       1 N02        -0.0425
      5 C07       -18.9700   -2.7080   -0.6300 C.3       1 N02        -0.0625
      6 C08       -20.9810   -1.6240   -1.6740 C.3       1 N02        -0.0625
      7 C09       -21.4250   -2.7710    3.2180 C.2       1 N02         0.2019
      8 C11       -21.0290   -1.4830    5.3580 C.3       1 N02         0.0687
      9 C12       -20.3900   -2.3040    6.4980 C.3       1 N02        -0.0040
     10 C13       -20.8520   -3.7590    6.5260 C.3       1 N02         0.0620
     11 C14       -20.0990   -4.5090    7.7040 C.2       1 N02         0.2043
     12 C16       -22.4800   -4.8640    7.7800 C.2       1 N02         0.0144
     13 C17       -22.3430   -3.8380    6.8830 C.2       1 N02        -0.0694
     14 C19       -20.7000    0.0040    5.4430 C.3       1 N02         0.0674
     15 C23       -22.2630   -7.9090    2.3170 C.3       1 N02         0.0663
     16 N03       -21.8070   -4.3560    1.4590 N.am      1 N02        -0.2412
     17 N10       -20.5590   -1.9610    4.0710 N.am      1 N02        -0.2795
     18 N15       -21.0570   -5.1420    8.4420 N.am      1 N02        -0.2487
     19 O01       -20.7380   -5.8070    2.8670 O.2       1 N02        -0.3774
     20 O18       -18.9250   -4.4980    7.8910 O.2       1 N02        -0.3941
     21 O20       -21.1390    0.8760    6.4400 O.3       1 N02        -0.3927
     22 O21       -22.5130   -3.0420    3.5870 O.2       1 N02        -0.3945
     23 O22       -22.2920   -6.7540    1.5050 O.3       1 N02        -0.2672
     24 H1        -19.9003   -3.6435    1.9436 H         1 N02         0.0799
     25 H2        -20.3612   -1.3282    1.1588 H         1 N02         0.0315
     26 H3        -22.0316   -1.8218    0.7195 H         1 N02         0.0315
     27 H4        -20.9200   -3.5780   -0.8029 H         1 N02         0.0298
     28 H5        -18.6541   -3.0120   -1.6389 H         1 N02         0.0232
     29 H6        -18.6423   -3.4629    0.0998 H         1 N02         0.0232
     30 H7        -18.5175   -1.7367   -0.3813 H         1 N02         0.0232
     31 H8        -22.0774   -1.5463   -1.6320 H         1 N02         0.0232
     32 H9        -20.6779   -2.0026   -2.6613 H         1 N02         0.0232
     33 H10       -20.5365   -0.6313   -1.5097 H         1 N02         0.0232
     34 H11       -22.1205   -1.6073    5.4149 H         1 N02         0.0582
     35 H12       -20.6549   -1.8350    7.4571 H         1 N02         0.0333
     36 H13       -19.2975   -2.2869    6.3708 H         1 N02         0.0333
     37 H14       -20.6544   -4.2398    5.5566 H         1 N02         0.0630
     38 H15       -23.4026   -5.3980    8.0026 H         1 N02         0.0812
     39 H16       -23.1380   -3.2014    6.4976 H         1 N02         0.0250
     40 H17       -21.0624    0.4363    4.4987 H         1 N02         0.0580
     41 H18       -19.6017    0.0574    5.4732 H         1 N02         0.0580
     42 H19       -22.8621   -8.7028    1.8469 H         1 N02         0.0575
     43 H20       -22.6805   -7.6720    3.3067 H         1 N02         0.0575
     44 H21       -21.2239   -8.2519    2.4298 H         1 N02         0.0575
     45 H22       -22.5630   -4.1986    0.8237 H         1 N02         0.1899
     46 H23       -19.6343   -1.7339    3.7654 H         1 N02         0.1855
     47 H24       -20.8931   -5.6897    9.2625 H         1 N02         0.2275
     48 H25       -22.0887    0.9001    6.4424 H         1 N02         0.2095
@<TRIPOS>BOND
     1   16    1 am 
     2    1   19 2  
     3    1   23 1  
     4    2    3 1  
     5    7    2 1  
     6    2   16 1  
     7    3    4 1  
     8    4    5 1  
     9    4    6 1  
    10   17    7 am 
    11    7   22 2  
    12    8    9 1  
    13    8   14 1  
    14    8   17 1  
    15    9   10 1  
    16   10   11 1  
    17   10   13 1  
    18   11   18 am 
    19   11   20 2  
    20   13   12 2  
    21   12   18 1  
    22   14   21 1  
    23   23   15 1  
    24    2   24 1  
    25    3   25 1  
    26    3   26 1  
    27    4   27 1  
    28    5   28 1  
    29    5   29 1  
    30    5   30 1  
    31    6   31 1  
    32    6   32 1  
    33    6   33 1  
    34    8   34 1  
    35    9   35 1  
    36    9   36 1  
    37   10   37 1  
    38   12   38 1  
    39   13   39 1  
    40   14   40 1  
    41   14   41 1  
    42   15   42 1  
    43   15   43 1  
    44   15   44 1  
    45   16   45 1  
    46   17   46 1  
    47   18   47 1  
    48   21   48 1  
@<TRIPOS>SUBSTRUCTURE
     1 N02         1

