### 
### Created by X-TOOL on Mon Sep 10 21:13:33 2018
### 

@<TRIPOS>MOLECULE
5wl0_ligand
   47    51     1     0     0
SMALL
GAST_HUCK


@<TRIPOS>ATOM
      1 C1        -24.6360    4.8550    8.7940 C.ar      1 21G        -0.0198
      2 C2        -24.5810    4.7800    7.4320 C.ar      1 21G         0.1437
      3 C3        -25.2130    3.7380    6.6940 C.ar      1 21G         0.0297
      4 C5        -25.9450    2.8370    8.6210 C.ar      1 21G         0.1395
      5 C6        -25.3390    3.8600    9.4250 C.ar      1 21G         0.0158
      6 C7        -25.6500    3.5560   10.7780 C.2       1 21G         0.0280
      7 N4        -25.9090    2.7510    7.2570 N.ar      1 21G        -0.2849
      8 C8        -26.4040    2.3780   10.7840 C.2       1 21G         0.0541
      9 N9        -26.5900    1.9260    9.4860 N.pl3     1 21G        -0.2551
     10 C11       -25.2730    4.3200   11.9460 C.ar      1 21G         0.0815
     11 N12       -25.6740    3.8800   13.1730 N.ar      1 21G        -0.2961
     12 C13       -25.3930    4.6910   14.2280 C.ar      1 21G         0.0374
     13 C14       -24.7400    5.9200   14.0670 C.ar      1 21G         0.1925
     14 C15       -24.3460    6.2670   12.7790 C.ar      1 21G         0.1541
     15 N16       -24.6000    5.4610   11.7020 N.ar      1 21G        -0.2657
     16 N17       -23.7520    7.4480   12.5630 N.pl3     1 21G        -0.2969
     17 C18       -23.3000    7.8460   11.2620 C.3       1 21G         0.0570
     18 C20       -22.0490    8.7150   11.5410 C.3       1 21G         0.0379
     19 C22       -21.9810    9.8200   10.4690 C.3       1 21G        -0.0245
     20 C23       -22.4000    9.2420    9.1150 C.3       1 21G        -0.0480
     21 C24       -23.8900    8.8430    9.1170 C.3       1 21G        -0.0476
     22 C25       -24.3730    8.6960   10.5610 C.3       1 21G        -0.0160
     23 C26       -24.4320   10.1240   11.1740 C.3       1 21G        -0.0476
     24 C27       -23.0550   10.8380   10.9660 C.3       1 21G        -0.0480
     25 C28       -20.8160    7.8390   11.6630 C.2       1 21G         0.0404
     26 O29       -20.5160    7.1140   12.6110 O.co2     1 21G        -0.5686
     27 O30       -19.9650    7.8860   10.6200 O.co2     1 21G        -0.5686
     28 F31       -24.5260    6.7760   15.0820 F         1 21G        -0.1819
     29 F32       -23.9160    5.7220    6.7610 F         1 21G        -0.1848
     30 H1        -24.1526    5.6538    9.3447 H         1 21G         0.0652
     31 H2        -25.1226    3.7487    5.6138 H         1 21G         0.0748
     32 H3        -26.7887    1.8876   11.6770 H         1 21G         0.1113
     33 H4        -27.1050    1.0797    9.2042 H         1 21G         0.2362
     34 H5        -25.6832    4.3768   15.2241 H         1 21G         0.0844
     35 H6        -23.6157    8.0904   13.3565 H         1 21G         0.1838
     36 H7        -23.0486    6.9710   10.6446 H         1 21G         0.0582
     37 H8        -22.1834    9.2122   12.5129 H         1 21G         0.0492
     38 H9        -20.9810   10.2737   10.4044 H         1 21G         0.0322
     39 H10       -21.7903    8.3519    8.9004 H         1 21G         0.0269
     40 H11       -22.2320    9.9984    8.3343 H         1 21G         0.0269
     41 H12       -24.0147    7.8862    8.5888 H         1 21G         0.0269
     42 H13       -24.4793    9.6213    8.6101 H         1 21G         0.0269
     43 H14       -25.3585    8.2102   10.6141 H         1 21G         0.0324
     44 H15       -24.6491   10.0525   12.2500 H         1 21G         0.0269
     45 H16       -25.2243   10.7037   10.6777 H         1 21G         0.0269
     46 H17       -23.1705   11.6364   10.2182 H         1 21G         0.0269
     47 H18       -22.7258   11.2745   11.9205 H         1 21G         0.0269
@<TRIPOS>BOND
     1    1    2 ar 
     2    1    5 ar 
     3    2    3 ar 
     4    2   29 1  
     5    3    7 ar 
     6    5    4 ar 
     7    4    7 ar 
     8    4    9 1  
     9    5    6 1  
    10    6    8 2  
    11    6   10 1  
    12    8    9 1  
    13   10   11 ar 
    14   10   15 ar 
    15   11   12 ar 
    16   12   13 ar 
    17   13   14 ar 
    18   13   28 1  
    19   14   15 ar 
    20   14   16 1  
    21   16   17 1  
    22   17   18 1  
    23   17   22 1  
    24   18   19 1  
    25   18   25 1  
    26   19   20 1  
    27   19   24 1  
    28   20   21 1  
    29   21   22 1  
    30   22   23 1  
    31   23   24 1  
    32   25   26 ar 
    33   25   27 ar 
    34    1   30 1  
    35    3   31 1  
    36    8   32 1  
    37    9   33 1  
    38   12   34 1  
    39   16   35 1  
    40   17   36 1  
    41   18   37 1  
    42   19   38 1  
    43   20   39 1  
    44   20   40 1  
    45   21   41 1  
    46   21   42 1  
    47   22   43 1  
    48   23   44 1  
    49   23   45 1  
    50   24   46 1  
    51   24   47 1  
@<TRIPOS>SUBSTRUCTURE
     1 21G         1

