### 
### Created by X-TOOL on Mon Sep 10 21:13:31 2018
### 

@<TRIPOS>MOLECULE
5wlo_ligand
   86    90     1     0     0
SMALL
GAST_HUCK


@<TRIPOS>ATOM
      1 C1         20.9950  -15.0610   -8.0150 C.ar      1 GR7         0.0842
      2 C2         21.5960  -16.0370   -7.2320 C.ar      1 GR7        -0.0282
      3 C3         20.9000  -17.2020   -6.8310 C.ar      1 GR7         0.0002
      4 C4         19.5850  -17.4160   -7.2060 C.ar      1 GR7         0.1006
      5 C5         19.0030  -16.4220   -7.9930 C.ar      1 GR7        -0.0505
      6 C6         19.6770  -15.2860   -8.3860 C.ar      1 GR7        -0.0382
      7 S7         18.5940  -18.8190   -6.7820 S.o2      1 GR7         0.0634
      8 O8         17.6340  -18.9200   -7.9910 O.2       1 GR7        -0.1526
      9 O9         19.4900  -19.9520   -6.5790 O.2       1 GR7        -0.1526
     10 N10        17.6580  -18.5490   -5.5070 N.am      1 GR7        -0.2335
     11 C15        16.3600  -17.9230   -5.6120 C.3       1 GR7         0.0577
     12 C16        15.2560  -18.8310   -5.0600 C.3       1 GR7         0.0967
     13 O17        14.0820  -18.0490   -4.7580 O.3       1 GR7        -0.3877
     14 C18        14.8780  -19.9560   -6.0160 C.3       1 GR7         0.0807
     15 N19        13.9560  -20.8730   -5.3300 N.am      1 GR7        -0.2550
     16 C20        14.2520  -22.1050   -4.9350 C.2       1 GR7         0.3203
     17 O21        15.3260  -22.7510   -5.0590 O.2       1 GR7        -0.3775
     18 O22        13.2490  -22.7060   -4.2600 O.3       1 GR7        -0.2578
     19 C23        13.4190  -24.1110   -4.0220 C.3       1 GR7         0.1189
     20 C24        12.8680  -24.3590   -2.5990 C.3       1 GR7         0.0815
     21 O25        11.4420  -24.2850   -2.8090 O.3       1 GR7        -0.3480
     22 C26        11.1170  -24.8710   -4.0690 C.3       1 GR7         0.1648
     23 O27        10.2360  -23.9980   -4.7760 O.3       1 GR7        -0.3509
     24 C28        10.8960  -23.4030   -5.9010 C.3       1 GR7         0.0512
     25 C29        12.0240  -24.3750   -6.2170 C.3       1 GR7        -0.0191
     26 C30        12.4170  -24.9130   -4.8530 C.3       1 GR7         0.0449
     27 C31        14.1780  -19.4360   -7.2810 C.3       1 GR7         0.0064
     28 C32        12.4910  -21.0460   -8.2910 C.ar      1 GR7        -0.0603
     29 C33        12.1280  -22.1420   -9.0920 C.ar      1 GR7        -0.0686
     30 C34        13.1540  -22.8520   -9.7010 C.ar      1 GR7        -0.0687
     31 C35        14.4630  -22.4020   -9.6840 C.ar      1 GR7        -0.0686
     32 C36        14.8270  -21.3250   -8.8710 C.ar      1 GR7        -0.0603
     33 C37        13.8050  -20.6040   -8.2070 C.ar      1 GR7        -0.0408
     34 O38        21.6130  -13.9180   -8.4330 O.3       1 GR7        -0.3230
     35 C39        22.9770  -13.8650   -8.0350 C.3       1 GR7         0.0592
     36 C11        18.2630  -18.7080   -4.2220 C.3       1 GR7         0.0296
     37 C12        18.3450  -20.1520   -3.7510 C.3       1 GR7        -0.0343
     38 C13        18.5740  -20.1810   -2.2630 C.3       1 GR7        -0.0450
     39 C14        19.9950  -20.1580   -1.8390 C.3       1 GR7        -0.0363
     40 C40        21.6510  -18.0890   -6.0420 C.3       1 GR7         0.0833
     41 O41        21.8620  -17.3220   -4.7940 O.3       1 GR7        -0.3586
     42 C42        22.4890  -18.0000   -3.6940 C.3       1 GR7         0.0676
     43 C43        21.5310  -18.4150   -2.7590 C.2       1 GR7        -0.0731
     44 C44        20.9810  -19.6600   -2.6620 C.2       1 GR7        -0.0965
     45 H1         22.6254  -15.9033   -6.9196 H         1 GR7         0.0479
     46 H2         17.9741  -16.5489   -8.3097 H         1 GR7         0.0591
     47 H3         19.1662  -14.5519   -8.9986 H         1 GR7         0.0486
     48 H4         16.1508  -17.7078   -6.6703 H         1 GR7         0.0504
     49 H5         16.3688  -16.9826   -5.0414 H         1 GR7         0.0504
     50 H6         15.6255  -19.2851   -4.1287 H         1 GR7         0.0634
     51 H7         13.7729  -17.6251   -5.5500 H         1 GR7         0.2100
     52 H8         15.7905  -20.4965   -6.3077 H         1 GR7         0.0604
     53 H9         13.0306  -20.5415   -5.1461 H         1 GR7         0.1873
     54 H10        14.4602  -24.4350   -4.1663 H         1 GR7         0.0675
     55 H11        13.2090  -23.5829   -1.8980 H         1 GR7         0.0590
     56 H12        13.1652  -25.3490   -2.2228 H         1 GR7         0.0590
     57 H13        10.6765  -25.8716   -3.9475 H         1 GR7         0.0913
     58 H14        11.2947  -22.4112   -5.6417 H         1 GR7         0.0561
     59 H15        10.2084  -23.3101   -6.7545 H         1 GR7         0.0561
     60 H16        12.8687  -23.8562   -6.6938 H         1 GR7         0.0293
     61 H17        11.6734  -25.1850   -6.8735 H         1 GR7         0.0293
     62 H18        12.7930  -25.9406   -4.9656 H         1 GR7         0.0380
     63 H19        14.8550  -18.7527   -7.8147 H         1 GR7         0.0449
     64 H20        13.2640  -18.8959   -6.9931 H         1 GR7         0.0449
     65 H21        11.7244  -20.5314   -7.7231 H         1 GR7         0.0557
     66 H22        11.0897  -22.4216   -9.2288 H         1 GR7         0.0599
     67 H23        12.9237  -23.7844  -10.2036 H         1 GR7         0.0559
     68 H24        15.2087  -22.8868  -10.3037 H         1 GR7         0.0599
     69 H25        15.8681  -21.0479   -8.7514 H         1 GR7         0.0557
     70 H26        23.4278  -12.9284   -8.3949 H         1 GR7         0.0577
     71 H27        23.5179  -14.7210   -8.4647 H         1 GR7         0.0577
     72 H28        23.0406  -13.9045   -6.9376 H         1 GR7         0.0577
     73 H29        17.6731  -18.1382   -3.4890 H         1 GR7         0.0478
     74 H30        19.2838  -18.3006   -4.2675 H         1 GR7         0.0478
     75 H31        19.1787  -20.6573   -4.2604 H         1 GR7         0.0282
     76 H32        17.4034  -20.6691   -3.9874 H         1 GR7         0.0282
     77 H33        18.1162  -21.0993   -1.8667 H         1 GR7         0.0285
     78 H34        18.0748  -19.3040   -1.8253 H         1 GR7         0.0285
     79 H35        20.2707  -21.1999   -1.6188 H         1 GR7         0.0388
     80 H36        20.0338  -19.5650   -0.9134 H         1 GR7         0.0388
     81 H37        22.6094  -18.3330   -6.5236 H         1 GR7         0.0725
     82 H38        21.0920  -19.0161   -5.8472 H         1 GR7         0.0725
     83 H39        23.1986  -17.3163   -3.2051 H         1 GR7         0.0687
     84 H40        23.0294  -18.8801   -4.0726 H         1 GR7         0.0687
     85 H41        21.1924  -17.6710   -2.0394 H         1 GR7         0.0472
     86 H42        21.3945  -20.3884   -3.3580 H         1 GR7         0.0451
@<TRIPOS>BOND
     1    2    1 ar 
     2    6    1 ar 
     3    1   34 1  
     4    3    2 ar 
     5    4    3 ar 
     6    3   40 1  
     7    4    5 ar 
     8    7    4 1  
     9    5    6 ar 
    10    7    8 2  
    11    7    9 2  
    12   10    7 am 
    13   11   10 1  
    14   10   36 1  
    15   12   11 1  
    16   12   13 1  
    17   14   12 1  
    18   14   15 1  
    19   27   14 1  
    20   15   16 am 
    21   16   17 2  
    22   16   18 1  
    23   18   19 1  
    24   19   20 1  
    25   19   26 1  
    26   20   21 1  
    27   22   21 1  
    28   22   23 1  
    29   26   22 1  
    30   24   23 1  
    31   25   24 1  
    32   26   25 1  
    33   33   27 1  
    34   28   29 ar 
    35   28   33 ar 
    36   29   30 ar 
    37   30   31 ar 
    38   31   32 ar 
    39   32   33 ar 
    40   34   35 1  
    41   36   37 1  
    42   37   38 1  
    43   38   39 1  
    44   39   44 1  
    45   40   41 1  
    46   41   42 1  
    47   42   43 1  
    48   43   44 2  
    49    2   45 1  
    50    5   46 1  
    51    6   47 1  
    52   11   48 1  
    53   11   49 1  
    54   12   50 1  
    55   13   51 1  
    56   14   52 1  
    57   15   53 1  
    58   19   54 1  
    59   20   55 1  
    60   20   56 1  
    61   22   57 1  
    62   24   58 1  
    63   24   59 1  
    64   25   60 1  
    65   25   61 1  
    66   26   62 1  
    67   27   63 1  
    68   27   64 1  
    69   28   65 1  
    70   29   66 1  
    71   30   67 1  
    72   31   68 1  
    73   32   69 1  
    74   35   70 1  
    75   35   71 1  
    76   35   72 1  
    77   36   73 1  
    78   36   74 1  
    79   37   75 1  
    80   37   76 1  
    81   38   77 1  
    82   38   78 1  
    83   39   79 1  
    84   39   80 1  
    85   40   81 1  
    86   40   82 1  
    87   42   83 1  
    88   42   84 1  
    89   43   85 1  
    90   44   86 1  
@<TRIPOS>SUBSTRUCTURE
     1 GR7         1

