### 
### Created by X-TOOL on Wed Jan  1 15:39:35 2020
### 

@<TRIPOS>MOLECULE
5wlt_ligand
   40    40     1     0     0
SMALL
GAST_HUCK


@<TRIPOS>ATOM
      1 C01        -5.3720    2.8170   16.0370 C.ar      1 86B         0.0967
      2 C02        -6.1940    3.8460   15.7290 C.ar      1 86B        -0.0441
      3 C03        -5.6660    4.9080   15.0510 C.ar      1 86B        -0.0313
      4 C04        -4.3400    4.9800   14.6800 C.ar      1 86B         0.0913
      5 C05        -3.5400    3.9200   15.0090 C.ar      1 86B        -0.0313
      6 C06        -4.0600    2.8680   15.7030 C.ar      1 86B        -0.0441
      7 S07        -6.0460    1.3950   16.9510 S.o2      1 86B         0.0609
      8 O08        -5.5970    1.5140   18.2490 O.2       1 86B        -0.1519
      9 O09        -7.3470    1.5290   16.8880 O.2       1 86B        -0.1519
     10 N10        -5.3430    0.0530   16.2890 N.am      1 86B        -0.2621
     11 O11        -3.8510    6.0900   13.9940 O.3       1 86B        -0.3152
     12 C12        -2.5840    6.0160   13.5600 C.3       1 86B         0.1013
     13 C13        -2.2110    7.2770   12.7710 C.3       1 86B         0.1222
     14 C14        -1.9300    8.3580   13.7720 C.3       1 86B        -0.0042
     15 N15        -1.5750    9.5810   13.0330 N.4       1 86B         0.2307
     16 O16        -3.2130    7.6890   11.9690 O.3       1 86B        -0.3838
     17 C17        -1.5430   10.6650   13.9610 C.3       1 86B        -0.0283
     18 C18        -1.7340   11.9980   13.3420 C.3       1 86B        -0.0219
     19 C19        -0.3790   10.5300   14.9190 C.3       1 86B        -0.0219
     20 H1         -7.2404    3.8285   16.0117 H         1 86B         0.0608
     21 H2         -6.3202    5.7328   14.7926 H         1 86B         0.0542
     22 H3         -2.4956    3.9166   14.7187 H         1 86B         0.0542
     23 H4         -3.4079    2.0526   15.9946 H         1 86B         0.0608
     24 H5         -5.5697   -0.8552   16.6407 H         1 86B         0.1633
     25 H6         -4.6911    0.1495   15.5369 H         1 86B         0.1633
     26 H7         -2.4755    5.1363   12.9086 H         1 86B         0.0642
     27 H8         -1.9107    5.9176   14.4242 H         1 86B         0.0642
     28 H9         -1.3165    7.0789   12.1622 H         1 86B         0.0674
     29 H10        -1.0939    8.0579   14.4208 H         1 86B         0.0840
     30 H11        -2.8241    8.5394   14.3865 H         1 86B         0.0840
     31 H12        -2.2641    9.7617   12.3199 H         1 86B         0.2017
     32 H13        -0.6692    9.4709   12.6047 H         1 86B         0.2017
     33 H14        -3.4026    7.0135   11.3285 H         1 86B         0.2101
     34 H15        -2.4364   10.5310   14.5885 H         1 86B         0.0845
     35 H16        -1.6959   12.7731   14.1216 H         1 86B         0.0284
     36 H17        -2.7115   12.0319   12.8387 H         1 86B         0.0284
     37 H18        -0.9363   12.1784   12.6064 H         1 86B         0.0284
     38 H19        -0.3809   11.3777   15.6200 H         1 86B         0.0284
     39 H20         0.5637   10.5250   14.3522 H         1 86B         0.0284
     40 H21        -0.4739    9.5892   15.4811 H         1 86B         0.0284
@<TRIPOS>BOND
     1    1    2 ar 
     2    1    6 ar 
     3    1    7 1  
     4    2    3 ar 
     5    3    4 ar 
     6    4    5 ar 
     7    4   11 1  
     8    5    6 ar 
     9    7    8 2  
    10    7    9 2  
    11    7   10 am 
    12   11   12 1  
    13   12   13 1  
    14   13   14 1  
    15   13   16 1  
    16   14   15 1  
    17   15   17 1  
    18   17   18 1  
    19   17   19 1  
    20    2   20 1  
    21    3   21 1  
    22    5   22 1  
    23    6   23 1  
    24   10   24 1  
    25   10   25 1  
    26   12   26 1  
    27   12   27 1  
    28   13   28 1  
    29   14   29 1  
    30   14   30 1  
    31   15   31 1  
    32   15   32 1  
    33   16   33 1  
    34   17   34 1  
    35   18   35 1  
    36   18   36 1  
    37   18   37 1  
    38   19   38 1  
    39   19   39 1  
    40   19   40 1  
@<TRIPOS>SUBSTRUCTURE
     1 86B         1

