### 
### Created by X-TOOL on Wed Jan  1 15:39:35 2020
### 

@<TRIPOS>MOLECULE
5wlv_ligand
   60    61     1     0     0
SMALL
GAST_HUCK


@<TRIPOS>ATOM
      1 C01        -5.2970    2.3500   16.0930 C.ar      1 42G         0.1009
      2 C02        -4.0130    2.3740   15.6780 C.ar      1 42G        -0.0419
      3 C03        -3.5320    3.4540   15.0120 C.ar      1 42G        -0.0584
      4 C04        -4.3650    4.5060   14.7890 C.ar      1 42G        -0.0410
      5 C05        -5.6560    4.4780   15.1910 C.ar      1 42G        -0.0584
      6 C06        -6.1360    3.3910   15.8480 C.ar      1 42G        -0.0419
      7 S07        -5.9520    0.9040   17.0000 S.o2      1 42G         0.0628
      8 O08        -5.4790    0.9490   18.3360 O.2       1 42G        -0.1514
      9 O09        -7.3390    1.0310   16.9350 O.2       1 42G        -0.1514
     10 N10        -5.3240   -0.4890   16.2970 N.am      1 42G        -0.2617
     11 C11        -3.8760    5.7230   14.0460 C.3       1 42G         0.0010
     12 C12        -4.8710    5.8690   12.9210 C.3       1 42G         0.0397
     13 N13        -4.6570    7.0460   12.1450 N.am      1 42G        -0.2858
     14 C14        -5.6450    7.5120   11.1890 C.2       1 42G         0.1969
     15 O15        -6.6130    6.9200   10.9540 O.2       1 42G        -0.3898
     16 C16        -5.1330    8.7330   10.4260 C.ar      1 42G         0.0385
     17 C17        -5.8690    9.3750    9.4830 C.ar      1 42G        -0.0504
     18 C18        -5.3320   10.4300    8.7650 C.ar      1 42G        -0.0269
     19 C19        -4.0170   10.8150    8.9520 C.ar      1 42G         0.0967
     20 C20        -3.2720   10.1450    9.8850 C.ar      1 42G        -0.0269
     21 C21        -3.8210    9.0720   10.5900 C.ar      1 42G        -0.0504
     22 O22        -3.4780   11.8710    8.2070 O.3       1 42G        -0.3118
     23 C23        -3.6070   11.6880    6.8240 C.3       1 42G         0.1025
     24 C24        -2.5100   12.4240    6.0870 C.3       1 42G         0.1224
     25 O25        -1.3240   11.7230    6.2290 O.3       1 42G        -0.3838
     26 C26        -2.4430   13.8440    6.6560 C.3       1 42G        -0.0042
     27 N27        -1.6850   14.0470    7.8920 N.4       1 42G         0.2307
     28 C28        -0.4350   14.6500    7.5020 C.3       1 42G        -0.0283
     29 C29        -0.0680   15.9460    8.1980 C.3       1 42G        -0.0219
     30 C30         0.7820   13.7570    7.4940 C.3       1 42G        -0.0219
     31 H1         -3.3644    1.5286   15.8772 H         1 42G         0.0619
     32 H2         -2.5053    3.4779   14.6649 H         1 42G         0.0557
     33 H3         -6.3062    5.3216   14.9891 H         1 42G         0.0557
     34 H4         -7.1700    3.3540   16.1714 H         1 42G         0.0619
     35 H5         -5.5710   -1.3874   16.6602 H         1 42G         0.1634
     36 H6         -4.7036   -0.4188   15.5158 H         1 42G         0.1634
     37 H7         -2.8603    5.5637   13.6549 H         1 42G         0.0446
     38 H8         -3.8837    6.6104   14.6959 H         1 42G         0.0446
     39 H9         -5.8832    5.9097   13.3497 H         1 42G         0.0542
     40 H10        -4.7871    4.9928   12.2613 H         1 42G         0.0542
     41 H11        -3.8081    7.5615   12.2619 H         1 42G         0.1843
     42 H12        -6.8876    9.0583    9.2902 H         1 42G         0.0642
     43 H13        -5.9491   10.9600    8.0485 H         1 42G         0.0556
     44 H14        -2.2496   10.4494   10.0776 H         1 42G         0.0556
     45 H15        -3.2002    8.5036   11.2731 H         1 42G         0.0642
     46 H16        -4.5841   12.0737    6.4975 H         1 42G         0.0644
     47 H17        -3.5408   10.6145    6.5932 H         1 42G         0.0644
     48 H18        -2.7567   12.4817    5.0166 H         1 42G         0.0674
     49 H19        -0.6302   12.1800    5.7682 H         1 42G         0.2101
     50 H20        -3.4759   14.1705    6.8468 H         1 42G         0.0840
     51 H21        -1.9920   14.4859    5.8850 H         1 42G         0.0840
     52 H22        -1.5195   13.1642    8.3495 H         1 42G         0.2017
     53 H23        -2.1890   14.6589    8.5146 H         1 42G         0.2017
     54 H24        -0.5974   14.9231    6.4489 H         1 42G         0.0845
     55 H25         0.8998   16.3050    7.8179 H         1 42G         0.0284
     56 H26         0.0054   15.7722    9.2817 H         1 42G         0.0284
     57 H27        -0.8428   16.7011    7.9993 H         1 42G         0.0284
     58 H28         1.6614   14.3385    7.1801 H         1 42G         0.0284
     59 H29         0.6223   12.9258    6.7915 H         1 42G         0.0284
     60 H30         0.9492   13.3560    8.5046 H         1 42G         0.0284
@<TRIPOS>BOND
     1    1    2 ar 
     2    1    6 ar 
     3    1    7 1  
     4    2    3 ar 
     5    3    4 ar 
     6    4    5 ar 
     7    4   11 1  
     8    5    6 ar 
     9    7    8 2  
    10    7    9 2  
    11    7   10 am 
    12   11   12 1  
    13   12   13 1  
    14   13   14 am 
    15   14   15 2  
    16   14   16 1  
    17   16   17 ar 
    18   16   21 ar 
    19   17   18 ar 
    20   18   19 ar 
    21   19   20 ar 
    22   19   22 1  
    23   20   21 ar 
    24   22   23 1  
    25   23   24 1  
    26   24   25 1  
    27   24   26 1  
    28   26   27 1  
    29   27   28 1  
    30   28   29 1  
    31   28   30 1  
    32    2   31 1  
    33    3   32 1  
    34    5   33 1  
    35    6   34 1  
    36   10   35 1  
    37   10   36 1  
    38   11   37 1  
    39   11   38 1  
    40   12   39 1  
    41   12   40 1  
    42   13   41 1  
    43   17   42 1  
    44   18   43 1  
    45   20   44 1  
    46   21   45 1  
    47   23   46 1  
    48   23   47 1  
    49   24   48 1  
    50   25   49 1  
    51   26   50 1  
    52   26   51 1  
    53   27   52 1  
    54   27   53 1  
    55   28   54 1  
    56   29   55 1  
    57   29   56 1  
    58   29   57 1  
    59   30   58 1  
    60   30   59 1  
    61   30   60 1  
@<TRIPOS>SUBSTRUCTURE
     1 42G         1

