### 
### Created by X-TOOL on Mon Aug  2 16:12:17 2021
### 

@<TRIPOS>MOLECULE
5wmg_ligand
   54    58     1     0     0
SMALL
GAST_HUCK


@<TRIPOS>ATOM
      1 C26        -9.0210  -11.9630    4.9260 C.2       1 MOL         0.1461
      2 C11       -14.8970  -12.9900    1.3940 C.ar      1 MOL        -0.0294
      3 C14       -13.6650  -15.2010    1.4020 C.3       1 MOL         0.1121
      4 C20       -11.4410  -13.7220    5.8240 C.ar      1 MOL        -0.0093
      5 C16       -14.8680  -15.5080    3.5910 C.2       1 MOL         0.0496
      6 C22        -9.5270  -10.9820    5.9040 C.3       1 MOL         0.0129
      7 O1        -18.7990  -15.7290    9.9130 O.co2     1 MOL        -0.5625
      8 O2        -19.5520  -17.4020    8.6140 O.co2     1 MOL        -0.5625
      9 N4        -13.2680  -13.4820   -0.3060 N.ar      1 MOL        -0.2950
     10 C5        -13.5540  -12.2810   -0.8590 C.ar      1 MOL         0.0029
     11 C7        -14.4910  -11.3980   -0.3570 C.ar      1 MOL        -0.0410
     12 C9        -15.1700  -11.7650    0.7940 C.ar      1 MOL        -0.0488
     13 C13       -13.9380  -13.8260    0.8180 C.ar      1 MOL         0.0606
     14 N18       -13.7720  -15.1280    2.8610 N.pl3     1 MOL        -0.2370
     15 N19       -12.6660  -14.2240    6.0900 N.ar      1 MOL        -0.3216
     16 O27        -7.7530  -11.7700    4.4690 O.3       1 MOL        -0.1738
     17 N28        -7.4300  -12.7730    3.5680 N.2       1 MOL        -0.1674
     18 C29        -8.4790  -14.7390    2.5860 C.3       1 MOL        -0.0270
     19 C33        -8.5050  -13.5580    3.4890 C.2       1 MOL         0.0233
     20 C34        -9.5450  -13.0850    4.3300 C.2       1 MOL         0.0210
     21 C35       -10.8640  -13.6150    4.5600 C.ar      1 MOL        -0.0247
     22 C36       -11.5850  -14.0650    3.4650 C.ar      1 MOL        -0.0267
     23 C38       -12.8440  -14.5910    3.7130 C.ar      1 MOL         0.0915
     24 C39       -13.3610  -14.6640    5.0100 C.ar      1 MOL         0.0471
     25 C40       -14.6500  -15.2610    4.9370 C.2       1 MOL         0.0036
     26 C41       -16.7510  -15.1010    8.0780 C.ar      1 MOL        -0.0542
     27 C43       -15.7540  -14.8250    7.1330 C.ar      1 MOL        -0.0604
     28 C45       -15.6610  -15.5660    5.9470 C.ar      1 MOL        -0.0358
     29 C46       -16.5930  -16.5860    5.7390 C.ar      1 MOL        -0.0604
     30 C48       -17.5820  -16.8620    6.6800 C.ar      1 MOL        -0.0542
     31 C50       -17.6770  -16.1320    7.8680 C.ar      1 MOL         0.0036
     32 C51       -18.7580  -16.4440    8.8710 C.2       1 MOL         0.0586
     33 C52       -14.6710  -16.1890    0.8060 C.3       1 MOL        -0.0225
     34 H1        -15.4203  -13.2909    2.2944 H         1 MOL         0.0652
     35 H2        -12.6470  -15.5204    1.1343 H         1 MOL         0.0837
     36 H3        -10.8558  -13.3719    6.6666 H         1 MOL         0.0699
     37 H4        -15.7765  -15.9404    3.1745 H         1 MOL         0.1048
     38 H5        -10.5548  -11.2481    6.1920 H         1 MOL         0.0468
     39 H6         -9.5206   -9.9785    5.4536 H         1 MOL         0.0468
     40 H7         -8.8832  -10.9878    6.7959 H         1 MOL         0.0468
     41 H8        -13.0135  -11.9928   -1.7533 H         1 MOL         0.0803
     42 H9        -14.6881  -10.4511   -0.8466 H         1 MOL         0.0652
     43 H10       -15.9104  -11.1006    1.2247 H         1 MOL         0.0719
     44 H11        -9.4416  -15.2680    2.6464 H         1 MOL         0.0379
     45 H12        -7.6684  -15.4167    2.8919 H         1 MOL         0.0379
     46 H13        -8.3079  -14.4060    1.5517 H         1 MOL         0.0379
     47 H14       -11.1828  -14.0083    2.4600 H         1 MOL         0.0599
     48 H15       -16.8070  -14.5088    8.9842 H         1 MOL         0.0633
     49 H16       -15.0447  -14.0273    7.3218 H         1 MOL         0.0571
     50 H17       -16.5455  -17.1730    4.8289 H         1 MOL         0.0571
     51 H18       -18.2917  -17.6584    6.4872 H         1 MOL         0.0633
     52 H19       -14.5572  -16.2131   -0.2878 H         1 MOL         0.0284
     53 H20       -15.6926  -15.8710    1.0614 H         1 MOL         0.0284
     54 H21       -14.4861  -17.1928    1.2160 H         1 MOL         0.0284
@<TRIPOS>BOND
     1    1    6 1  
     2    1   16 1  
     3   20    1 2  
     4    2   12 ar 
     5   13    2 ar 
     6    3   13 1  
     7   14    3 1  
     8    3   33 1  
     9   15    4 ar 
    10    4   21 ar 
    11    5   14 1  
    12   25    5 2  
    13   32    7 ar 
    14   32    8 ar 
    15    9   10 ar 
    16   13    9 ar 
    17   10   11 ar 
    18   12   11 ar 
    19   23   14 1  
    20   24   15 ar 
    21   17   16 1  
    22   19   17 2  
    23   19   18 1  
    24   20   19 1  
    25   21   20 1  
    26   22   21 ar 
    27   23   22 ar 
    28   24   23 ar 
    29   25   24 1  
    30   28   25 1  
    31   26   27 ar 
    32   31   26 ar 
    33   27   28 ar 
    34   29   28 ar 
    35   30   29 ar 
    36   31   30 ar 
    37   31   32 1  
    38    2   34 1  
    39    3   35 1  
    40    4   36 1  
    41    5   37 1  
    42    6   38 1  
    43    6   39 1  
    44    6   40 1  
    45   10   41 1  
    46   11   42 1  
    47   12   43 1  
    48   18   44 1  
    49   18   45 1  
    50   18   46 1  
    51   22   47 1  
    52   26   48 1  
    53   27   49 1  
    54   29   50 1  
    55   30   51 1  
    56   33   52 1  
    57   33   53 1  
    58   33   54 1  
@<TRIPOS>SUBSTRUCTURE
     1 MOL         1

