### 
### Created by X-TOOL on Wed Jan  1 15:39:37 2020
### 

@<TRIPOS>MOLECULE
5wmt_ligand
   46    48     1     0     0
SMALL
GAST_HUCK


@<TRIPOS>ATOM
      1 CAA       -11.2600  -30.2980  -47.5150 C.3       1 9QY         0.0640
      2 CAF        -9.0430  -25.3840  -46.2710 C.ar      1 9QY        -0.0687
      3 CAG        -9.6940  -24.5610  -45.3590 C.ar      1 9QY        -0.0685
      4 CAH        -9.2310  -26.7600  -46.2130 C.ar      1 9QY        -0.0685
      5 CAI       -13.8000  -24.6720  -41.8780 C.2       1 9QY        -0.0364
      6 CAJ       -10.5280  -25.1090  -44.3910 C.ar      1 9QY        -0.0577
      7 CAK       -10.0660  -27.3060  -45.2460 C.ar      1 9QY        -0.0577
      8 CAL       -12.5920  -25.2280  -42.0000 C.2       1 9QY         0.0301
      9 CAM       -16.3390  -28.5840  -48.8000 C.ar      1 9QY        -0.0048
     10 CAN       -14.4810  -27.1670  -44.4070 C.3       1 9QY         0.0339
     11 CAO       -14.0690  -26.6980  -45.8040 C.3       1 9QY        -0.0037
     12 CAP       -11.5460  -27.0720  -43.3680 C.3       1 9QY         0.0909
     13 CAS       -13.2120  -29.2180  -46.9780 C.2       1 9QY         0.2442
     14 CAT       -10.7230  -26.4850  -44.3330 C.ar      1 9QY        -0.0128
     15 CAU       -16.7400  -27.3820  -48.2320 C.ar      1 9QY         0.0927
     16 CAV       -15.1560  -29.1570  -48.3530 C.ar      1 9QY         0.0967
     17 CAW       -15.9850  -26.7660  -47.2410 C.ar      1 9QY         0.0633
     18 CAX       -13.9180  -26.2160  -43.3470 C.2       1 9QY         0.1180
     19 CAY       -14.8030  -27.3540  -46.7940 C.ar      1 9QY        -0.0206
     20 CAZ       -14.3820  -28.5640  -47.3610 C.ar      1 9QY         0.0814
     21 NAQ       -14.6310  -25.2880  -42.7170 N.2       1 9QY        -0.3386
     22 NBA       -12.6570  -26.1880  -42.9240 N.pl3     1 9QY        -0.2388
     23 OAB       -12.9730  -29.4890  -45.8020 O.2       1 9QY        -0.3727
     24 OAC       -17.8800  -26.7420  -48.6080 O.3       1 9QY        -0.3331
     25 OAD       -14.6900  -30.3320  -48.8550 O.3       1 9QY        -0.3314
     26 OAR       -12.4050  -29.5900  -48.0110 O.3       1 9QY        -0.2852
     27 CL        -16.5310  -25.2670  -46.5600 Cl        1 9QY        -0.0937
     28 H1        -10.6175  -30.5923  -48.3579 H         1 9QY         0.0574
     29 H2        -11.5907  -31.1972  -46.9746 H         1 9QY         0.0574
     30 H3        -10.6939  -29.6473  -46.8323 H         1 9QY         0.0574
     31 H4         -8.3919  -24.9546  -47.0238 H         1 9QY         0.0559
     32 H5         -9.5507  -23.4874  -45.4029 H         1 9QY         0.0599
     33 H6         -8.7265  -27.4067  -46.9218 H         1 9QY         0.0599
     34 H7        -14.0610  -23.8547  -41.2073 H         1 9QY         0.0408
     35 H8        -11.0278  -24.4619  -43.6793 H         1 9QY         0.0558
     36 H9        -10.2072  -28.3799  -45.2019 H         1 9QY         0.0558
     37 H10       -11.7025  -24.9450  -41.4390 H         1 9QY         0.0797
     38 H11       -16.9330  -29.0616  -49.5708 H         1 9QY         0.0423
     39 H12       -14.0889  -28.1798  -44.2325 H         1 9QY         0.0522
     40 H13       -15.5786  -27.1816  -44.3368 H         1 9QY         0.0522
     41 H14       -12.9994  -26.9080  -45.9520 H         1 9QY         0.0467
     42 H15       -14.2448  -25.6152  -45.8853 H         1 9QY         0.0467
     43 H16       -10.9307  -27.3257  -42.4922 H         1 9QY         0.0782
     44 H17       -11.9788  -27.9907  -43.7906 H         1 9QY         0.0782
     45 H18       -18.3157  -27.2455  -49.2855 H         1 9QY         0.2502
     46 H19       -15.2882  -30.6500  -49.5210 H         1 9QY         0.2508
@<TRIPOS>BOND
     1   26    1 1  
     2    3    2 ar 
     3    4    2 ar 
     4    6    3 ar 
     5    7    4 ar 
     6    5    8 2  
     7   21    5 1  
     8   14    6 ar 
     9   14    7 ar 
    10    8   22 1  
    11   15    9 ar 
    12    9   16 ar 
    13   10   11 1  
    14   18   10 1  
    15   11   19 1  
    16   12   14 1  
    17   22   12 1  
    18   20   13 1  
    19   13   23 2  
    20   13   26 1  
    21   17   15 ar 
    22   15   24 1  
    23   16   20 ar 
    24   16   25 1  
    25   19   17 ar 
    26   17   27 1  
    27   18   21 2  
    28   18   22 1  
    29   19   20 ar 
    30    1   28 1  
    31    1   29 1  
    32    1   30 1  
    33    2   31 1  
    34    3   32 1  
    35    4   33 1  
    36    5   34 1  
    37    6   35 1  
    38    7   36 1  
    39    8   37 1  
    40    9   38 1  
    41   10   39 1  
    42   10   40 1  
    43   11   41 1  
    44   11   42 1  
    45   12   43 1  
    46   12   44 1  
    47   24   45 1  
    48   25   46 1  
@<TRIPOS>SUBSTRUCTURE
     1 9QY         1

