### 
### Created by X-TOOL on Mon Sep 10 21:13:32 2018
### 

@<TRIPOS>MOLECULE
5wo4_ligand
   44    46     1     0     0
SMALL
GAST_HUCK


@<TRIPOS>ATOM
      1 C1          5.7530   59.8170    0.1760 C.2       1 B7V         0.1805
      2 C2          5.7940   57.3340    0.8550 C.2       1 B7V         0.0705
      3 C3          6.5640   54.9230    1.0310 C.3       1 B7V         0.1284
      4 C7          7.6130   54.5240    2.1220 C.3       1 B7V         0.1196
      5 C8          7.3290   55.2500    3.3650 C.1       1 B7V         0.0965
      6 C9          7.5710   58.0110   -0.2890 C.2       1 B7V         0.1257
      7 C10         9.5940   58.6080   -1.6730 C.ar      1 B7V         0.0477
      8 C11        10.1740   57.3450   -1.5960 C.ar      1 B7V        -0.0121
      9 C12        11.3700   57.0830   -2.2540 C.ar      1 B7V         0.0944
     10 C13        11.4920   54.8420   -1.3720 C.3       1 B7V         0.0593
     11 C14        11.9460   58.0870   -3.0280 C.ar      1 B7V         0.0545
     12 C15        11.3730   59.3450   -3.1050 C.ar      1 B7V        -0.0669
     13 C16        10.1960   59.6070   -2.4280 C.ar      1 B7V        -0.0507
     14 CL         13.4130   57.7660   -3.8880 Cl        1 B7V        -0.0899
     15 O2         12.0730   55.9130   -2.1360 O.3       1 B7V        -0.3235
     16 N4          8.3710   58.8580   -1.0100 N.pl3     1 B7V        -0.2743
     17 C           6.3190   58.4510    0.2660 C.2       1 B7V         0.0900
     18 N           4.6410   60.0550    0.8540 N.am      1 B7V        -0.3055
     19 O           6.3270   60.6750   -0.4940 O.2       1 B7V        -0.4025
     20 N3          7.7920   56.7450   -0.0450 N.2       1 B7V        -0.2077
     21 N1          6.6780   56.3460    0.6490 N.pl3     1 B7V        -0.2055
     22 N2          7.1360   55.7880    4.3470 N.1       1 B7V        -0.3032
     23 C6          7.5290   53.0100    2.3790 C.3       1 B7V         0.0002
     24 C5          7.6920   52.2550    1.0810 C.3       1 B7V         0.0501
     25 O1          6.6940   52.6080    0.1160 O.3       1 B7V        -0.3764
     26 C4          6.7390   54.0200   -0.1940 C.3       1 B7V         0.0819
     27 H1          4.8461   57.2609    1.3861 H         1 B7V         0.1080
     28 H2          5.5576   54.7610    1.4443 H         1 B7V         0.0718
     29 H3          8.6233   54.7809    1.7709 H         1 B7V         0.0626
     30 H4          9.6913   56.5631   -1.0209 H         1 B7V         0.0445
     31 H5         12.1742   53.9791   -1.3727 H         1 B7V         0.0578
     32 H6         10.5313   54.5502   -1.8214 H         1 B7V         0.0578
     33 H7         11.3262   55.1774   -0.3376 H         1 B7V         0.0578
     34 H8         11.8457   60.1224   -3.6943 H         1 B7V         0.0565
     35 H9          9.7437   60.5904   -2.4863 H         1 B7V         0.0438
     36 H10         8.0281   59.8268   -1.0796 H         1 B7V         0.2058
     37 H11         4.2216   60.9623    0.8240 H         1 B7V         0.1797
     38 H12         4.2205   59.3275    1.3961 H         1 B7V         0.1797
     39 H13         6.5504   52.7692    2.8198 H         1 B7V         0.0312
     40 H14         8.3276   52.7140    3.0751 H         1 B7V         0.0312
     41 H15         7.6183   51.1771    1.2874 H         1 B7V         0.0560
     42 H16         8.6838   52.4813    0.6626 H         1 B7V         0.0560
     43 H17         7.7124   54.2439   -0.6548 H         1 B7V         0.0593
     44 H18         5.9342   54.2447   -0.9094 H         1 B7V         0.0593
@<TRIPOS>BOND
     1   17    1 1  
     2    1   18 am 
     3    1   19 2  
     4   17    2 2  
     5    2   21 1  
     6    3    4 1  
     7   21    3 1  
     8    3   26 1  
     9    4    5 1  
    10    4   23 1  
    11    5   22 3  
    12   16    6 1  
    13    6   17 1  
    14    6   20 2  
    15    7    8 ar 
    16    7   13 ar 
    17    7   16 1  
    18    8    9 ar 
    19    9   11 ar 
    20    9   15 1  
    21   15   10 1  
    22   11   12 ar 
    23   11   14 1  
    24   12   13 ar 
    25   20   21 1  
    26   23   24 1  
    27   24   25 1  
    28   25   26 1  
    29    2   27 1  
    30    3   28 1  
    31    4   29 1  
    32    8   30 1  
    33   10   31 1  
    34   10   32 1  
    35   10   33 1  
    36   12   34 1  
    37   13   35 1  
    38   16   36 1  
    39   18   37 1  
    40   18   38 1  
    41   23   39 1  
    42   23   40 1  
    43   24   41 1  
    44   24   42 1  
    45   26   43 1  
    46   26   44 1  
@<TRIPOS>SUBSTRUCTURE
     1 B7V         1

