### 
### Created by X-TOOL on Mon Sep 10 21:13:31 2018
### 

@<TRIPOS>MOLECULE
5wp5_ligand
   46    48     1     0     0
SMALL
GAST_HUCK


@<TRIPOS>ATOM
      1 N           5.9470    9.3490  -49.6120 N.4       1 SAH         0.2327
      2 CA          5.3870    8.9960  -48.2930 C.3       1 SAH         0.0291
      3 CB          3.9060    8.4700  -48.4480 C.3       1 SAH         0.0114
      4 CG          3.7620    7.1040  -49.1220 C.3       1 SAH         0.0005
      5 SD          2.0780    6.4160  -49.2850 S.3       1 SAH        -0.1578
      6 C           6.2980    8.0440  -47.6410 C.2       1 SAH         0.0844
      7 O           7.0470    7.3810  -48.3360 O.co2     1 SAH        -0.5643
      8 OXT         6.1650    7.7890  -46.4600 O.co2     1 SAH        -0.5643
      9 C5'         1.3080    7.2580  -50.6940 C.3       1 SAH         0.0226
     10 C4'         0.7000    8.5310  -50.4620 C.3       1 SAH         0.0995
     11 O4'         0.2290    9.0680  -51.7240 O.3       1 SAH        -0.3383
     12 C3'        -0.5030    8.3900  -49.6150 C.3       1 SAH         0.1132
     13 O3'        -0.2910    9.1430  -48.4380 O.3       1 SAH        -0.3864
     14 C2'        -1.6190    8.9200  -50.4080 C.3       1 SAH         0.1385
     15 O2'        -2.5350    9.6590  -49.6270 O.3       1 SAH        -0.3836
     16 C1'        -0.9480    9.7480  -51.4500 C.3       1 SAH         0.2009
     17 N9         -1.7630    9.9880  -52.6960 N.pl3     1 SAH        -0.1919
     18 C8         -2.4950    9.1310  -53.4260 C.2       1 SAH         0.1123
     19 N7         -2.9800    9.8230  -54.4620 N.2       1 SAH        -0.2958
     20 C5         -2.5540   11.0940  -54.3970 C.ar      1 SAH         0.1045
     21 C6         -2.7450   12.2370  -55.1940 C.ar      1 SAH         0.1298
     22 N6         -3.5550   12.2010  -56.3050 N.pl3     1 SAH        -0.3152
     23 N1         -2.1500   13.3870  -54.8220 N.ar      1 SAH        -0.2698
     24 C2         -1.3870   13.4600  -53.7250 C.ar      1 SAH         0.0533
     25 N3         -1.1880   12.3770  -52.9400 N.ar      1 SAH        -0.2714
     26 C4         -1.7570   11.2000  -53.2570 C.ar      1 SAH         0.1613
     27 H1          5.3336   10.0023  -50.0735 H         1 SAH         0.2010
     28 H2          6.0349    8.5165  -50.1735 H         1 SAH         0.2010
     29 H3          6.8550    9.7694  -49.4900 H         1 SAH         0.2010
     30 H4          5.3507    9.9043  -47.6737 H         1 SAH         0.1024
     31 H5          3.3459    9.2041  -49.0458 H         1 SAH         0.0347
     32 H6          3.4634    8.4010  -47.4433 H         1 SAH         0.0347
     33 H7          4.3564    6.3850  -48.5392 H         1 SAH         0.0379
     34 H8          4.1817    7.1908  -50.1351 H         1 SAH         0.0379
     35 H9          0.5285    6.5898  -51.0888 H         1 SAH         0.0402
     36 H10         2.0882    7.4017  -51.4560 H         1 SAH         0.0402
     37 H11         1.4252    9.2117  -49.9922 H         1 SAH         0.0632
     38 H12        -0.6851    7.3361  -49.3579 H         1 SAH         0.0647
     39 H13        -0.1528   10.0546  -48.6672 H         1 SAH         0.2100
     40 H14        -2.1657    8.0927  -50.8840 H         1 SAH         0.0676
     41 H15        -2.0863   10.3936  -49.2252 H         1 SAH         0.2101
     42 H16        -0.7097   10.7322  -51.0204 H         1 SAH         0.0996
     43 H17        -2.6615    8.0757  -53.2148 H         1 SAH         0.1349
     44 H18        -3.6829   13.0481  -56.8767 H         1 SAH         0.1820
     45 H19        -4.0337   11.3269  -56.5653 H         1 SAH         0.1820
     46 H20        -0.9209   14.4025  -53.4614 H         1 SAH         0.0996
@<TRIPOS>BOND
     1    1    2 1  
     2    2    3 1  
     3    2    6 1  
     4    3    4 1  
     5    4    5 1  
     6    5    9 1  
     7    6    7 ar 
     8    6    8 ar 
     9    9   10 1  
    10   10   11 1  
    11   10   12 1  
    12   11   16 1  
    13   12   13 1  
    14   12   14 1  
    15   14   15 1  
    16   14   16 1  
    17   16   17 1  
    18   17   18 1  
    19   17   26 1  
    20   18   19 2  
    21   19   20 1  
    22   20   21 ar 
    23   20   26 ar 
    24   21   22 1  
    25   21   23 ar 
    26   23   24 ar 
    27   24   25 ar 
    28   25   26 ar 
    29    1   27 1  
    30    1   28 1  
    31    1   29 1  
    32    2   30 1  
    33    3   31 1  
    34    3   32 1  
    35    4   33 1  
    36    4   34 1  
    37    9   35 1  
    38    9   36 1  
    39   10   37 1  
    40   12   38 1  
    41   13   39 1  
    42   14   40 1  
    43   15   41 1  
    44   16   42 1  
    45   18   43 1  
    46   22   44 1  
    47   22   45 1  
    48   24   46 1  
@<TRIPOS>SUBSTRUCTURE
     1 SAH         1

