### 
### Created by X-TOOL on Fri Nov  2 11:06:27 2018
### 

@<TRIPOS>MOLECULE
5wpb_ligand
   37    39     1     0     0
SMALL
GAST_HUCK


@<TRIPOS>ATOM
      1 C4         -1.4850    4.6310    8.7320 C.ar      1 B8P         0.0534
      2 C2          0.4810    2.7770    8.4940 C.ar      1 B8P         0.0967
      3 N1          0.1410    3.4000    7.3980 N.ar      1 B8P        -0.2777
      4 C6         -2.8880    6.2290    7.6180 C.ar      1 B8P        -0.0576
      5 C5         -2.5150    5.5940    8.7650 C.ar      1 B8P        -0.0411
      6 O2          4.4060    3.9810    7.4560 O.co2     1 B8P        -0.5688
      7 C16         3.5460    3.5320    8.1360 C.2       1 B8P         0.0372
      8 O1          3.2070    4.0840    9.2830 O.co2     1 B8P        -0.5688
      9 C           2.8090    2.3020    7.6510 C.3       1 B8P         0.0132
     10 C1          1.6400    1.8220    8.5030 C.3       1 B8P         0.0177
     11 C9         -0.8450    4.3490    7.4960 C.ar      1 B8P         0.0550
     12 C8         -1.2400    5.0560    6.3390 C.ar      1 B8P        -0.0403
     13 C7         -2.2330    5.9810    6.4130 C.ar      1 B8P        -0.0574
     14 N          -1.1480    3.9700    9.8830 N.ar      1 B8P        -0.2571
     15 C3         -0.2110    3.0800    9.7540 C.ar      1 B8P         0.2057
     16 O           0.1560    2.3280   10.8050 O.3       1 B8P        -0.2738
     17 C10        -0.4830    2.6030   12.0700 C.3       1 B8P         0.1255
     18 C11        -0.0130    1.5590   13.0390 C.ar      1 B8P         0.0594
     19 N2         -0.4160    0.3060   12.7690 N.ar      1 B8P        -0.2953
     20 C15         0.0370   -0.6740   13.5630 C.ar      1 B8P         0.0029
     21 C14         0.8750   -0.4610   14.6320 C.ar      1 B8P        -0.0410
     22 C13         1.2860    0.8220   14.8850 C.ar      1 B8P        -0.0488
     23 C12         0.8430    1.8550   14.0850 C.ar      1 B8P        -0.0297
     24 H1         -3.7073    6.9383    7.6434 H         1 B8P         0.0643
     25 H2         -3.0091    5.8287    9.7009 H         1 B8P         0.0632
     26 H3          3.5370    1.4796    7.5911 H         1 B8P         0.0457
     27 H4          2.4202    2.5216    6.6457 H         1 B8P         0.0457
     28 H5          1.2981    0.8511    8.1151 H         1 B8P         0.0489
     29 H6          1.9874    1.7010    9.5397 H         1 B8P         0.0489
     30 H7         -0.7510    4.8608    5.3915 H         1 B8P         0.0643
     31 H8         -2.5189    6.5323    5.5245 H         1 B8P         0.0634
     32 H9         -1.5762    2.5502   11.9597 H         1 B8P         0.0819
     33 H10        -0.1983    3.6039   12.4266 H         1 B8P         0.0819
     34 H11        -0.2744   -1.6904   13.3508 H         1 B8P         0.0803
     35 H12         1.2014   -1.2843   15.2570 H         1 B8P         0.0652
     36 H13         1.9574    1.0244   15.7116 H         1 B8P         0.0719
     37 H14         1.1583    2.8752   14.2716 H         1 B8P         0.0652
@<TRIPOS>BOND
     1    1    5 ar 
     2   11    1 ar 
     3    1   14 ar 
     4    2    3 ar 
     5   10    2 1  
     6    2   15 ar 
     7    3   11 ar 
     8    5    4 ar 
     9    4   13 ar 
    10    7    6 ar 
    11    7    8 ar 
    12    9    7 1  
    13    9   10 1  
    14   11   12 ar 
    15   12   13 ar 
    16   14   15 ar 
    17   15   16 1  
    18   16   17 1  
    19   17   18 1  
    20   18   19 ar 
    21   18   23 ar 
    22   19   20 ar 
    23   20   21 ar 
    24   21   22 ar 
    25   22   23 ar 
    26    4   24 1  
    27    5   25 1  
    28    9   26 1  
    29    9   27 1  
    30   10   28 1  
    31   10   29 1  
    32   12   30 1  
    33   13   31 1  
    34   17   32 1  
    35   17   33 1  
    36   20   34 1  
    37   21   35 1  
    38   22   36 1  
    39   23   37 1  
@<TRIPOS>SUBSTRUCTURE
     1 B8P         1

