### 
### Created by X-TOOL on Mon Sep 10 21:13:34 2018
### 

@<TRIPOS>MOLECULE
5wqa_ligand
   67    72     1     0     0
SMALL
GAST_HUCK


@<TRIPOS>ATOM
      1 O41       -25.3660    5.3720   22.9130 O.2       1 J20        -0.3640
      2 C40       -25.4820    5.0370   24.0860 C.2       1 J20         0.1289
      3 C12       -26.3110    5.8500   25.0140 C.ar      1 J20         0.0554
      4 C13       -26.4040    5.5310   26.3820 C.ar      1 J20         0.0353
      5 C16       -25.8150    4.4890   26.8740 C.1       1 J20        -0.0481
      6 C17       -25.2720    3.5240   27.3000 C.1       1 J20        -0.0549
      7 C18       -24.7050    2.4540   27.7480 C.ar      1 J20         0.0231
      8 C19       -25.1680    1.7790   28.8730 C.ar      1 J20        -0.0507
      9 C20       -24.5140    0.6270   29.3190 C.ar      1 J20        -0.0285
     10 C21       -23.4090    0.1420   28.6300 C.ar      1 J20         0.0919
     11 O39       -22.7710   -0.9880   29.0350 O.3       1 J20        -0.3303
     12 C22       -22.9540    0.8100   27.5020 C.ar      1 J20        -0.0285
     13 C23       -23.5990    1.9590   27.0650 C.ar      1 J20        -0.0507
     14 C8        -27.1950    6.3180   27.2230 C.ar      1 J20        -0.0840
     15 C7        -27.8540    7.4170   26.6770 C.ar      1 J20        -0.0293
     16 C10       -27.7650    7.7550   25.3360 C.ar      1 J20        -0.0398
     17 C11       -26.9890    6.9620   24.5010 C.ar      1 J20        -0.0296
     18 C9        -27.4880    6.2580   28.7070 C.3       1 J20        -0.0381
     19 C5        -28.4190    7.4270   28.8570 C.ar      1 J20        -0.1072
     20 C6        -29.0380    7.9170   29.9970 C.ar      1 J20        -0.0339
     21 C1        -29.8310    9.0570   29.9030 C.ar      1 J20         0.1036
     22 O37       -30.4420    9.5170   31.0310 O.3       1 J20        -0.3276
     23 C2        -29.9950    9.7110   28.6770 C.ar      1 J20        -0.0174
     24 C3        -29.3620    9.2260   27.5300 C.ar      1 J20        -0.0507
     25 C4        -28.5760    8.0820   27.6510 C.ar      1 J20        -0.0348
     26 C14       -28.1420    4.9580   29.1320 C.ar      1 J20        -0.1062
     27 C29       -28.9310    4.2570   28.2260 C.ar      1 J20        -0.0670
     28 C30       -29.5440    3.0600   28.5740 C.ar      1 J20        -0.0133
     29 C31       -29.3890    2.5390   29.8570 C.ar      1 J20         0.1139
     30 O34       -29.9680    1.3600   30.2570 O.3       1 J20        -0.3060
     31 C38       -31.0170    0.6880   29.5550 C.3       1 J20         0.0651
     32 C32       -28.6080    3.2340   30.7750 C.ar      1 J20        -0.0133
     33 C33       -27.9920    4.4330   30.4230 C.ar      1 J20        -0.0670
     34 C15       -26.1960    6.5960   29.4430 C.ar      1 J20        -0.1062
     35 C24       -25.3120    5.6100   29.8780 C.ar      1 J20        -0.0670
     36 C25       -24.1430    5.9370   30.5490 C.ar      1 J20        -0.0133
     37 C26       -23.8120    7.2610   30.7920 C.ar      1 J20         0.1139
     38 O35       -22.6760    7.5990   31.4730 O.3       1 J20        -0.3060
     39 C36       -21.3640    7.5280   30.9420 C.3       1 J20         0.0651
     40 C27       -24.6770    8.2560   30.3750 C.ar      1 J20        -0.0133
     41 C28       -25.8520    7.9290   29.7010 C.ar      1 J20        -0.0670
     42 H1        -24.9773    4.1428   24.4489 H         1 J20         0.1333
     43 H2        -26.0378    2.1473   29.4048 H         1 J20         0.0623
     44 H3        -24.8693    0.1112   30.2037 H         1 J20         0.0555
     45 H4        -23.3796   -1.7173   29.0183 H         1 J20         0.2499
     46 H5        -22.0932    0.4339   26.9610 H         1 J20         0.0555
     47 H6        -23.2373    2.4753   26.1832 H         1 J20         0.0623
     48 H7        -28.2900    8.6200   24.9472 H         1 J20         0.0685
     49 H8        -26.9080    7.2051   23.4477 H         1 J20         0.0780
     50 H9        -28.9058    7.4180   30.9502 H         1 J20         0.0684
     51 H10       -30.9465   10.2943   30.8220 H         1 J20         0.2499
     52 H11       -30.6158   10.5976   28.6170 H         1 J20         0.0645
     53 H12       -29.4788    9.7247   26.5746 H         1 J20         0.0667
     54 H13       -29.0706    4.6533   27.2268 H         1 J20         0.0715
     55 H14       -30.1452    2.5292   27.8447 H         1 J20         0.0609
     56 H15       -31.2906   -0.2300   30.0957 H         1 J20         0.0589
     57 H16       -30.6733    0.4286   28.5428 H         1 J20         0.0589
     58 H17       -31.8941    1.3483   29.4865 H         1 J20         0.0589
     59 H18       -28.4773    2.8380   31.7756 H         1 J20         0.0609
     60 H19       -27.3921    4.9640   31.1532 H         1 J20         0.0715
     61 H20       -25.5425    4.5679   29.6883 H         1 J20         0.0715
     62 H21       -23.4807    5.1483   30.8872 H         1 J20         0.0609
     63 H22       -20.6419    7.8579   31.7034 H         1 J20         0.0589
     64 H23       -21.2898    8.1803   30.0594 H         1 J20         0.0589
     65 H24       -21.1418    6.4907   30.6511 H         1 J20         0.0589
     66 H25       -24.4400    9.2950   30.5733 H         1 J20         0.0609
     67 H26       -26.5128    8.7219   29.3698 H         1 J20         0.0715
@<TRIPOS>BOND
     1    1    2 2  
     2    2    3 1  
     3    3    4 ar 
     4    3   17 ar 
     5    4    5 1  
     6    4   14 ar 
     7    5    6 3  
     8    6    7 1  
     9    7    8 ar 
    10    7   13 ar 
    11    8    9 ar 
    12    9   10 ar 
    13   10   11 1  
    14   10   12 ar 
    15   12   13 ar 
    16   14   15 ar 
    17   14   18 1  
    18   15   16 ar 
    19   15   25 1  
    20   16   17 ar 
    21   18   19 1  
    22   18   26 1  
    23   18   34 1  
    24   19   20 ar 
    25   19   25 ar 
    26   20   21 ar 
    27   21   22 1  
    28   21   23 ar 
    29   23   24 ar 
    30   24   25 ar 
    31   26   27 ar 
    32   26   33 ar 
    33   27   28 ar 
    34   28   29 ar 
    35   29   30 1  
    36   29   32 ar 
    37   30   31 1  
    38   32   33 ar 
    39   34   35 ar 
    40   34   41 ar 
    41   35   36 ar 
    42   36   37 ar 
    43   37   38 1  
    44   37   40 ar 
    45   38   39 1  
    46   40   41 ar 
    47    2   42 1  
    48    8   43 1  
    49    9   44 1  
    50   11   45 1  
    51   12   46 1  
    52   13   47 1  
    53   16   48 1  
    54   17   49 1  
    55   20   50 1  
    56   22   51 1  
    57   23   52 1  
    58   24   53 1  
    59   27   54 1  
    60   28   55 1  
    61   31   56 1  
    62   31   57 1  
    63   31   58 1  
    64   32   59 1  
    65   33   60 1  
    66   35   61 1  
    67   36   62 1  
    68   39   63 1  
    69   39   64 1  
    70   39   65 1  
    71   40   66 1  
    72   41   67 1  
@<TRIPOS>SUBSTRUCTURE
     1 J20         1

