### 
### Created by X-TOOL on Mon Sep 10 21:13:32 2018
### 

@<TRIPOS>MOLECULE
5wqc_ligand
   58    60     1     0     0
SMALL
GAST_HUCK


@<TRIPOS>ATOM
      1 C10        36.6470   38.3720  -49.9890 C.ar      1 7MA        -0.0385
      2 C13        39.7970   39.0240  -55.0480 C.3       1 7MA         0.1439
      3 C15        41.3220   40.7000  -54.0850 C.ar      1 7MA         0.0842
      4 C20        41.4890   41.8530  -54.8680 C.ar      1 7MA        -0.0328
      5 C22        42.2690   44.1220  -50.6390 C.3       1 7MA         0.0593
      6 C26        43.4760   39.7370  -56.3420 C.ar      1 7MA         0.1151
      7 C28        43.8350   40.6610  -58.5270 C.ar      1 7MA        -0.0669
      8 C32        44.8190   40.5760  -54.4480 C.3       1 7MA        -0.0292
      9 C31        44.4690   40.5830  -55.8120 C.ar      1 7MA        -0.0190
     10 C30        45.1410   41.4610  -56.6590 C.ar      1 7MA        -0.0587
     11 C29        44.8260   41.4970  -58.0150 C.ar      1 7MA        -0.0685
     12 C27        43.1600   39.7830  -57.6960 C.ar      1 7MA        -0.0414
     13 S23        42.5180   38.5770  -55.3360 S.o2      1 7MA         0.0906
     14 O24        41.9670   37.4740  -56.2980 O.2       1 7MA        -0.1456
     15 O25        43.3850   37.9740  -54.2270 O.2       1 7MA        -0.1456
     16 N14        41.0600   39.4100  -54.4790 N.am      1 7MA        -0.1552
     17 C16        41.5020   40.8000  -52.7080 C.ar      1 7MA         0.0155
     18 N17        41.8280   41.9520  -52.0570 N.ar      1 7MA        -0.2927
     19 C19        41.8340   43.0520  -54.1880 C.ar      1 7MA        -0.0192
     20 C18        41.9840   43.0780  -52.7660 C.ar      1 7MA         0.1466
     21 O21        42.3120   44.2040  -52.0630 O.3       1 7MA        -0.3133
     22 C11        38.6740   39.0520  -54.0130 C.2       1 7MA         0.2059
     23 O12        37.9460   40.0310  -54.0260 O.2       1 7MA        -0.3943
     24 N03        38.4640   38.0070  -53.1730 N.am      1 7MA        -0.2592
     25 C02        39.3260   36.7990  -53.0560 C.3       1 7MA         0.0335
     26 C01        38.7670   35.6040  -53.8490 C.3       1 7MA        -0.0445
     27 C04        37.3160   38.0600  -52.2580 C.3       1 7MA         0.0736
     28 C05        37.6420   38.4810  -50.9310 C.ar      1 7MA         0.0073
     29 C09        36.8620   38.7200  -48.6730 C.ar      1 7MA        -0.0404
     30 C08        38.0890   39.2090  -48.2860 C.ar      1 7MA         0.0042
     31 N07        39.1080   39.3130  -49.2220 N.ar      1 7MA        -0.3043
     32 C06        38.8940   38.9750  -50.5750 C.ar      1 7MA         0.0145
     33 H1         35.6720   38.0043  -50.2877 H         1 7MA         0.0679
     34 H2         39.8849   38.0038  -55.4499 H         1 7MA         0.0796
     35 H3         39.5468   39.7190  -55.8631 H         1 7MA         0.0796
     36 H4         41.3604   41.8297  -55.9441 H         1 7MA         0.0580
     37 H5         42.5540   45.0927  -50.2071 H         1 7MA         0.0576
     38 H6         42.9703   43.3475  -50.2949 H         1 7MA         0.0576
     39 H7         41.2496   43.8627  -50.3172 H         1 7MA         0.0576
     40 H8         43.5912   40.6985  -59.5826 H         1 7MA         0.0560
     41 H9         45.6130   41.3160  -54.2694 H         1 7MA         0.0391
     42 H10        45.1803   39.5757  -54.1673 H         1 7MA         0.0391
     43 H11        43.9372   40.8309  -53.8418 H         1 7MA         0.0391
     44 H12        45.9087   42.1159  -56.2629 H         1 7MA         0.0557
     45 H13        45.3530   42.1772  -58.6743 H         1 7MA         0.0599
     46 H14        42.3896   39.1351  -58.0982 H         1 7MA         0.0619
     47 H15        41.3744   39.9020  -52.1144 H         1 7MA         0.0646
     48 H16        41.9861   43.9623  -54.7566 H         1 7MA         0.0597
     49 H17        39.3980   36.5171  -51.9952 H         1 7MA         0.0521
     50 H18        40.3280   37.0408  -53.4400 H         1 7MA         0.0521
     51 H19        39.4372   34.7398  -53.7308 H         1 7MA         0.0249
     52 H20        38.6972   35.8709  -54.9138 H         1 7MA         0.0249
     53 H21        37.7672   35.3472  -53.4690 H         1 7MA         0.0249
     54 H22        36.8732   37.0546  -52.2017 H         1 7MA         0.0702
     55 H23        36.5779   38.7632  -52.6712 H         1 7MA         0.0702
     56 H24        36.0669   38.6089  -47.9446 H         1 7MA         0.0693
     57 H25        38.2579   39.5104  -47.2585 H         1 7MA         0.0767
     58 H26        39.6786   39.0960  -51.3131 H         1 7MA         0.0766
@<TRIPOS>BOND
     1   28    1 ar 
     2    1   29 ar 
     3    2   16 1  
     4   22    2 1  
     5    3    4 ar 
     6   16    3 1  
     7    3   17 ar 
     8    4   19 ar 
     9   21    5 1  
    10    6    9 ar 
    11    6   12 ar 
    12   13    6 1  
    13    7   11 ar 
    14   12    7 ar 
    15    9    8 1  
    16    9   10 ar 
    17   10   11 ar 
    18   13   14 2  
    19   13   15 2  
    20   16   13 am 
    21   17   18 ar 
    22   18   20 ar 
    23   19   20 ar 
    24   20   21 1  
    25   22   23 2  
    26   24   22 am 
    27   24   25 1  
    28   27   24 1  
    29   25   26 1  
    30   27   28 1  
    31   28   32 ar 
    32   29   30 ar 
    33   30   31 ar 
    34   31   32 ar 
    35    1   33 1  
    36    2   34 1  
    37    2   35 1  
    38    4   36 1  
    39    5   37 1  
    40    5   38 1  
    41    5   39 1  
    42    7   40 1  
    43    8   41 1  
    44    8   42 1  
    45    8   43 1  
    46   10   44 1  
    47   11   45 1  
    48   12   46 1  
    49   17   47 1  
    50   19   48 1  
    51   25   49 1  
    52   25   50 1  
    53   26   51 1  
    54   26   52 1  
    55   26   53 1  
    56   27   54 1  
    57   27   55 1  
    58   29   56 1  
    59   30   57 1  
    60   32   58 1  
@<TRIPOS>SUBSTRUCTURE
     1 7MA         1

