### 
### Created by X-TOOL on Mon Sep 10 21:13:30 2018
### 

@<TRIPOS>MOLECULE
5wqj_ligand
   36    38     1     0     0
SMALL
GAST_HUCK


@<TRIPOS>ATOM
      1 O2          9.9710    0.3590   27.7200 O.2       1 7N3        -0.4033
      2 C2          9.8940    1.4940   27.2550 C.2       1 7N3         0.1569
      3 C1          9.2970    1.6550   25.9250 C.ar      1 7N3         0.0601
      4 C6          8.8130    0.6390   25.0800 C.ar      1 7N3        -0.0511
      5 C7          8.2910    0.9350   23.8290 C.ar      1 7N3        -0.0663
      6 C5          8.3030    2.2380   23.3990 C.ar      1 7N3        -0.0654
      7 C4          8.7330    3.2770   24.1680 C.ar      1 7N3        -0.0287
      8 C           9.2690    3.0290   25.4030 C.ar      1 7N3         0.0963
      9 N1         10.2930    2.5820   27.8800 N.2       1 7N3        -0.2591
     10 C3         10.2570    3.7970   27.3420 C.2       1 7N3         0.2081
     11 N           9.7160    4.0750   26.1460 N.pl3     1 7N3        -0.2183
     12 S          10.7540    5.1000   28.3800 S.3       1 7N3         0.0039
     13 C8         10.9380    6.4250   27.2380 C.3       1 7N3         0.1178
     14 C9         12.2940    6.4430   26.5490 C.2       1 7N3         0.2276
     15 O          13.3260    6.0790   27.0750 O.2       1 7N3        -0.3788
     16 N2         12.2890    6.9130   25.3110 N.am      1 7N3        -0.2078
     17 C10        13.4610    7.0850   24.6580 C.2       1 7N3         0.1536
     18 S1         15.0700    6.7180   25.1460 S.3       1 7N3        -0.0136
     19 C12        15.7280    7.3910   23.6790 C.2       1 7N3        -0.0263
     20 C11        14.7750    7.9160   22.8170 C.2       1 7N3        -0.0868
     21 C13        13.4950    7.7810   23.3550 C.2       1 7N3         0.0471
     22 C14        12.2470    8.2500   22.7280 C.2       1 7N3         0.1648
     23 O1         11.1830    8.1650   23.3070 O.2       1 7N3        -0.4112
     24 N3         12.3180    8.8930   21.5590 N.am      1 7N3        -0.3084
     25 H1          8.8486   -0.3923   25.4121 H         1 7N3         0.0640
     26 H2          7.8811    0.1510   23.2026 H         1 7N3         0.0544
     27 H3          7.9523    2.4516   22.3958 H         1 7N3         0.0627
     28 H4          8.6512    4.2947   23.8039 H         1 7N3         0.0562
     29 H5          9.6424    5.0439   25.8044 H         1 7N3         0.2351
     30 H6         10.8096    7.3734   27.7802 H         1 7N3         0.0665
     31 H7         10.1570    6.3337   26.4688 H         1 7N3         0.0665
     32 H8         11.4246    7.1392   24.8619 H         1 7N3         0.2400
     33 H9         16.7943    7.3989   23.4579 H         1 7N3         0.0493
     34 H10        14.9963    8.3710   21.8527 H         1 7N3         0.0362
     35 H11        11.4828    9.2196   21.1165 H         1 7N3         0.1790
     36 H12        13.2063    9.0477   21.1266 H         1 7N3         0.1790
@<TRIPOS>BOND
     1    1    2 2  
     2    2    3 1  
     3    2    9 1  
     4    3    4 ar 
     5    3    8 ar 
     6    4    5 ar 
     7    5    6 ar 
     8    6    7 ar 
     9    7    8 ar 
    10    8   11 1  
    11    9   10 2  
    12   10   11 1  
    13   10   12 1  
    14   12   13 1  
    15   13   14 1  
    16   14   15 2  
    17   14   16 am 
    18   16   17 1  
    19   17   18 1  
    20   17   21 2  
    21   18   19 1  
    22   19   20 2  
    23   20   21 1  
    24   21   22 1  
    25   22   23 2  
    26   22   24 am 
    27    4   25 1  
    28    5   26 1  
    29    6   27 1  
    30    7   28 1  
    31   11   29 1  
    32   13   30 1  
    33   13   31 1  
    34   16   32 1  
    35   19   33 1  
    36   20   34 1  
    37   24   35 1  
    38   24   36 1  
@<TRIPOS>SUBSTRUCTURE
     1 7N3         1

