### 
### Created by X-TOOL on Mon Sep 10 21:13:31 2018
### 

@<TRIPOS>MOLECULE
5wqk_ligand
   36    38     1     0     0
SMALL
GAST_HUCK


@<TRIPOS>ATOM
      1 O1        -12.9510   -5.7470   14.6890 O.2       1 7NC        -0.3790
      2 C2        -12.0360   -6.4570   14.2220 C.2       1 7NC         0.1450
      3 C3        -10.7330   -6.5810   14.9660 C.3       1 7NC         0.0944
      4 S         -10.6830   -5.3890   16.2500 S.3       1 7NC         0.0016
      5 C4        -10.1470   -3.9670   15.4280 C.2       1 7NC         0.2147
      6 N1        -10.2680   -2.7500   15.9690 N.2       1 7NC        -0.2647
      7 C7         -9.8760   -1.6460   15.3730 C.2       1 7NC         0.1081
      8 O         -10.0930   -0.5160   15.8940 O.2       1 7NC        -0.4400
      9 C6         -9.2890   -1.7600   14.1330 C.2       1 7NC        -0.0078
     10 N          -9.5530   -4.1070   14.2300 N.pl3     1 7NC        -0.2078
     11 C5         -9.1420   -2.9980   13.5980 C.2       1 7NC         0.0750
     12 C8         -8.4220   -3.1240   12.3000 C.3       1 7NC         0.0073
     13 C1        -12.2210   -7.1240   12.8950 C.ar      1 7NC         0.0395
     14 C11       -11.1190   -7.5100   12.1390 C.ar      1 7NC        -0.0417
     15 C12       -11.2380   -8.2050   10.9390 C.ar      1 7NC        -0.0535
     16 C10       -12.4850   -8.4770   10.3880 C.ar      1 7NC        -0.0481
     17 C9        -13.6530   -8.1600   11.0650 C.ar      1 7NC        -0.0121
     18 C16       -14.8850   -8.4870   10.5050 C.ar      1 7NC        -0.0521
     19 C15       -16.0110   -8.1550   11.2540 C.ar      1 7NC        -0.0600
     20 C14       -15.9800   -7.4510   12.4450 C.ar      1 7NC        -0.0602
     21 C13       -14.7800   -7.1380   13.0590 C.ar      1 7NC        -0.0519
     22 C         -13.5920   -7.4400   12.3730 C.ar      1 7NC        -0.0017
     23 H1         -9.8963   -6.4095   14.2728 H         1 7NC         0.0638
     24 H2        -10.6509   -7.5895   15.3976 H         1 7NC         0.0638
     25 H3         -8.9504   -0.8765   13.5938 H         1 7NC         0.0242
     26 H4         -9.4177   -5.0379   13.8104 H         1 7NC         0.2460
     27 H5         -8.1613   -2.1227   11.9266 H         1 7NC         0.0489
     28 H6         -9.0694   -3.6307   11.5692 H         1 7NC         0.0489
     29 H7         -7.5036   -3.7116   12.4457 H         1 7NC         0.0489
     30 H8        -10.1277   -7.2594   12.4989 H         1 7NC         0.0690
     31 H9        -10.3438   -8.5396   10.4257 H         1 7NC         0.0634
     32 H10       -12.5454   -8.9451    9.4121 H         1 7NC         0.0676
     33 H11       -14.9634   -8.9732    9.5393 H         1 7NC         0.0634
     34 H12       -16.9780   -8.4695   10.8784 H         1 7NC         0.0619
     35 H13       -16.9111   -7.1396   12.9045 H         1 7NC         0.0629
     36 H14       -14.7575   -6.6743   14.0386 H         1 7NC         0.0622
@<TRIPOS>BOND
     1    1    2 2  
     2    2    3 1  
     3    2   13 1  
     4    3    4 1  
     5    4    5 1  
     6    5    6 2  
     7    5   10 1  
     8    6    7 1  
     9    7    8 2  
    10    7    9 1  
    11    9   11 2  
    12   10   11 1  
    13   11   12 1  
    14   13   14 ar 
    15   13   22 ar 
    16   14   15 ar 
    17   15   16 ar 
    18   16   17 ar 
    19   17   18 ar 
    20   17   22 ar 
    21   18   19 ar 
    22   19   20 ar 
    23   20   21 ar 
    24   21   22 ar 
    25    3   23 1  
    26    3   24 1  
    27    9   25 1  
    28   10   26 1  
    29   12   27 1  
    30   12   28 1  
    31   12   29 1  
    32   14   30 1  
    33   15   31 1  
    34   16   32 1  
    35   18   33 1  
    36   19   34 1  
    37   20   35 1  
    38   21   36 1  
@<TRIPOS>SUBSTRUCTURE
     1 7NC         1

