### 
### Created by X-TOOL on Wed Jan  1 15:39:34 2020
### 

@<TRIPOS>MOLECULE
5wr7_ligand
   72    76     1     0     0
SMALL
GAST_HUCK


@<TRIPOS>ATOM
      1 C1         -7.0700  -25.4760    7.7260 C.3       1 RCH        -0.0396
      2 C2         -8.1020  -25.5740    8.8740 C.3       1 RCH         0.0445
      3 C3         -7.8660  -26.8840    9.6710 C.3       1 RCH        -0.0396
      4 C4         -9.5350  -25.5530    8.2820 C.3       1 RCH        -0.0396
      5 C6         -8.6210  -24.1360   10.9030 C.2       1 RCH         0.2137
      6 C8         -8.2450  -22.9680   11.7580 C.ar      1 RCH         0.0642
      7 C12        -7.3710  -20.7440   12.1620 C.ar      1 RCH         0.0302
      8 C15        -8.2790  -22.2030   15.3530 C.1       1 RCH        -0.0354
      9 C16        -8.4560  -22.3970   16.4870 C.1       1 RCH        -0.0470
     10 C17        -8.6560  -22.6330   17.8760 C.ar      1 RCH         0.0339
     11 C18        -7.4700  -22.4760   18.5880 C.ar      1 RCH         0.0042
     12 C19        -7.4990  -22.7050   19.9420 C.ar      1 RCH         0.1522
     13 O20        -6.5200  -22.6460   20.8220 O.3       1 RCH        -0.2511
     14 C21        -6.9230  -22.9610   22.0360 C.2       1 RCH         0.0864
     15 C23        -8.6930  -23.0640   20.6100 C.ar      1 RCH         0.0551
     16 C24        -9.8920  -23.1920   19.8880 C.ar      1 RCH        -0.0431
     17 C30        -8.0450  -24.4320   26.7810 C.ar      1 RCH        -0.0222
     18 C31        -6.6740  -24.1510   26.8090 C.ar      1 RCH         0.0845
     19 C34        -6.4040  -26.7270   29.0480 C.3       1 RCH         0.0791
     20 C37        -6.0690  -23.6960   25.6420 C.ar      1 RCH        -0.0364
     21 C38        -6.7800  -23.5130   24.4600 C.ar      1 RCH        -0.0889
     22 C39        -6.0310  -23.0260   23.2440 C.3       1 RCH        -0.0300
     23 C40        -4.9490  -24.0570   22.8860 C.3       1 RCH        -0.1061
     24 N5         -7.8700  -24.4260    9.7990 N.am      1 RCH        -0.2794
     25 O7         -9.5770  -24.8320   11.2210 O.2       1 RCH        -0.3795
     26 C9         -8.4070  -23.0560   13.1420 C.ar      1 RCH        -0.0057
     27 C10        -8.0660  -21.9780   13.9690 C.ar      1 RCH         0.0956
     28 N11        -7.5470  -20.8650   13.4680 N.ar      1 RCH        -0.2800
     29 C13        -6.8030  -19.4590   11.6340 C.3       1 RCH        -0.0146
     30 C14        -7.7010  -21.7630   11.2720 C.ar      1 RCH        -0.0134
     31 C22        -8.2780  -23.2080   22.0000 C.2       1 RCH         0.0880
     32 C25        -9.8510  -22.9850   18.5170 C.ar      1 RCH        -0.0418
     33 C26        -8.9920  -23.6360   23.2140 C.2       1 RCH         0.1882
     34 O27       -10.1830  -23.8850   23.1810 O.2       1 RCH        -0.3357
     35 C28        -8.1550  -23.8040   24.4470 C.ar      1 RCH         0.0229
     36 C29        -8.7610  -24.2610   25.6270 C.ar      1 RCH        -0.0433
     37 N32        -5.8390  -24.2750   27.9320 N.am      1 RCH        -0.1844
     38 S33        -6.2470  -24.9560   29.3870 S.o2      1 RCH         0.0587
     39 O35        -5.0920  -24.6980   30.1750 O.2       1 RCH        -0.1498
     40 O36        -7.4920  -24.3910   29.7750 O.2       1 RCH        -0.1498
     41 C41        -5.3600  -21.6670   23.4670 C.3       1 RCH        -0.1061
     42 H1         -7.2185  -26.3124    7.0271 H         1 RCH         0.0254
     43 H2         -6.0529  -25.5222    8.1423 H         1 RCH         0.0254
     44 H3         -7.2048  -24.5238    7.1921 H         1 RCH         0.0254
     45 H4         -8.5999  -26.9537   10.4874 H         1 RCH         0.0254
     46 H5         -6.8495  -26.8795   10.0912 H         1 RCH         0.0254
     47 H6         -7.9814  -27.7476    8.9995 H         1 RCH         0.0254
     48 H7         -9.6862  -24.6191    7.7207 H         1 RCH         0.0254
     49 H8        -10.2699  -25.6132    9.0983 H         1 RCH         0.0254
     50 H9         -9.6655  -26.4116    7.6070 H         1 RCH         0.0254
     51 H10        -6.5531  -22.1825   18.0898 H         1 RCH         0.0617
     52 H11       -10.8204  -23.4448   20.3872 H         1 RCH         0.0680
     53 H12        -8.5417  -24.7865   27.6769 H         1 RCH         0.0637
     54 H13        -6.6760  -27.2548   29.9740 H         1 RCH         0.0488
     55 H14        -5.4455  -27.1149   28.6729 H         1 RCH         0.0488
     56 H15        -7.1860  -26.8876   28.2912 H         1 RCH         0.0488
     57 H16        -5.0075  -23.4765   25.6538 H         1 RCH         0.0643
     58 H17        -4.3946  -23.7140   22.0000 H         1 RCH         0.0046
     59 H18        -5.4229  -25.0258   22.6696 H         1 RCH         0.0046
     60 H19        -4.2550  -24.1691   23.7321 H         1 RCH         0.0046
     61 H20        -7.1020  -23.8193    9.5940 H         1 RCH         0.1854
     62 H21        -8.8000  -23.9662   13.5803 H         1 RCH         0.0722
     63 H22        -6.7197  -19.5176   10.5387 H         1 RCH         0.0421
     64 H23        -5.8065  -19.2924   12.0690 H         1 RCH         0.0421
     65 H24        -7.4664  -18.6252   11.9072 H         1 RCH         0.0421
     66 H25        -7.5397  -21.6293   10.2084 H         1 RCH         0.0700
     67 H26       -10.7572  -23.0973   17.9328 H         1 RCH         0.0602
     68 H27        -9.8218  -24.4840   25.6247 H         1 RCH         0.0680
     69 H28        -4.9089  -23.9180   27.8451 H         1 RCH         0.2188
     70 H29        -6.1241  -20.9187   23.7243 H         1 RCH         0.0046
     71 H30        -4.8405  -21.3593   22.5476 H         1 RCH         0.0046
     72 H31        -4.6338  -21.7471   24.2893 H         1 RCH         0.0046
@<TRIPOS>BOND
     1    2    1 1  
     2    2    3 1  
     3    2    4 1  
     4   24    2 1  
     5    6    5 1  
     6    5   24 am 
     7    5   25 2  
     8   26    6 ar 
     9    6   30 ar 
    10   28    7 ar 
    11    7   29 1  
    12    7   30 ar 
    13    9    8 3  
    14    8   27 1  
    15   10    9 1  
    16   11   10 ar 
    17   32   10 ar 
    18   12   11 ar 
    19   13   12 1  
    20   15   12 ar 
    21   14   13 1  
    22   22   14 1  
    23   14   31 2  
    24   15   16 ar 
    25   31   15 1  
    26   16   32 ar 
    27   18   17 ar 
    28   17   36 ar 
    29   18   20 ar 
    30   37   18 1  
    31   38   19 1  
    32   20   21 ar 
    33   21   22 1  
    34   21   35 ar 
    35   22   23 1  
    36   22   41 1  
    37   27   26 ar 
    38   27   28 ar 
    39   33   31 1  
    40   33   34 2  
    41   35   33 1  
    42   36   35 ar 
    43   37   38 am 
    44   38   39 2  
    45   38   40 2  
    46    1   42 1  
    47    1   43 1  
    48    1   44 1  
    49    3   45 1  
    50    3   46 1  
    51    3   47 1  
    52    4   48 1  
    53    4   49 1  
    54    4   50 1  
    55   11   51 1  
    56   16   52 1  
    57   17   53 1  
    58   19   54 1  
    59   19   55 1  
    60   19   56 1  
    61   20   57 1  
    62   23   58 1  
    63   23   59 1  
    64   23   60 1  
    65   24   61 1  
    66   26   62 1  
    67   29   63 1  
    68   29   64 1  
    69   29   65 1  
    70   30   66 1  
    71   32   67 1  
    72   36   68 1  
    73   37   69 1  
    74   41   70 1  
    75   41   71 1  
    76   41   72 1  
@<TRIPOS>SUBSTRUCTURE
     1 RCH         1

