### 
### Created by X-TOOL on Mon Sep 10 21:13:33 2018
### 

@<TRIPOS>MOLECULE
5wre_ligand
   52    55     1     0     0
SMALL
GAST_HUCK


@<TRIPOS>ATOM
      1 C01       -42.9450   12.0000   24.5770 C.3       1 7TL         0.0630
      2 O02       -43.1410   10.8720   25.4380 O.3       1 7TL        -0.2904
      3 C03       -43.2850   11.0360   26.7930 C.2       1 7TL         0.2213
      4 O04       -43.1100   12.2260   27.1270 O.2       1 7TL        -0.3897
      5 C05       -43.5880    9.9950   27.7640 C.2       1 7TL         0.0603
      6 C06       -44.0220   10.2460   29.0470 C.2       1 7TL         0.1129
      7 N07       -44.2440    9.1880   29.9730 N.pl3     1 7TL        -0.2318
      8 C08       -44.1730    7.8660   29.5310 C.2       1 7TL         0.1792
      9 N09       -43.9270    7.5620   28.2960 N.2       1 7TL        -0.3209
     10 C10       -43.7170    8.5580   27.1980 C.3       1 7TL         0.0549
     11 C11       -45.0220    8.3710   26.2790 C.ar      1 7TL        -0.0201
     12 C12       -46.3130    8.4910   26.8100 C.ar      1 7TL        -0.0601
     13 C13       -47.5060    8.3550   26.0700 C.ar      1 7TL        -0.0349
     14 C14       -47.4000    8.0710   24.7180 C.ar      1 7TL         0.1251
     15 C15       -46.1660    7.9200   24.1080 C.ar      1 7TL        -0.0212
     16 C16       -45.0290    8.0780   24.9330 C.ar      1 7TL         0.0408
     17 CL1       -43.4260    7.8780   24.1870 Cl        1 7TL        -0.0782
     18 F18       -48.5510    7.9430   24.0510 F         1 7TL        -0.1894
     19 C19       -44.4590    6.7310   30.5670 C.2       1 7TL         0.1765
     20 N20       -44.5350    6.7470   31.8880 N.2       1 7TL        -0.2881
     21 C21       -44.8860    5.4840   32.4970 C.2       1 7TL         0.0015
     22 C22       -45.1150    4.4740   31.5740 C.2       1 7TL         0.0230
     23 S23       -44.8860    5.1170   29.9670 S.3       1 7TL         0.0118
     24 C24       -44.2340   11.6000   29.7680 C.3       1 7TL         0.0328
     25 N25       -44.9750   11.5180   31.0640 N.4       1 7TL         0.2695
     26 C26       -46.3930   11.2020   30.8120 C.3       1 7TL         0.0368
     27 C27       -46.9540   11.3500   32.2040 C.3       1 7TL         0.2939
     28 C28       -46.0290   12.3240   32.9560 C.3       1 7TL         0.0712
     29 C29       -44.9160   12.6590   31.9640 C.3       1 7TL         0.0398
     30 C30       -43.5500   13.0200   32.6410 C.2       1 7TL         0.0848
     31 O31       -43.3270   14.1500   33.1630 O.co2     1 7TL        -0.5643
     32 O32       -42.6990   12.0890   32.5940 O.co2     1 7TL        -0.5643
     33 F33       -47.0500   10.1470   32.8540 F         1 7TL        -0.1995
     34 F34       -48.2550   11.7120   32.1570 F         1 7TL        -0.1995
     35 H1        -42.8530   11.6554   23.5364 H         1 7TL         0.0573
     36 H2        -42.0268   12.5300   24.8703 H         1 7TL         0.0573
     37 H3        -43.8047   12.6808   24.6631 H         1 7TL         0.0573
     38 H4        -44.4550    9.3959   30.9595 H         1 7TL         0.2281
     39 H5        -42.8084    8.3193   26.6257 H         1 7TL         0.0590
     40 H6        -46.4016    8.7044   27.8691 H         1 7TL         0.0547
     41 H7        -48.4744    8.4690   26.5436 H         1 7TL         0.0588
     42 H8        -46.0765    7.6923   23.0520 H         1 7TL         0.0591
     43 H9        -44.9630    5.3396   33.5736 H         1 7TL         0.0626
     44 H10       -45.3922    3.4483   31.8126 H         1 7TL         0.0848
     45 H11       -44.7986   12.2607   29.0937 H         1 7TL         0.1047
     46 H12       -43.2452   12.0384   29.9678 H         1 7TL         0.1047
     47 H13       -44.5695   10.7432   31.5653 H         1 7TL         0.2073
     48 H14       -46.5200   10.1788   30.4288 H         1 7TL         0.0874
     49 H15       -46.8506   11.9155   30.1109 H         1 7TL         0.0874
     50 H16       -45.6139   11.8461   33.8556 H         1 7TL         0.0399
     51 H17       -46.5770   13.2334   33.2435 H         1 7TL         0.0399
     52 H18       -45.2061   13.5532   31.3928 H         1 7TL         0.1028
@<TRIPOS>BOND
     1    1    2 1  
     2    2    3 1  
     3    3    4 2  
     4    3    5 1  
     5    5    6 2  
     6    5   10 1  
     7    6    7 1  
     8    6   24 1  
     9    7    8 1  
    10    8    9 2  
    11    8   19 1  
    12    9   10 1  
    13   10   11 1  
    14   11   12 ar 
    15   11   16 ar 
    16   12   13 ar 
    17   13   14 ar 
    18   14   15 ar 
    19   14   18 1  
    20   15   16 ar 
    21   16   17 1  
    22   19   20 2  
    23   19   23 1  
    24   20   21 1  
    25   21   22 2  
    26   22   23 1  
    27   24   25 1  
    28   25   26 1  
    29   25   29 1  
    30   26   27 1  
    31   27   28 1  
    32   27   33 1  
    33   27   34 1  
    34   28   29 1  
    35   29   30 1  
    36   30   31 ar 
    37   30   32 ar 
    38    1   35 1  
    39    1   36 1  
    40    1   37 1  
    41    7   38 1  
    42   10   39 1  
    43   12   40 1  
    44   13   41 1  
    45   15   42 1  
    46   21   43 1  
    47   22   44 1  
    48   24   45 1  
    49   24   46 1  
    50   25   47 1  
    51   26   48 1  
    52   26   49 1  
    53   28   50 1  
    54   28   51 1  
    55   29   52 1  
@<TRIPOS>SUBSTRUCTURE
     1 7TL         1

