### 
### Created by X-TOOL on Wed Jan  1 15:39:34 2020
### 

@<TRIPOS>MOLECULE
5ws3_ligand
   58    60     1     0     0
SMALL
GAST_HUCK


@<TRIPOS>ATOM
      1 C10        38.4520   38.6490  -50.4440 C.ar      1 7MA        -0.0385
      2 C13        42.1560   39.3590  -55.1010 C.3       1 7MA         0.1439
      3 C15        43.3500   40.8230  -53.6680 C.ar      1 7MA         0.0842
      4 C20        43.3110   41.9680  -54.4760 C.ar      1 7MA        -0.0328
      5 C22        44.0080   44.3680  -50.4740 C.3       1 7MA         0.0593
      6 C26        45.4410   39.8640  -55.8800 C.ar      1 7MA         0.1151
      7 C28        45.7660   40.2210  -58.2380 C.ar      1 7MA        -0.0669
      8 C32        46.7410   41.2890  -54.3140 C.3       1 7MA        -0.0292
      9 C31        46.3700   40.8850  -55.6000 C.ar      1 7MA        -0.0190
     10 C30        46.9780   41.5580  -56.6550 C.ar      1 7MA        -0.0587
     11 C29        46.6790   41.2240  -57.9620 C.ar      1 7MA        -0.0685
     12 C27        45.1570   39.5390  -57.2000 C.ar      1 7MA        -0.0414
     13 S23        44.6140   38.9120  -54.6180 S.o2      1 7MA         0.0906
     14 O24        44.2520   37.5390  -55.1870 O.2       1 7MA        -0.1456
     15 O25        45.5720   38.7280  -53.4610 O.2       1 7MA        -0.1456
     16 N14        43.2230   39.5570  -54.1210 N.am      1 7MA        -0.1552
     17 C16        43.5460   40.9440  -52.2940 C.ar      1 7MA         0.0155
     18 N17        43.7000   42.1940  -51.7030 N.ar      1 7MA        -0.2927
     19 C19        43.4590   43.2120  -53.8610 C.ar      1 7MA        -0.0192
     20 C18        43.6500   43.3030  -52.4680 C.ar      1 7MA         0.1466
     21 O21        43.7980   44.5130  -51.8820 O.3       1 7MA        -0.3133
     22 C11        40.8400   39.4620  -54.3190 C.2       1 7MA         0.2059
     23 O12        40.1220   40.4440  -54.4360 O.2       1 7MA        -0.3943
     24 N03        40.5190   38.4500  -53.4670 N.am      1 7MA        -0.2592
     25 C02        41.3280   37.2140  -53.3070 C.3       1 7MA         0.0335
     26 C01        40.6580   36.1280  -54.1390 C.3       1 7MA        -0.0445
     27 C04        39.2540   38.5320  -52.7210 C.3       1 7MA         0.0736
     28 C05        39.4810   38.8280  -51.3630 C.ar      1 7MA         0.0073
     29 C09        38.6410   38.9230  -49.1020 C.ar      1 7MA        -0.0404
     30 C08        39.8640   39.4000  -48.6490 C.ar      1 7MA         0.0042
     31 N07        40.9050   39.5800  -49.5490 N.ar      1 7MA        -0.3043
     32 C06        40.7090   39.2960  -50.9020 C.ar      1 7MA         0.0145
     33 H1         37.4879   38.2894  -50.7851 H         1 7MA         0.0679
     34 H2         42.2459   38.3676  -55.5691 H         1 7MA         0.0796
     35 H3         42.2010   40.1367  -55.8776 H         1 7MA         0.0796
     36 H4         43.1699   41.8893  -55.5479 H         1 7MA         0.0580
     37 H5         44.1258   45.3615  -50.0167 H         1 7MA         0.0576
     38 H6         44.9165   43.7733  -50.2981 H         1 7MA         0.0576
     39 H7         43.1431   43.8579  -50.0249 H         1 7MA         0.0576
     40 H8         45.5287   39.9704  -59.2656 H         1 7MA         0.0560
     41 H9         47.4793   42.1014  -54.3836 H         1 7MA         0.0391
     42 H10        47.1824   40.4376  -53.7752 H         1 7MA         0.0391
     43 H11        45.8532   41.6459  -53.7714 H         1 7MA         0.0391
     44 H12        47.6904   42.3490  -56.4504 H         1 7MA         0.0557
     45 H13        47.1626   41.7509  -58.7765 H         1 7MA         0.0599
     46 H14        44.4525   38.7446  -57.4186 H         1 7MA         0.0619
     47 H15        43.5789   40.0529  -51.6776 H         1 7MA         0.0646
     48 H16        43.4268   44.1152  -54.4596 H         1 7MA         0.0597
     49 H17        41.3551   36.9154  -52.2487 H         1 7MA         0.0521
     50 H18        42.3535   37.3854  -53.6661 H         1 7MA         0.0521
     51 H19        41.2284   35.1919  -54.0477 H         1 7MA         0.0249
     52 H20        40.6301   36.4389  -55.1938 H         1 7MA         0.0249
     53 H21        39.6318   35.9689  -53.7763 H         1 7MA         0.0249
     54 H22        38.7307   37.5673  -52.7951 H         1 7MA         0.0702
     55 H23        38.6289   39.3230  -53.1608 H         1 7MA         0.0702
     56 H24        37.8304   38.7647  -48.3999 H         1 7MA         0.0693
     57 H25        40.0047   39.6303  -47.5991 H         1 7MA         0.0767
     58 H26        41.5232   39.4417  -51.6026 H         1 7MA         0.0766
@<TRIPOS>BOND
     1   28    1 ar 
     2    1   29 ar 
     3    2   16 1  
     4   22    2 1  
     5    3    4 ar 
     6   16    3 1  
     7    3   17 ar 
     8    4   19 ar 
     9   21    5 1  
    10    6    9 ar 
    11    6   12 ar 
    12   13    6 1  
    13    7   11 ar 
    14   12    7 ar 
    15    9    8 1  
    16    9   10 ar 
    17   10   11 ar 
    18   13   14 2  
    19   13   15 2  
    20   16   13 am 
    21   17   18 ar 
    22   18   20 ar 
    23   19   20 ar 
    24   20   21 1  
    25   22   23 2  
    26   24   22 am 
    27   24   25 1  
    28   27   24 1  
    29   25   26 1  
    30   27   28 1  
    31   28   32 ar 
    32   29   30 ar 
    33   30   31 ar 
    34   31   32 ar 
    35    1   33 1  
    36    2   34 1  
    37    2   35 1  
    38    4   36 1  
    39    5   37 1  
    40    5   38 1  
    41    5   39 1  
    42    7   40 1  
    43    8   41 1  
    44    8   42 1  
    45    8   43 1  
    46   10   44 1  
    47   11   45 1  
    48   12   46 1  
    49   17   47 1  
    50   19   48 1  
    51   25   49 1  
    52   25   50 1  
    53   26   51 1  
    54   26   52 1  
    55   26   53 1  
    56   27   54 1  
    57   27   55 1  
    58   29   56 1  
    59   30   57 1  
    60   32   58 1  
@<TRIPOS>SUBSTRUCTURE
     1 7MA         1

