### 
### Created by X-TOOL on Wed Jan  1 15:39:34 2020
### 

@<TRIPOS>MOLECULE
5wtt_ligand
  105   106     1     0     0
SMALL
GAST_HUCK


@<TRIPOS>ATOM
      1 N           1.1030   -3.5280   -0.5430 N.4       1 CYS         0.2385
      2 CA          0.6370   -3.6550    0.8630 C.3       1 CYS         0.0749
      3 C          -0.8260   -4.0790    0.9670 C.2       1 CYS         0.2273
      4 O          -1.1490   -4.9380    1.7860 O.2       1 CYS        -0.3907
      5 CB          0.9070   -2.3590    1.6410 C.3       1 CYS         0.0643
      6 SG         -0.0740   -2.1840    3.1600 S.3       1 CYS        -0.0848
      7 N          -1.7000   -3.4780    0.1600 N.am      1 GLY        -0.2637
      8 CA         -3.1050   -3.8610    0.1250 C.3       1 GLY         0.1202
      9 C          -3.9290   -3.4470    1.3400 C.2       1 GLY         0.2007
     10 O          -3.7510   -2.3690    1.8820 O.2       1 GLY        -0.3947
     11 N          -4.8090   -4.3460    1.7780 N.am      1 LEU        -0.2640
     12 CA         -5.8750   -4.0830    2.7590 C.3       1 LEU         0.1312
     13 C          -5.4800   -3.2970    4.0160 C.2       1 LEU         0.2039
     14 O          -6.2560   -2.4530    4.4810 O.2       1 LEU        -0.3944
     15 CB         -6.5190   -5.3950    3.1980 C.3       1 LEU        -0.0101
     16 CG         -7.8460   -5.4160    3.9800 C.3       1 LEU        -0.0425
     17 CD1        -9.0380   -5.0390    3.1060 C.3       1 LEU        -0.0625
     18 CD2        -8.0580   -6.7930    4.6050 C.3       1 LEU        -0.0625
     19 N          -4.2910   -3.5770    4.5680 N.am      1 GLU        -0.2636
     20 CA         -3.8300   -2.8990    5.7820 C.3       1 GLU         0.1325
     21 C          -3.5330   -1.4090    5.5600 C.2       1 GLU         0.2040
     22 O          -3.8150   -0.5730    6.4180 O.2       1 GLU        -0.3944
     23 CB         -2.6010   -3.5610    6.3660 C.3       1 GLU        -0.0008
     24 CG         -2.7750   -4.9990    6.8160 C.3       1 GLU         0.0044
     25 CD         -1.4830   -5.5680    7.4090 C.2       1 GLU         0.0350
     26 OE1        -0.3960   -5.3480    6.8020 O.co2     1 GLU        -0.5690
     27 OE2        -1.5420   -6.2250    8.4830 O.co2     1 GLU        -0.5690
     28 N          -2.9640   -1.0800    4.4020 N.am      1 CYS        -0.2629
     29 CA         -2.6950    0.3040    4.0520 C.3       1 CYS         0.1406
     30 C          -3.9530    1.0170    3.5990 C.2       1 CYS         0.2049
     31 O          -3.9270    2.2120    3.3030 O.2       1 CYS        -0.3944
     32 CB         -1.6040    0.3820    2.9790 C.3       1 CYS         0.0443
     33 SG         -0.0060   -0.1910    3.5540 S.3       1 CYS        -0.0880
     34 N          -5.0460    0.2660    3.5480 N.am      1 ASN        -0.2616
     35 CA         -6.3610    0.8060    3.1970 C.3       1 ASN         0.1476
     36 C          -7.2360    1.0590    4.4060 C.2       1 ASN         0.2064
     37 O          -8.0450    1.9700    4.3710 O.2       1 ASN        -0.3942
     38 CB         -7.0790   -0.1280    2.2320 C.3       1 ASN         0.0773
     39 CG         -6.7740    0.1700    0.7790 C.2       1 ASN         0.1780
     40 OD1        -6.1780    1.2030    0.4450 O.2       1 ASN        -0.3970
     41 ND2        -7.2150   -0.7320   -0.0960 N.am      1 ASN        -0.3007
     42 N          -7.0900    0.2380    5.4420 N.am      1 PHE        -0.2618
     43 CA         -7.9450    0.3300    6.6310 C.3       1 PHE         0.1404
     44 C          -7.2100    0.1130    7.9540 C.2       1 PHE         0.2052
     45 O          -7.6740    0.5440    9.0070 O.2       1 PHE        -0.3942
     46 CB         -9.1020   -0.6700    6.5290 C.3       1 PHE         0.0214
     47 CG        -10.0080   -0.4470    5.3510 C.ar      1 PHE        -0.0386
     48 CD1       -11.0130    0.5100    5.4000 C.ar      1 PHE        -0.0601
     49 CD2        -9.8680   -1.2060    4.1970 C.ar      1 PHE        -0.0601
     50 CE1       -11.8540    0.7020    4.3110 C.ar      1 PHE        -0.0686
     51 CE2       -10.6920   -1.0150    3.1080 C.ar      1 PHE        -0.0686
     52 CZ        -11.6990   -0.0620    3.1670 C.ar      1 PHE        -0.0687
     53 N          -6.0720   -0.5720    7.9050 N.am      1 GLY        -0.2720
     54 CA         -5.3160   -0.9250    9.1120 C.3       1 GLY         0.0833
     55 C          -4.5830    0.2390    9.7250 C.2       1 GLY         0.0570
     56 O          -4.0480    0.1160   10.8250 O.co2     1 GLY        -0.5669
     57 OXT        -4.5210    1.3100    9.1240 O.co2     1 GLY        -0.5669
     58 H1          2.0710   -3.2471   -0.5520 H         1 CYS         0.2015
     59 H2          0.5476   -2.8350   -1.0198 H         1 CYS         0.2015
     60 H3          1.0064   -4.4158   -1.0105 H         1 CYS         0.2015
     61 H4          1.2351   -4.4502    1.3319 H         1 CYS         0.1107
     62 H5          0.6786   -1.5077    0.9829 H         1 CYS         0.0466
     63 H6          1.9724   -2.3361    1.9139 H         1 CYS         0.0466
     64 H7         -1.3821   -2.7429   -0.4388 H         1 GLY         0.1882
     65 H8         -3.1556   -4.9564    0.0386 H         1 GLY         0.0763
     66 H9         -3.5594   -3.4015   -0.7651 H         1 GLY         0.0763
     67 H10        -4.7401   -5.2737    1.4112 H         1 LEU         0.1883
     68 H11        -6.6372   -3.4855    2.2374 H         1 LEU         0.0800
     69 H12        -5.7786   -5.9088    3.8287 H         1 LEU         0.0315
     70 H13        -6.6890   -5.9795    2.2818 H         1 LEU         0.0315
     71 H14        -7.7742   -4.6756    4.7903 H         1 LEU         0.0298
     72 H15        -9.9581   -5.0686    3.7082 H         1 LEU         0.0232
     73 H16        -9.1220   -5.7523    2.2729 H         1 LEU         0.0232
     74 H17        -8.8936   -4.0242    2.7068 H         1 LEU         0.0232
     75 H18        -7.1905   -7.0489    5.2311 H         1 LEU         0.0232
     76 H19        -8.1698   -7.5438    3.8089 H         1 LEU         0.0232
     77 H20        -8.9663   -6.7782    5.2253 H         1 LEU         0.0232
     78 H21        -3.7046   -4.2652    4.1408 H         1 GLU         0.1883
     79 H22        -4.6398   -2.9730    6.5227 H         1 GLU         0.0801
     80 H23        -2.2823   -2.9710    7.2380 H         1 GLU         0.0330
     81 H24        -1.8111   -3.5404    5.6008 H         1 GLU         0.0330
     82 H25        -3.0690   -5.6103    5.9501 H         1 GLU         0.0433
     83 H26        -3.5658   -5.0403    7.5795 H         1 GLU         0.0433
     84 H27        -2.7158   -1.8033    3.7576 H         1 CYS         0.1884
     85 H28        -2.3240    0.8151    4.9526 H         1 CYS         0.0808
     86 H29        -1.5047    1.4290    2.6568 H         1 CYS         0.0432
     87 H30        -1.9103   -0.2375    2.1232 H         1 CYS         0.0432
     88 H31        -4.9683   -0.7086    3.7579 H         1 ASN         0.1885
     89 H32        -6.2013    1.7692    2.6903 H         1 ASN         0.0826
     90 H33        -8.1631   -0.0283    2.3897 H         1 ASN         0.0551
     91 H34        -6.7702   -1.1611    2.4497 H         1 ASN         0.0551
     92 H35        -7.0506   -0.6021   -1.0738 H         1 ASN         0.1814
     93 H36        -7.7106   -1.5392    0.2248 H         1 ASN         0.1814
     94 H37        -6.3769   -0.4623    5.4098 H         1 PHE         0.1885
     95 H38        -8.3675    1.3454    6.6511 H         1 PHE         0.0823
     96 H39        -9.7044   -0.5951    7.4463 H         1 PHE         0.0474
     97 H40        -8.6774   -1.6817    6.4507 H         1 PHE         0.0474
     98 H41       -11.1421    1.1107    6.2931 H         1 PHE         0.0557
     99 H42        -9.0949   -1.9645    4.1511 H         1 PHE         0.0557
    100 H43       -12.6345    1.4528    4.3573 H         1 PHE         0.0599
    101 H44       -10.5538   -1.6064    2.2101 H         1 PHE         0.0599
    102 H45       -12.3612    0.0835    2.3212 H         1 PHE         0.0559
    103 H46        -5.7185   -0.8569    7.0140 H         1 GLY         0.1873
    104 H47        -4.5805   -1.6992    8.8480 H         1 GLY         0.0689
    105 H48        -6.0184   -1.3256    9.8578 H         1 GLY         0.0689
@<TRIPOS>BOND
     1    1    2 1  
     2    2    3 1  
     3    2    5 1  
     4    3    4 2  
     5    3    7 am 
     6    5    6 1  
     7    6   33 1  
     8    7    8 1  
     9    8    9 1  
    10    9   10 2  
    11    9   11 am 
    12   11   12 1  
    13   12   13 1  
    14   12   15 1  
    15   13   14 2  
    16   13   19 am 
    17   15   16 1  
    18   16   17 1  
    19   16   18 1  
    20   19   20 1  
    21   20   21 1  
    22   20   23 1  
    23   21   22 2  
    24   21   28 am 
    25   23   24 1  
    26   24   25 1  
    27   25   26 ar 
    28   25   27 ar 
    29   28   29 1  
    30   29   30 1  
    31   29   32 1  
    32   30   31 2  
    33   30   34 am 
    34   32   33 1  
    35   34   35 1  
    36   35   36 1  
    37   35   38 1  
    38   36   37 2  
    39   36   42 am 
    40   38   39 1  
    41   39   40 2  
    42   39   41 am 
    43   42   43 1  
    44   43   44 1  
    45   43   46 1  
    46   44   45 2  
    47   44   53 am 
    48   46   47 1  
    49   47   48 ar 
    50   47   49 ar 
    51   48   50 ar 
    52   49   51 ar 
    53   50   52 ar 
    54   51   52 ar 
    55   53   54 1  
    56   54   55 1  
    57   55   56 ar 
    58   55   57 ar 
    59    1   58 1  
    60    1   59 1  
    61    1   60 1  
    62    2   61 1  
    63    5   62 1  
    64    5   63 1  
    65    7   64 1  
    66    8   65 1  
    67    8   66 1  
    68   11   67 1  
    69   12   68 1  
    70   15   69 1  
    71   15   70 1  
    72   16   71 1  
    73   17   72 1  
    74   17   73 1  
    75   17   74 1  
    76   18   75 1  
    77   18   76 1  
    78   18   77 1  
    79   19   78 1  
    80   20   79 1  
    81   23   80 1  
    82   23   81 1  
    83   24   82 1  
    84   24   83 1  
    85   28   84 1  
    86   29   85 1  
    87   32   86 1  
    88   32   87 1  
    89   34   88 1  
    90   35   89 1  
    91   38   90 1  
    92   38   91 1  
    93   41   92 1  
    94   41   93 1  
    95   42   94 1  
    96   43   95 1  
    97   46   96 1  
    98   46   97 1  
    99   48   98 1  
   100   49   99 1  
   101   50  100 1  
   102   51  101 1  
   103   52  102 1  
   104   53  103 1  
   105   54  104 1  
   106   54  105 1  
@<TRIPOS>SUBSTRUCTURE
     1 CYS         1

