### 
### Created by X-TOOL on Mon Sep 10 21:13:31 2018
### 

@<TRIPOS>MOLECULE
5wuk_ligand
   41    44     1     0     0
SMALL
GAST_HUCK


@<TRIPOS>ATOM
      1 C1         17.6340  -18.9620  -20.8850 C.2       1 73K        -0.0006
      2 C2         18.5010  -19.8570  -21.4130 C.2       1 73K         0.0384
      3 C3         19.8940  -19.3860  -21.5910 C.2       1 73K         0.1664
      4 C12        21.5160  -18.1310  -21.4670 C.2       1 73K         0.1443
      5 C13        19.1010  -15.0810  -18.1600 C.2       1 73K         0.1187
      6 C14        18.1280  -15.4090  -17.2940 C.2       1 73K        -0.0684
      7 C15        18.7990  -15.2590  -15.9810 C.2       1 73K        -0.0808
      8 C16        20.0430  -14.8540  -16.3140 C.2       1 73K         0.0670
      9 C18        18.3390  -21.6440  -23.1850 C.ar      1 73K        -0.0587
     10 C19        17.8480  -22.8680  -23.6670 C.ar      1 73K        -0.0414
     11 C20        17.0060  -23.6410  -22.8350 C.ar      1 73K         0.0834
     12 C21        16.6470  -23.1930  -21.5490 C.ar      1 73K        -0.0414
     13 C22        17.1730  -21.9900  -21.0530 C.ar      1 73K        -0.0587
     14 C25        17.8260  -26.1830  -23.5230 C.3       1 73K         0.0590
     15 N4         20.2310  -18.1760  -21.2250 N.pl3     1 73K        -0.1212
     16 C5         19.3850  -17.3010  -20.6800 C.2       1 73K         0.2882
     17 N6         18.1510  -17.6660  -20.5090 N.2       1 73K        -0.2548
     18 C7         18.0190  -21.2130  -21.8770 C.ar      1 73K        -0.0246
     19 N8         19.8070  -16.1000  -20.3110 N.pl3     1 73K        -0.2410
     20 C9         18.9940  -15.0570  -19.6770 C.3       1 73K         0.1017
     21 N10        20.8560  -20.0880  -22.0490 N.2       1 73K        -0.2755
     22 N11        21.9870  -19.2130  -21.9590 N.2       1 73K        -0.2638
     23 O17        20.2870  -14.7300  -17.6320 O.3       1 73K        -0.2666
     24 S23        16.3280  -25.1720  -23.4550 S.o2      1 73K        -0.0078
     25 O24        15.8540  -24.9500  -24.8090 O.2       1 73K        -0.1702
     26 O26        15.3790  -25.7000  -22.4900 O.2       1 73K        -0.1702
     27 H1         16.5825  -19.2100  -20.7481 H         1 73K         0.0858
     28 H2         22.1281  -17.2526  -21.2677 H         1 73K         0.1275
     29 H3         17.1027  -15.7099  -17.5041 H         1 73K         0.0219
     30 H4         18.3879  -15.4333  -14.9878 H         1 73K         0.0296
     31 H5         20.8021  -14.6408  -15.5629 H         1 73K         0.0854
     32 H6         18.9660  -21.0269  -23.8184 H         1 73K         0.0582
     33 H7         18.1101  -23.2144  -24.6602 H         1 73K         0.0624
     34 H8         15.9645  -23.7772  -20.9423 H         1 73K         0.0624
     35 H9         16.9331  -21.6602  -20.0487 H         1 73K         0.0582
     36 H10        17.5742  -27.1868  -23.8957 H         1 73K         0.0467
     37 H11        18.2597  -26.2641  -22.5154 H         1 73K         0.0467
     38 H12        18.5552  -25.7130  -24.1993 H         1 73K         0.0467
     39 H13        20.7977  -15.8787  -20.4857 H         1 73K         0.2006
     40 H14        19.3331  -14.0755  -20.0397 H         1 73K         0.0731
     41 H15        17.9418  -15.2088  -19.9595 H         1 73K         0.0731
@<TRIPOS>BOND
     1    1    2 2  
     2   17    1 1  
     3    3    2 1  
     4    2   18 1  
     5   15    3 1  
     6    3   21 2  
     7   15    4 1  
     8    4   22 2  
     9    5    6 2  
    10   20    5 1  
    11    5   23 1  
    12    6    7 1  
    13    8    7 2  
    14   23    8 1  
    15    9   10 ar 
    16   18    9 ar 
    17   10   11 ar 
    18   12   11 ar 
    19   11   24 1  
    20   13   12 ar 
    21   18   13 ar 
    22   24   14 1  
    23   16   15 1  
    24   16   17 2  
    25   19   16 1  
    26   19   20 1  
    27   21   22 1  
    28   24   25 2  
    29   24   26 2  
    30    1   27 1  
    31    4   28 1  
    32    6   29 1  
    33    7   30 1  
    34    8   31 1  
    35    9   32 1  
    36   10   33 1  
    37   12   34 1  
    38   13   35 1  
    39   14   36 1  
    40   14   37 1  
    41   14   38 1  
    42   19   39 1  
    43   20   40 1  
    44   20   41 1  
@<TRIPOS>SUBSTRUCTURE
     1 73K         1

