### 
### Created by X-TOOL on Mon Sep 10 21:13:31 2018
### 

@<TRIPOS>MOLECULE
5wuu_ligand
   44    46     1     0     0
SMALL
GAST_HUCK


@<TRIPOS>ATOM
      1 C1         -8.4150   -6.1240   -1.6850 C.ar      1 7UU        -0.0202
      2 C2         -7.1890   -6.7420   -1.4560 C.ar      1 7UU        -0.0643
      3 C3         -7.0700   -7.7390   -0.4800 C.ar      1 7UU        -0.0658
      4 C4         -8.1770   -8.1300    0.2700 C.ar      1 7UU        -0.0510
      5 C5         -9.3920   -7.5240    0.0490 C.ar      1 7UU         0.0536
      6 C6         -9.5120   -6.5120   -0.9550 C.ar      1 7UU         0.1436
      7 O7        -10.7390   -5.8700   -1.1990 O.3       1 7UU        -0.2171
      8 C8        -11.8260   -6.2040   -0.4980 C.2       1 7UU         0.2370
      9 C9        -11.7580   -7.2370    0.5240 C.2       1 7UU         0.0191
     10 C10       -10.5750   -7.8740    0.7840 C.2       1 7UU         0.0592
     11 O11       -13.0260   -5.5450   -0.7440 O.2       1 7UU        -0.3948
     12 N12       -10.5150   -8.9160    1.7890 N.pl3     1 7UU        -0.3128
     13 C13       -11.7590   -9.4390    2.3170 C.3       1 7UU         0.0303
     14 C14       -12.1610   -8.6560    3.5610 C.3       1 7UU        -0.0122
     15 C15       -11.0940   -8.7820    4.6450 C.3       1 7UU         0.0343
     16 N16       -11.3060   -7.6910    5.5830 N.am      1 7UU        -0.2784
     17 C17       -10.3890   -6.5770    5.7410 C.2       1 7UU         0.1996
     18 C18        -9.0700   -6.4170    4.9680 C.2       1 7UU         0.0722
     19 S19        -7.7260   -5.3210    5.5370 S.3       1 7UU        -0.1086
     20 C20        -6.9630   -5.2460    4.0870 C.3       1 7UU         0.0131
     21 C21        -7.5640   -6.2930    3.1690 C.3       1 7UU        -0.0140
     22 C22        -8.8830   -6.7150    3.6630 C.2       1 7UU        -0.0565
     23 O23       -10.7060   -5.7650    6.5420 O.2       1 7UU        -0.3952
     24 C24       -12.5080   -7.6810    6.3990 C.3       1 7UU         0.0214
     25 H1         -8.5033   -5.3438   -2.4324 H         1 7UU         0.0569
     26 H2         -6.3214   -6.4498   -2.0365 H         1 7UU         0.0629
     27 H3         -6.1092   -8.2101   -0.3067 H         1 7UU         0.0549
     28 H4         -8.0817   -8.9054    1.0215 H         1 7UU         0.0638
     29 H5        -12.6524   -7.5046    1.0847 H         1 7UU         0.0317
     30 H6         -9.6090   -9.2767    2.1205 H         1 7UU         0.1838
     31 H7        -11.6274  -10.4991    2.5794 H         1 7UU         0.0524
     32 H8        -12.5473   -9.3448    1.5556 H         1 7UU         0.0524
     33 H9        -13.1135   -9.0507    3.9442 H         1 7UU         0.0304
     34 H10       -12.2835   -7.5954    3.2964 H         1 7UU         0.0304
     35 H11       -10.0916   -8.7061    4.1984 H         1 7UU         0.0521
     36 H12       -11.1931   -9.7481    5.1615 H         1 7UU         0.0521
     37 H13        -5.8895   -5.4443    4.2224 H         1 7UU         0.0422
     38 H14        -7.0988   -4.2466    3.6481 H         1 7UU         0.0422
     39 H15        -6.8960   -7.1661    3.1294 H         1 7UU         0.0446
     40 H16        -7.6740   -5.8694    2.1598 H         1 7UU         0.0446
     41 H17        -9.6281   -7.2134    3.0447 H         1 7UU         0.0647
     42 H18       -12.5048   -6.7911    7.0456 H         1 7UU         0.0484
     43 H19       -12.5356   -8.5870    7.0223 H         1 7UU         0.0484
     44 H20       -13.3936   -7.6573    5.7470 H         1 7UU         0.0484
@<TRIPOS>BOND
     1    1    2 ar 
     2    1    6 ar 
     3    2    3 ar 
     4    3    4 ar 
     5    4    5 ar 
     6    5    6 ar 
     7    5   10 1  
     8    6    7 1  
     9    7    8 1  
    10    8    9 1  
    11    8   11 2  
    12    9   10 2  
    13   10   12 1  
    14   12   13 1  
    15   13   14 1  
    16   14   15 1  
    17   15   16 1  
    18   16   17 am 
    19   16   24 1  
    20   17   18 1  
    21   17   23 2  
    22   18   19 1  
    23   18   22 2  
    24   19   20 1  
    25   20   21 1  
    26   21   22 1  
    27    1   25 1  
    28    2   26 1  
    29    3   27 1  
    30    4   28 1  
    31    9   29 1  
    32   12   30 1  
    33   13   31 1  
    34   13   32 1  
    35   14   33 1  
    36   14   34 1  
    37   15   35 1  
    38   15   36 1  
    39   20   37 1  
    40   20   38 1  
    41   21   39 1  
    42   21   40 1  
    43   22   41 1  
    44   24   42 1  
    45   24   43 1  
    46   24   44 1  
@<TRIPOS>SUBSTRUCTURE
     1 7UU         1

