### 
### Created by X-TOOL on Wed Jan  1 15:39:38 2020
### 

@<TRIPOS>MOLECULE
5wxp_ligand
   85    85     1     0     0
SMALL
GAST_HUCK


@<TRIPOS>ATOM
      1 N         -28.6920   -9.2540    3.2620 N.4       1 CYS         0.2385
      2 CA        -28.7570   -9.2360    1.8050 C.3       1 CYS         0.0749
      3 C         -29.5360  -10.4340    1.2740 C.2       1 CYS         0.2276
      4 O         -29.3610  -11.5590    1.7430 O.2       1 CYS        -0.3907
      5 CB        -27.3490   -9.2170    1.2060 C.3       1 CYS         0.0643
      6 SG        -26.3750   -7.7450    1.5680 S.3       1 CYS        -0.0848
      7 N         -30.4050  -10.2000    0.2990 N.am      1 SER        -0.2588
      8 CA        -31.1980  -11.2370   -0.2870 C.3       1 SER         0.1540
      9 C         -30.5680  -11.6950   -1.5910 C.2       1 SER         0.2062
     10 O         -30.9040  -12.7150   -2.0840 O.2       1 SER        -0.3943
     11 CB        -32.5990  -10.7340   -0.5410 C.3       1 SER         0.0843
     12 OG        -32.5950   -9.5950   -1.3400 O.3       1 SER        -0.3903
     13 N         -29.6470  -10.9190   -2.1150 N.am      1 ALA        -0.2639
     14 CA        -29.0410  -11.1250   -3.4360 C.3       1 ALA         0.1282
     15 C         -28.1410  -12.3320   -3.4780 C.2       1 ALA         0.2034
     16 O         -27.4080  -12.6230   -2.5370 O.2       1 ALA        -0.3944
     17 CB        -28.2320   -9.9040   -3.8430 C.3       1 ALA        -0.0244
     18 CD1       -29.0400  -16.6970   -2.8920 C.ar      1 7XC         0.0161
     19 N3        -33.1600  -19.4820   -2.8780 N.pl3     1 7XC        -0.3494
     20 CG        -29.3880  -16.4720   -4.2240 C.ar      1 7XC         0.0420
     21 CB        -28.3550  -15.9800   -5.2250 C.3       1 7XC         0.0558
     22 CA        -27.8610  -14.5620   -4.9620 C.3       1 7XC         0.1175
     23 C         -26.4340  -14.2910   -5.4150 C.2       1 7XC         0.0651
     24 C10       -33.0540  -18.9080   -1.6740 C.cat     1 7XC         0.1642
     25 O         -25.6270  -15.2250   -5.6420 O.co2     1 7XC        -0.5662
     26 N         -28.3200  -13.8070   -3.8470 N.am      1 7XC        -0.2651
     27 CD2       -30.6870  -16.7350   -4.6260 C.ar      1 7XC         0.0161
     28 CE2       -31.6300  -17.2210   -3.7250 C.ar      1 7XC         0.0451
     29 CZ        -31.2750  -17.4300   -2.3900 C.ar      1 7XC         0.1556
     30 CE1       -29.9790  -17.1640   -1.9860 C.ar      1 7XC         0.0451
     31 N2        -32.1840  -17.9210   -1.4320 N.pl3     1 7XC        -0.2414
     32 N4        -33.8640  -19.3100   -0.7000 N.pl3     1 7XC        -0.3494
     33 OXT       -26.0070  -13.1230   -5.5800 O.co2     1 7XC        -0.5662
     34 N         -26.2250   -7.2640   -4.5360 N.4       1 CYS         0.2377
     35 CA        -26.7150   -6.1650   -3.7260 C.3       1 CYS         0.0621
     36 C         -27.3250   -6.5440   -2.3570 C.2       1 CYS         0.2259
     37 O         -27.4640   -7.6940   -2.0010 O.2       1 CYS        -0.3908
     38 CB        -27.6610   -5.2960   -4.5370 C.3       1 CYS        -0.0040
     39 N         -27.6170   -5.5210   -1.5870 N.am      1 CYS        -0.2660
     40 CA        -28.2870   -5.5350   -0.2920 C.3       1 CYS         0.1042
     41 C         -29.6740   -4.9050   -0.3810 C.2       1 CYS         0.0609
     42 O         -30.1340   -4.6760   -1.5510 O.co2     1 CYS        -0.5666
     43 CB        -27.4450   -4.8050    0.7560 C.3       1 CYS         0.0388
     44 SG        -26.9070   -5.8430    2.1360 S.3       1 CYS        -0.0887
     45 OXT       -30.2690   -4.6520    0.7190 O.co2     1 CYS        -0.5666
     46 H1        -28.1727   -8.4528    3.5851 H         1 CYS         0.2015
     47 H2        -28.2326  -10.0976    3.5675 H         1 CYS         0.2015
     48 H3        -29.6258   -9.2240    3.6404 H         1 CYS         0.2015
     49 H4        -29.2795   -8.3190    1.4950 H         1 CYS         0.1107
     50 H5        -27.4439   -9.3009    0.1133 H         1 CYS         0.0466
     51 H6        -26.8030  -10.0892    1.5947 H         1 CYS         0.0466
     52 H7        -30.5096   -9.2646   -0.0387 H         1 SER         0.1885
     53 H8        -31.2438  -12.0888    0.4075 H         1 SER         0.0823
     54 H9        -33.0724  -10.4931    0.4222 H         1 SER         0.0606
     55 H10       -33.1759  -11.5228   -1.0460 H         1 SER         0.0606
     56 H11       -33.4887   -9.3049   -1.4804 H         1 SER         0.2097
     57 H12       -29.3376  -10.1345   -1.5775 H         1 ALA         0.1883
     58 H13       -29.8526  -11.2719   -4.1638 H         1 ALA         0.0797
     59 H14       -27.7850  -10.0739   -4.8336 H         1 ALA         0.0277
     60 H15       -27.4343   -9.7302   -3.1058 H         1 ALA         0.0277
     61 H16       -28.8912   -9.0244   -3.8842 H         1 ALA         0.0277
     62 H17       -28.0254  -16.5047   -2.5624 H         1 7XC         0.0861
     63 H18       -33.8410  -20.2398   -3.0291 H         1 7XC         0.1668
     64 H19       -32.5606  -19.1661   -3.6537 H         1 7XC         0.1668
     65 H20       -28.8049  -16.0087   -6.2284 H         1 7XC         0.0697
     66 H21       -27.4903  -16.6590   -5.1913 H         1 7XC         0.0697
     67 H22       -28.4152  -14.0387   -5.7551 H         1 7XC         0.0783
     68 H23       -28.8550  -14.3337   -3.1864 H         1 7XC         0.1879
     69 H24       -30.9733  -16.5599   -5.6568 H         1 7XC         0.0861
     70 H25       -32.6385  -17.4371   -4.0586 H         1 7XC         0.0932
     71 H26       -29.6954  -17.3222   -0.9518 H         1 7XC         0.0932
     72 H27       -32.1784  -17.4966   -0.4935 H         1 7XC         0.2425
     73 H28       -34.5390  -20.0688   -0.8718 H         1 7XC         0.1668
     74 H29       -33.8168  -18.8627    0.2266 H         1 7XC         0.1668
     75 H30       -25.8517   -6.9039   -5.4003 H         1 CYS         0.2015
     76 H31       -26.9826   -7.8982   -4.7356 H         1 CYS         0.2015
     77 H32       -25.5002   -7.7536   -4.0350 H         1 CYS         0.2015
     78 H33       -25.8350   -5.5464   -3.4960 H         1 CYS         0.1095
     79 H34       -28.0248   -4.4674   -3.9116 H         1 CYS         0.0310
     80 H35       -28.5145   -5.9011   -4.8766 H         1 CYS         0.0310
     81 H36       -27.1287   -4.8902   -5.4099 H         1 CYS         0.0310
     82 H37       -27.3466   -4.6219   -1.9311 H         1 CYS         0.1877
     83 H38       -28.4031   -6.5824    0.0234 H         1 CYS         0.0734
     84 H39       -28.0434   -3.9760    1.1618 H         1 CYS         0.0425
     85 H40       -26.5501   -4.4023    0.2590 H         1 CYS         0.0425
@<TRIPOS>BOND
     1    2    1 1  
     2    2    3 1  
     3    5    2 1  
     4    3    4 2  
     5    3    7 am 
     6    6    5 1  
     7   44    6 1  
     8    7    8 1  
     9    8    9 1  
    10    8   11 1  
    11    9   10 2  
    12    9   13 am 
    13   11   12 1  
    14   13   14 1  
    15   14   15 1  
    16   14   17 1  
    17   15   16 2  
    18   15   26 am 
    19   20   18 ar 
    20   18   30 ar 
    21   24   19 ar 
    22   21   20 1  
    23   20   27 ar 
    24   22   21 1  
    25   22   23 1  
    26   26   22 1  
    27   23   25 ar 
    28   23   33 ar 
    29   31   24 ar 
    30   24   32 ar 
    31   27   28 ar 
    32   28   29 ar 
    33   30   29 ar 
    34   29   31 1  
    35   35   34 1  
    36   36   35 1  
    37   35   38 1  
    38   36   37 2  
    39   39   36 am 
    40   40   39 1  
    41   40   41 1  
    42   43   40 1  
    43   41   42 ar 
    44   41   45 ar 
    45   43   44 1  
    46    1   46 1  
    47    1   47 1  
    48    1   48 1  
    49    2   49 1  
    50    5   50 1  
    51    5   51 1  
    52    7   52 1  
    53    8   53 1  
    54   11   54 1  
    55   11   55 1  
    56   12   56 1  
    57   13   57 1  
    58   14   58 1  
    59   17   59 1  
    60   17   60 1  
    61   17   61 1  
    62   18   62 1  
    63   19   63 1  
    64   19   64 1  
    65   21   65 1  
    66   21   66 1  
    67   22   67 1  
    68   26   68 1  
    69   27   69 1  
    70   28   70 1  
    71   30   71 1  
    72   31   72 1  
    73   32   73 1  
    74   32   74 1  
    75   34   75 1  
    76   34   76 1  
    77   34   77 1  
    78   35   78 1  
    79   38   79 1  
    80   38   80 1  
    81   38   81 1  
    82   39   82 1  
    83   40   83 1  
    84   43   84 1  
    85   43   85 1  
@<TRIPOS>SUBSTRUCTURE
     1 CYS         1

