### 
### Created by X-TOOL on Fri Nov  2 11:06:39 2018
### 

@<TRIPOS>MOLECULE
5wyq_ligand
   50    52     1     0     0
SMALL
GAST_HUCK


@<TRIPOS>ATOM
      1 N         -28.4310   13.6360  -31.8110 N.4       1 SAM         0.2328
      2 CA        -29.6760   12.8970  -31.5760 C.3       1 SAM         0.0327
      3 C         -30.8280   13.5190  -32.4220 C.2       1 SAM         0.0846
      4 O         -30.6390   13.5350  -33.6590 O.co2     1 SAM        -0.5643
      5 OXT       -31.8580   13.9660  -31.8470 O.co2     1 SAM        -0.5643
      6 CB        -29.9780   12.8000  -30.0710 C.3       1 SAM         0.0473
      7 CG        -30.8880   11.6020  -29.8440 C.3       1 SAM         0.1163
      8 SD        -30.9930   11.1670  -28.0690 S.3       1 SAM        -0.0103
      9 CE        -29.6050   10.0910  -27.7360 C.3       1 SAM         0.0995
     10 C5'       -32.5390   10.1860  -27.8530 C.3       1 SAM         0.1381
     11 C4'       -33.7620   11.0520  -27.4960 C.3       1 SAM         0.1350
     12 O4'       -33.5140   11.8310  -26.3100 O.3       1 SAM        -0.3344
     13 C3'       -34.1070   12.1060  -28.5230 C.3       1 SAM         0.1168
     14 O3'       -34.8210   11.5040  -29.6180 O.3       1 SAM        -0.3863
     15 C2'       -35.0220   12.9860  -27.6880 C.3       1 SAM         0.1386
     16 O2'       -36.4060   12.4130  -27.6590 O.3       1 SAM        -0.3836
     17 C1'       -34.4260   12.9300  -26.2920 C.3       1 SAM         0.2011
     18 N9        -33.6320   14.1250  -25.8740 N.pl3     1 SAM        -0.1919
     19 C8        -32.3020   14.0680  -25.6900 C.2       1 SAM         0.1123
     20 N7        -31.8740   15.2640  -25.2690 N.2       1 SAM        -0.2958
     21 C5        -32.9450   16.0680  -25.1550 C.ar      1 SAM         0.1045
     22 C6        -33.0660   17.3590  -24.8350 C.ar      1 SAM         0.1298
     23 N6        -31.9550   18.0040  -24.4580 N.pl3     1 SAM        -0.3152
     24 N1        -34.2480   17.9930  -24.8870 N.ar      1 SAM        -0.2698
     25 C2        -35.4010   17.2900  -25.2000 C.ar      1 SAM         0.0533
     26 N3        -35.2410   15.9460  -25.5390 N.ar      1 SAM        -0.2714
     27 C4        -34.0290   15.3690  -25.5400 C.ar      1 SAM         0.1613
     28 H1        -27.6901   13.2294  -31.2616 H         1 SAM         0.2010
     29 H2        -28.5569   14.5999  -31.5443 H         1 SAM         0.2010
     30 H3        -28.1903   13.5865  -32.7886 H         1 SAM         0.2010
     31 H4        -29.5288   11.8689  -31.9385 H         1 SAM         0.1026
     32 H5        -30.4801   13.7182  -29.7322 H         1 SAM         0.0385
     33 H6        -29.0406   12.6667  -29.5111 H         1 SAM         0.0385
     34 H7        -30.4903   10.7404  -30.4003 H         1 SAM         0.0843
     35 H8        -31.8957   11.8434  -30.2131 H         1 SAM         0.0843
     36 H9        -29.6164    9.7951  -26.6766 H         1 SAM         0.0803
     37 H10       -28.6677   10.6221  -27.9583 H         1 SAM         0.0803
     38 H11       -29.6768    9.1936  -28.3681 H         1 SAM         0.0803
     39 H12       -32.3800    9.4559  -27.0457 H         1 SAM         0.0867
     40 H13       -32.7496    9.6539  -28.7924 H         1 SAM         0.0867
     41 H14       -34.6230   10.3842  -27.3452 H         1 SAM         0.0671
     42 H15       -33.2232   12.6478  -28.8910 H         1 SAM         0.0649
     43 H16       -35.0350   12.1709  -30.2599 H         1 SAM         0.2100
     44 H17       -35.0447   14.0159  -28.0738 H         1 SAM         0.0676
     45 H18       -36.9678   12.9714  -27.1346 H         1 SAM         0.2101
     46 H19       -35.2323   12.7634  -25.5626 H         1 SAM         0.0996
     47 H20       -31.6757   13.1927  -25.8561 H         1 SAM         0.1349
     48 H21       -31.9999   19.0007  -24.2020 H         1 SAM         0.1820
     49 H22       -31.0554   17.5036  -24.4240 H         1 SAM         0.1820
     50 H23       -36.3774   17.7605  -25.1823 H         1 SAM         0.0996
@<TRIPOS>BOND
     1    1    2 1  
     2    2    3 1  
     3    2    6 1  
     4    3    4 ar 
     5    3    5 ar 
     6    6    7 1  
     7    7    8 1  
     8    8    9 1  
     9    8   10 1  
    10   10   11 1  
    11   11   12 1  
    12   11   13 1  
    13   12   17 1  
    14   13   14 1  
    15   13   15 1  
    16   15   16 1  
    17   15   17 1  
    18   17   18 1  
    19   18   19 1  
    20   18   27 1  
    21   19   20 2  
    22   20   21 1  
    23   21   22 ar 
    24   21   27 ar 
    25   22   23 1  
    26   22   24 ar 
    27   24   25 ar 
    28   25   26 ar 
    29   26   27 ar 
    30    1   28 1  
    31    1   29 1  
    32    1   30 1  
    33    2   31 1  
    34    6   32 1  
    35    6   33 1  
    36    7   34 1  
    37    7   35 1  
    38    9   36 1  
    39    9   37 1  
    40    9   38 1  
    41   10   39 1  
    42   10   40 1  
    43   11   41 1  
    44   13   42 1  
    45   14   43 1  
    46   15   44 1  
    47   16   45 1  
    48   17   46 1  
    49   19   47 1  
    50   23   48 1  
    51   23   49 1  
    52   25   50 1  
@<TRIPOS>SUBSTRUCTURE
     1 SAM         1

