### 
### Created by X-TOOL on Fri Nov  2 11:06:40 2018
### 

@<TRIPOS>MOLECULE
5wyr_ligand
   51    53     1     0     0
SMALL
GAST_HUCK


@<TRIPOS>ATOM
      1 N         -28.8500   12.0590  -31.9100 N.4       1 SFG         0.2327
      2 CA        -29.7280   13.0560  -31.2920 C.3       1 SFG         0.0285
      3 C         -28.9820   14.4040  -31.2610 C.2       1 SFG         0.0844
      4 O         -27.7540   14.4020  -31.0090 O.co2     1 SFG        -0.5643
      5 OXT       -29.6780   15.4220  -31.4560 O.co2     1 SFG        -0.5643
      6 CB        -30.1490   12.7120  -29.8440 C.3       1 SFG         0.0075
      7 CG        -30.7300   11.2990  -29.6940 C.3       1 SFG        -0.0030
      8 CD        -30.9090   10.9790  -28.1990 C.3       1 SFG        -0.0216
      9 NE        -29.7340   10.2550  -27.7660 N.4       1 SFG         0.2208
     10 C5'       -32.1590   10.1080  -27.9550 C.3       1 SFG         0.0191
     11 C4'       -33.4490   10.9060  -27.5960 C.3       1 SFG         0.0957
     12 O4'       -33.3820   11.6270  -26.3210 O.3       1 SFG        -0.3389
     13 C3'       -33.8100   11.9450  -28.6060 C.3       1 SFG         0.1126
     14 O3'       -34.4580   11.3240  -29.6930 O.3       1 SFG        -0.3865
     15 C2'       -34.7160   12.8950  -27.8070 C.3       1 SFG         0.1384
     16 O2'       -36.0980   12.4050  -27.8090 O.3       1 SFG        -0.3836
     17 C1'       -34.1690   12.8100  -26.3880 C.3       1 SFG         0.2009
     18 N9        -33.2940   13.9260  -25.9770 N.pl3     1 SFG        -0.1919
     19 C8        -31.9920   13.8000  -25.6850 C.2       1 SFG         0.1123
     20 N7        -31.5430   14.9680  -25.2360 N.2       1 SFG        -0.2958
     21 C5        -32.5890   15.8190  -25.1860 C.ar      1 SFG         0.1045
     22 C6        -32.7170   17.0700  -24.7080 C.ar      1 SFG         0.1298
     23 N6        -31.6070   17.7180  -24.3310 N.pl3     1 SFG        -0.3152
     24 N1        -33.8370   17.7610  -24.8410 N.ar      1 SFG        -0.2698
     25 C2        -35.1030   17.1520  -25.2490 C.ar      1 SFG         0.0533
     26 N3        -34.8850   15.7340  -25.6060 N.ar      1 SFG        -0.2714
     27 C4        -33.6810   15.1470  -25.5820 C.ar      1 SFG         0.1613
     28 H1        -29.3213   11.1685  -31.9394 H         1 SFG         0.2010
     29 H2        -28.0044   11.9738  -31.3680 H         1 SFG         0.2010
     30 H3        -28.6203   12.3487  -32.8477 H         1 SFG         0.2010
     31 H4        -30.6355   13.1492  -31.9067 H         1 SFG         0.1024
     32 H5        -30.9103   13.4374  -29.5212 H         1 SFG         0.0340
     33 H6        -29.2646   12.7953  -29.1952 H         1 SFG         0.0340
     34 H7        -30.0426   10.5690  -30.1463 H         1 SFG         0.0323
     35 H8        -31.7052   11.2469  -30.2003 H         1 SFG         0.0323
     36 H9        -31.0042   11.9161  -27.6309 H         1 SFG         0.0851
     37 H10       -29.8200   10.0295  -26.7873 H         1 SFG         0.1997
     38 H11       -28.9158   10.8263  -27.9085 H         1 SFG         0.1997
     39 H12       -29.6474    9.4047  -28.3003 H         1 SFG         0.1997
     40 H13       -31.9402    9.4194  -27.1256 H         1 SFG         0.0346
     41 H14       -32.3573    9.5295  -28.8693 H         1 SFG         0.0346
     42 H15       -34.2681   10.1740  -27.5383 H         1 SFG         0.0626
     43 H16       -32.9198   12.4783  -28.9707 H         1 SFG         0.0647
     44 H17       -34.6901   11.9807  -30.3390 H         1 SFG         0.2100
     45 H18       -34.6709   13.9208  -28.2015 H         1 SFG         0.0676
     46 H19       -36.6451   13.0017  -27.3120 H         1 SFG         0.2101
     47 H20       -35.0150   12.7491  -25.6876 H         1 SFG         0.0996
     48 H21       -31.4006   12.8924  -25.7969 H         1 SFG         0.1349
     49 H22       -31.6711   18.6770  -23.9608 H         1 SFG         0.1820
     50 H23       -30.6893   17.2573  -24.4113 H         1 SFG         0.1820
     51 H24       -36.0579   17.6638  -25.2843 H         1 SFG         0.0996
@<TRIPOS>BOND
     1    1    2 1  
     2    2    3 1  
     3    2    6 1  
     4    3    4 ar 
     5    3    5 ar 
     6    6    7 1  
     7    7    8 1  
     8    8    9 1  
     9    8   10 1  
    10   10   11 1  
    11   11   12 1  
    12   11   13 1  
    13   12   17 1  
    14   13   14 1  
    15   13   15 1  
    16   15   16 1  
    17   15   17 1  
    18   17   18 1  
    19   18   19 1  
    20   18   27 1  
    21   19   20 2  
    22   20   21 1  
    23   21   22 ar 
    24   21   27 ar 
    25   22   23 1  
    26   22   24 ar 
    27   24   25 ar 
    28   25   26 ar 
    29   26   27 ar 
    30    1   28 1  
    31    1   29 1  
    32    1   30 1  
    33    2   31 1  
    34    6   32 1  
    35    6   33 1  
    36    7   34 1  
    37    7   35 1  
    38    8   36 1  
    39    9   37 1  
    40    9   38 1  
    41    9   39 1  
    42   10   40 1  
    43   10   41 1  
    44   11   42 1  
    45   13   43 1  
    46   14   44 1  
    47   15   45 1  
    48   16   46 1  
    49   17   47 1  
    50   19   48 1  
    51   23   49 1  
    52   23   50 1  
    53   25   51 1  
@<TRIPOS>SUBSTRUCTURE
     1 SFG         1

