### 
### Created by X-TOOL on Mon Sep 10 21:13:33 2018
### 

@<TRIPOS>MOLECULE
5wyx_ligand
   31    33     1     0     0
SMALL
GAST_HUCK


@<TRIPOS>ATOM
      1 O          60.5340  -31.8330   39.4220 O.2       1 CU8        -0.4084
      2 C12        61.2320  -31.5250   38.5330 C.2       1 CU8         0.1711
      3 N3         62.5090  -31.6710   38.6290 N.am      1 CU8        -0.3074
      4 C5         60.6320  -30.9210   37.3450 C.2       1 CU8         0.0738
      5 C          61.4580  -30.7040   36.1670 C.2       1 CU8         0.1828
      6 N          60.6290  -30.1660   35.3590 N.pl3     1 CU8        -0.1254
      7 N2         59.3710  -30.0010   35.8550 N.2       1 CU8        -0.2038
      8 C4         59.3710  -30.4710   37.0880 C.2       1 CU8         0.0046
      9 N1         62.7330  -30.9750   35.9050 N.2       1 CU8        -0.2645
     10 C3         63.2280  -30.6510   34.7340 C.2       1 CU8         0.0152
     11 C2         62.3680  -30.0610   33.8350 C.2       1 CU8         0.0132
     12 C1         61.0550  -29.8270   34.1600 C.2       1 CU8         0.1510
     13 C6         60.1520  -29.1810   33.1930 C.ar      1 CU8         0.0307
     14 C10        59.4080  -28.1130   33.6180 C.ar      1 CU8        -0.0498
     15 C11        58.5400  -27.4590   32.7910 C.ar      1 CU8        -0.0624
     16 C9         58.4350  -27.8570   31.5000 C.ar      1 CU8        -0.0558
     17 C8         59.1760  -28.9020   31.0470 C.ar      1 CU8        -0.0405
     18 C13        59.0290  -29.3010   29.6240 C.3       1 CU8        -0.0302
     19 C7         60.0410  -29.5710   31.8820 C.ar      1 CU8        -0.0423
     20 H1         63.1011  -31.4068   37.8677 H         1 CU8         0.1792
     21 H2         62.9077  -32.0485   39.4648 H         1 CU8         0.1792
     22 H3         58.5235  -30.4949   37.7715 H         1 CU8         0.0692
     23 H4         64.2711  -30.8400   34.4845 H         1 CU8         0.0980
     24 H5         62.7353  -29.7754   32.8504 H         1 CU8         0.0625
     25 H6         59.5112  -27.7760   34.6431 H         1 CU8         0.0614
     26 H7         57.9436  -26.6333   33.1620 H         1 CU8         0.0613
     27 H8         57.7590  -27.3411   30.8278 H         1 CU8         0.0597
     28 H9         59.6892  -30.1551   29.4126 H         1 CU8         0.0391
     29 H10        59.3040  -28.4558   28.9759 H         1 CU8         0.0391
     30 H11        57.9850  -29.5877   29.4295 H         1 CU8         0.0391
     31 H12        60.6304  -30.3999   31.5071 H         1 CU8         0.0604
@<TRIPOS>BOND
     1    1    2 2  
     2    2    3 am 
     3    2    4 1  
     4    4    5 2  
     5    4    8 1  
     6    5    6 1  
     7    5    9 1  
     8    6    7 1  
     9    6   12 1  
    10    7    8 2  
    11    9   10 2  
    12   10   11 1  
    13   11   12 2  
    14   12   13 1  
    15   13   14 ar 
    16   13   19 ar 
    17   14   15 ar 
    18   15   16 ar 
    19   16   17 ar 
    20   17   18 1  
    21   17   19 ar 
    22    3   20 1  
    23    3   21 1  
    24    8   22 1  
    25   10   23 1  
    26   11   24 1  
    27   14   25 1  
    28   15   26 1  
    29   16   27 1  
    30   18   28 1  
    31   18   29 1  
    32   18   30 1  
    33   19   31 1  
@<TRIPOS>SUBSTRUCTURE
     1 CU8         1

