### 
### Created by X-TOOL on Mon Sep 10 21:13:33 2018
### 

@<TRIPOS>MOLECULE
5wyz_ligand
   32    34     1     0     0
SMALL
GAST_HUCK


@<TRIPOS>ATOM
      1 O1         57.5340  -26.8020   30.9860 O.3       1 7VF        -0.3333
      2 C8         58.4220  -27.4820   31.7230 C.ar      1 7VF         0.0944
      3 C7         59.1900  -28.5380   31.0790 C.ar      1 7VF        -0.0120
      4 C11        58.8950  -28.8680   29.6390 C.3       1 7VF        -0.0321
      5 C6         60.1290  -29.2510   31.8450 C.ar      1 7VF        -0.0561
      6 C10        58.7080  -27.1360   33.0660 C.ar      1 7VF        -0.0342
      7 C9         59.6730  -27.8540   33.7850 C.ar      1 7VF        -0.0638
      8 C5         60.3710  -28.9120   33.1880 C.ar      1 7VF        -0.0238
      9 C2         61.3890  -29.6480   34.0000 C.ar      1 7VF        -0.0050
     10 C3         62.6750  -29.8640   33.5440 C.ar      1 7VF        -0.0333
     11 C4         63.6020  -30.6010   34.3280 C.ar      1 7VF         0.0007
     12 N          63.3210  -31.1350   35.5220 N.ar      1 7VF        -0.3091
     13 C          61.0580  -30.2360   35.3160 C.ar      1 7VF         0.0035
     14 C12        59.7930  -30.1250   35.8630 C.ar      1 7VF        -0.0492
     15 C13        59.4970  -30.6630   37.0870 C.ar      1 7VF        -0.0234
     16 C15        60.4900  -31.3260   37.7970 C.ar      1 7VF         0.0934
     17 O          60.0910  -31.7740   38.9970 O.3       1 7VF        -0.3299
     18 C14        61.7710  -31.4860   37.3180 C.ar      1 7VF        -0.0162
     19 C1         62.0960  -30.9700   36.0700 C.ar      1 7VF         0.0313
     20 H1         57.1081  -26.1487   31.5284 H         1 7VF         0.2479
     21 H2         59.5568  -29.6812   29.3062 H         1 7VF         0.0369
     22 H3         59.0664  -27.9776   29.0162 H         1 7VF         0.0369
     23 H4         57.8464  -29.1862   29.5431 H         1 7VF         0.0369
     24 H5         60.6735  -30.0728   31.3943 H         1 7VF         0.0556
     25 H6         58.1802  -26.3153   33.5381 H         1 7VF         0.0537
     26 H7         59.8818  -27.5878   34.8149 H         1 7VF         0.0571
     27 H8         62.9786  -29.4684   32.5815 H         1 7VF         0.0638
     28 H9         64.6020  -30.7398   33.9333 H         1 7VF         0.0833
     29 H10        59.0201  -29.6016   35.3119 H         1 7VF         0.0644
     30 H11        58.4979  -30.5724   37.4977 H         1 7VF         0.0605
     31 H12        60.8151  -32.2148   39.4260 H         1 7VF         0.2500
     32 H13        62.5162  -32.0079   37.9073 H         1 7VF         0.0511
@<TRIPOS>BOND
     1    1    2 1  
     2    2    3 ar 
     3    2    6 ar 
     4    3    4 1  
     5    3    5 ar 
     6    5    8 ar 
     7    6    7 ar 
     8    7    8 ar 
     9    8    9 1  
    10    9   10 ar 
    11    9   13 ar 
    12   10   11 ar 
    13   11   12 ar 
    14   12   19 ar 
    15   13   14 ar 
    16   13   19 ar 
    17   14   15 ar 
    18   15   16 ar 
    19   16   17 1  
    20   16   18 ar 
    21   18   19 ar 
    22    1   20 1  
    23    4   21 1  
    24    4   22 1  
    25    4   23 1  
    26    5   24 1  
    27    6   25 1  
    28    7   26 1  
    29   10   27 1  
    30   11   28 1  
    31   14   29 1  
    32   15   30 1  
    33   17   31 1  
    34   18   32 1  
@<TRIPOS>SUBSTRUCTURE
     1 7VF         1

