### 
### Created by X-TOOL on Mon Sep 10 21:13:34 2018
### 

@<TRIPOS>MOLECULE
5wzr_ligand
   31    31     1     0     0
SMALL
GAST_HUCK


@<TRIPOS>ATOM
      1 O7         18.5050    3.3740   57.1650 O.2       1 DJN        -0.3974
      2 C7         18.3210    4.5720   57.3710 C.2       1 DJN         0.1734
      3 C8         16.8880    5.0650   57.3620 C.3       1 DJN         0.0257
      4 N2         19.2890    5.5170   57.6020 N.am      1 DJN        -0.2764
      5 C2         20.7390    5.1990   57.6590 C.3       1 DJN         0.1099
      6 C3         21.3410    5.5890   58.9910 C.3       1 DJN         0.1141
      7 O3         20.6280    4.9680   60.0370 O.3       1 DJN        -0.3865
      8 C4         22.7990    5.1450   59.0530 C.3       1 DJN         0.1277
      9 O4         22.9160    3.6780   58.9590 O.3       1 DJN        -0.3835
     10 C5         23.5260    5.8670   57.9210 C.3       1 DJN         0.0301
     11 C6         24.9410    5.3930   57.7820 C.3       1 DJN         0.0893
     12 O6         25.3920    5.8730   56.4860 O.3       1 DJN        -0.3894
     13 N5         22.8830    5.6040   56.6420 N.4       1 DJN         0.2344
     14 C1         21.4460    5.9460   56.6040 C.3       1 DJN        -0.0071
     15 H1         16.8713    6.1472   57.5584 H         1 DJN         0.0467
     16 H2         16.3154    4.5420   58.1420 H         1 DJN         0.0467
     17 H3         16.4372    4.8638   56.3790 H         1 DJN         0.0467
     18 H4         19.0044    6.4659   57.7386 H         1 DJN         0.1857
     19 H5         20.8746    4.1187   57.5021 H         1 DJN         0.0636
     20 H6         21.2860    6.6814   59.1082 H         1 DJN         0.0646
     21 H7         19.7200    5.2459   60.0084 H         1 DJN         0.2100
     22 H8         23.2327    5.4602   60.0135 H         1 DJN         0.0678
     23 H9         23.8325    3.4312   59.0002 H         1 DJN         0.2102
     24 H10        23.5165    6.9474   58.1277 H         1 DJN         0.0900
     25 H11        24.9828    4.2945   57.8197 H         1 DJN         0.0614
     26 H12        25.5661    5.8115   58.5845 H         1 DJN         0.0614
     27 H13        26.2905    5.5994   56.3434 H         1 DJN         0.2097
     28 H14        22.9796    4.6221   56.4357 H         1 DJN         0.2019
     29 H15        23.3551    6.1442   55.9339 H         1 DJN         0.2019
     30 H16        21.3209    7.0259   56.7718 H         1 DJN         0.0838
     31 H17        21.0303    5.6769   55.6218 H         1 DJN         0.0838
@<TRIPOS>BOND
     1    1    2 2  
     2    2    3 1  
     3    2    4 am 
     4    4    5 1  
     5    5    6 1  
     6    5   14 1  
     7    6    7 1  
     8    6    8 1  
     9    8    9 1  
    10    8   10 1  
    11   10   11 1  
    12   10   13 1  
    13   11   12 1  
    14   13   14 1  
    15    3   15 1  
    16    3   16 1  
    17    3   17 1  
    18    4   18 1  
    19    5   19 1  
    20    6   20 1  
    21    7   21 1  
    22    8   22 1  
    23    9   23 1  
    24   10   24 1  
    25   11   25 1  
    26   11   26 1  
    27   12   27 1  
    28   13   28 1  
    29   13   29 1  
    30   14   30 1  
    31   14   31 1  
@<TRIPOS>SUBSTRUCTURE
     1 DJN         1

