### 
### Created by X-TOOL on Wed Jan  1 15:39:38 2020
### 

@<TRIPOS>MOLECULE
5wzs_ligand
   50    53     1     0     0
SMALL
GAST_HUCK


@<TRIPOS>ATOM
      1 OAM       -19.6090  -15.9710   11.2380 O.co2     1 7W9        -0.5662
      2 CAL       -18.7460  -16.1040   12.1360 C.2       1 7W9         0.0652
      3 OAN       -18.9960  -16.2800   13.3460 O.co2     1 7W9        -0.5662
      4 CAK       -17.2550  -15.9950   11.7370 C.3       1 7W9         0.1215
      5 OAJ       -16.4430  -16.8590   12.5730 O.3       1 7W9        -0.3094
      6 CAA       -16.0910  -18.1420   12.2180 C.ar      1 7W9         0.0819
      7 CAB       -16.7980  -18.8450   11.2260 C.ar      1 7W9        -0.0526
      8 CAC       -16.4080  -20.1300   10.9080 C.ar      1 7W9        -0.0887
      9 CAD       -15.3340  -20.6770   11.5990 C.ar      1 7W9        -0.0572
     10 CAE       -14.6760  -19.9850   12.5470 C.ar      1 7W9         0.0621
     11 CAF       -15.0340  -18.7150   12.8740 C.ar      1 7W9         0.0154
     12 CAI       -14.1810  -18.3240   13.8590 C.2       1 7W9         0.0440
     13 CAO       -14.1620  -17.1280   14.5100 C.2       1 7W9         0.2016
     14 OAQ       -13.1740  -16.3950   14.5730 O.2       1 7W9        -0.3681
     15 CAP       -15.4360  -16.6650   15.2310 C.2       1 7W9         0.2554
     16 OAS       -16.4650  -17.3330   15.2440 O.2       1 7W9        -0.3624
     17 NAR       -15.3620  -15.4680   15.7710 N.am      1 7W9        -0.2914
     18 CAH       -13.3380  -19.3330   14.0900 C.2       1 7W9         0.0690
     19 CBE       -12.1970  -19.3170   15.1250 C.3       1 7W9         0.0010
     20 NAG       -13.6240  -20.3680   13.2830 N.pl3     1 7W9        -0.2413
     21 CAT       -12.9640  -21.7430   13.1590 C.3       1 7W9         0.0901
     22 CAU       -12.1380  -21.8110   11.9610 C.ar      1 7W9        -0.0033
     23 CAZ       -12.0960  -22.8800   10.9950 C.ar      1 7W9        -0.0096
     24 CBD       -12.8960  -24.0400   11.0540 C.ar      1 7W9        -0.0547
     25 CBC       -12.8260  -25.0460   10.0750 C.ar      1 7W9        -0.0625
     26 CBB       -11.9500  -24.9360    8.9940 C.ar      1 7W9        -0.0629
     27 CBA       -11.1430  -23.8080    8.8970 C.ar      1 7W9        -0.0569
     28 CAY       -11.2170  -22.8030    9.8760 C.ar      1 7W9        -0.0242
     29 CAX       -10.3890  -21.7110    9.7060 C.ar      1 7W9        -0.0631
     30 CAW       -10.4160  -20.6850   10.6340 C.ar      1 7W9        -0.0706
     31 CAV       -11.2640  -20.7340   11.7370 C.ar      1 7W9        -0.0582
     32 H1        -16.9219  -14.9540   11.8606 H         1 7W9         0.0784
     33 H2        -17.1385  -16.2949   10.6851 H         1 7W9         0.0784
     34 H3        -17.6375  -18.3839   10.7183 H         1 7W9         0.0417
     35 H4        -16.9246  -20.6961   10.1414 H         1 7W9         0.0483
     36 H5        -15.0178  -21.6879   11.3684 H         1 7W9         0.0434
     37 H6        -16.1485  -15.0905   16.2597 H         1 7W9         0.1827
     38 H7        -14.5192  -14.9354   15.6928 H         1 7W9         0.1827
     39 H8        -12.1888  -18.3486   15.6467 H         1 7W9         0.0462
     40 H9        -11.2350  -19.4656   14.6126 H         1 7W9         0.0462
     41 H10       -12.3525  -20.1253   15.8547 H         1 7W9         0.0462
     42 H11       -13.7455  -22.5151   13.1031 H         1 7W9         0.0780
     43 H12       -12.3340  -21.9223   14.0427 H         1 7W9         0.0780
     44 H13       -13.5869  -24.1595   11.8807 H         1 7W9         0.0628
     45 H14       -13.4615  -25.9200   10.1607 H         1 7W9         0.0601
     46 H15       -11.8997  -25.7163    8.2432 H         1 7W9         0.0616
     47 H16       -10.4559  -23.7038    8.0651 H         1 7W9         0.0609
     48 H17        -9.7231  -21.6580    8.8523 H         1 7W9         0.0542
     49 H18        -9.7656  -19.8282   10.4998 H         1 7W9         0.0595
     50 H19       -11.2495  -19.9144   12.4463 H         1 7W9         0.0530
@<TRIPOS>BOND
     1    1    2 ar 
     2    2    3 ar 
     3    2    4 1  
     4    4    5 1  
     5    5    6 1  
     6    6    7 ar 
     7    6   11 ar 
     8    7    8 ar 
     9    8    9 ar 
    10    9   10 ar 
    11   10   11 ar 
    12   10   20 1  
    13   11   12 1  
    14   12   13 1  
    15   12   18 2  
    16   13   14 2  
    17   13   15 1  
    18   15   16 2  
    19   15   17 am 
    20   18   19 1  
    21   18   20 1  
    22   20   21 1  
    23   21   22 1  
    24   22   23 ar 
    25   22   31 ar 
    26   23   24 ar 
    27   23   28 ar 
    28   24   25 ar 
    29   25   26 ar 
    30   26   27 ar 
    31   27   28 ar 
    32   28   29 ar 
    33   29   30 ar 
    34   30   31 ar 
    35    4   32 1  
    36    4   33 1  
    37    7   34 1  
    38    8   35 1  
    39    9   36 1  
    40   17   37 1  
    41   17   38 1  
    42   19   39 1  
    43   19   40 1  
    44   19   41 1  
    45   21   42 1  
    46   21   43 1  
    47   24   44 1  
    48   25   45 1  
    49   26   46 1  
    50   27   47 1  
    51   29   48 1  
    52   30   49 1  
    53   31   50 1  
@<TRIPOS>SUBSTRUCTURE
     1 7W9         1

