### 
### Created by X-TOOL on Wed Jan  1 15:39:38 2020
### 

@<TRIPOS>MOLECULE
5wzt_ligand
   44    46     1     0     0
SMALL
GAST_HUCK


@<TRIPOS>ATOM
      1 OAM       -19.2780  -14.0230  -12.3820 O.co2     1 7W6        -0.5662
      2 CAL       -18.5560  -14.7090  -11.6220 C.2       1 7W6         0.0652
      3 OAN       -18.9430  -15.7240  -10.9900 O.co2     1 7W6        -0.5662
      4 CAK       -17.0610  -14.3180  -11.4750 C.3       1 7W6         0.1215
      5 OAJ       -16.6030  -13.4810  -12.5790 O.3       1 7W6        -0.3094
      6 CAA       -16.1410  -12.1990  -12.3400 C.ar      1 7W6         0.0819
      7 CAB       -16.8220  -11.3740  -11.4300 C.ar      1 7W6        -0.0526
      8 CAC       -16.3570  -10.0960  -11.2090 C.ar      1 7W6        -0.0887
      9 CAD       -15.2360   -9.6820  -11.9170 C.ar      1 7W6        -0.0572
     10 CAE       -14.6080  -10.4890  -12.7840 C.ar      1 7W6         0.0620
     11 CAF       -15.0370  -11.7500  -13.0130 C.ar      1 7W6         0.0153
     12 CAI       -14.1880  -12.2620  -13.9480 C.2       1 7W6         0.0440
     13 CAO       -14.2220  -13.4920  -14.5110 C.2       1 7W6         0.2016
     14 OAQ       -13.2790  -14.2850  -14.5070 O.2       1 7W6        -0.3681
     15 CAP       -15.5030  -13.8820  -15.2350 C.2       1 7W6         0.2554
     16 OAS       -16.4540  -13.1170  -15.3170 O.2       1 7W6        -0.3624
     17 NAR       -15.5410  -15.1120  -15.6840 N.am      1 7W6        -0.2914
     18 CAH       -13.2850  -11.3410  -14.2460 C.2       1 7W6         0.0688
     19 CAT       -12.1390  -11.5400  -15.2460 C.3       1 7W6         0.0010
     20 NAG       -13.5310  -10.2350  -13.5370 N.pl3     1 7W6        -0.2421
     21 CAU       -12.7590   -8.9070  -13.5080 C.3       1 7W6         0.0884
     22 CAV       -12.0140   -8.7760  -12.3000 C.ar      1 7W6        -0.0112
     23 CBA       -11.8350   -7.5160  -11.6940 C.ar      1 7W6        -0.0481
     24 CAZ       -11.1020   -7.3880  -10.5010 C.ar      1 7W6         0.0064
     25 BRB       -10.8420   -5.6980   -9.6500 Br        1 7W6        -0.0517
     26 CAY       -10.5460   -8.5100   -9.8980 C.ar      1 7W6        -0.0591
     27 CAX       -10.7190   -9.7570  -10.4790 C.ar      1 7W6        -0.0657
     28 CAW       -11.4390   -9.8970  -11.6680 C.ar      1 7W6        -0.0550
     29 H1        -16.4549  -15.2356  -11.4501 H         1 7W6         0.0784
     30 H2        -16.9294  -13.7659  -10.5327 H         1 7W6         0.0784
     31 H3        -17.7005  -11.7374  -10.9092 H         1 7W6         0.0417
     32 H4        -16.8500   -9.4350  -10.5054 H         1 7W6         0.0483
     33 H5        -14.8581   -8.6776  -11.7641 H         1 7W6         0.0434
     34 H6        -16.3500  -15.4419  -16.1706 H         1 7W6         0.1827
     35 H7        -14.7610  -15.7211  -15.5402 H         1 7W6         0.1827
     36 H8        -12.1957  -12.5526  -15.6719 H         1 7W6         0.0462
     37 H9        -11.1759  -11.4127  -14.7301 H         1 7W6         0.0462
     38 H10       -12.2236  -10.7975  -16.0532 H         1 7W6         0.0462
     39 H11       -13.4734   -8.0738  -13.5822 H         1 7W6         0.0768
     40 H12       -12.0673   -8.8742  -14.3626 H         1 7W6         0.0768
     41 H13       -12.2678   -6.6347  -12.1534 H         1 7W6         0.0584
     42 H14        -9.9803   -8.4108   -8.9787 H         1 7W6         0.0585
     43 H15       -10.2908  -10.6330  -10.0054 H         1 7W6         0.0606
     44 H16       -11.5569  -10.8798  -12.1099 H         1 7W6         0.0581
@<TRIPOS>BOND
     1    1    2 ar 
     2    2    3 ar 
     3    2    4 1  
     4    4    5 1  
     5    5    6 1  
     6    6    7 ar 
     7    6   11 ar 
     8    7    8 ar 
     9    8    9 ar 
    10    9   10 ar 
    11   10   11 ar 
    12   10   20 1  
    13   11   12 1  
    14   12   13 1  
    15   12   18 2  
    16   13   14 2  
    17   13   15 1  
    18   15   16 2  
    19   15   17 am 
    20   18   19 1  
    21   18   20 1  
    22   20   21 1  
    23   21   22 1  
    24   22   23 ar 
    25   22   28 ar 
    26   23   24 ar 
    27   24   25 1  
    28   24   26 ar 
    29   26   27 ar 
    30   27   28 ar 
    31    4   29 1  
    32    4   30 1  
    33    7   31 1  
    34    8   32 1  
    35    9   33 1  
    36   17   34 1  
    37   17   35 1  
    38   19   36 1  
    39   19   37 1  
    40   19   38 1  
    41   21   39 1  
    42   21   40 1  
    43   23   41 1  
    44   26   42 1  
    45   27   43 1  
    46   28   44 1  
@<TRIPOS>SUBSTRUCTURE
     1 7W6         1

