### 
### Created by X-TOOL on Wed Jan  1 15:39:37 2020
### 

@<TRIPOS>MOLECULE
5wzu_ligand
   47    49     1     0     0
SMALL
GAST_HUCK


@<TRIPOS>ATOM
      1 OAO        18.8330   14.1100   11.6160 O.co2     1 7W3        -0.5662
      2 CAN        18.4730   15.2710   11.9690 C.2       1 7W3         0.0652
      3 OAP        19.1780   16.0710   12.6460 O.co2     1 7W3        -0.5662
      4 CAM        17.0550   15.7160   11.5360 C.3       1 7W3         0.1215
      5 OAL        16.5780   16.6730   12.5380 O.3       1 7W3        -0.3094
      6 CAF        16.1320   17.9480   12.2440 C.ar      1 7W3         0.0819
      7 CAA        16.8330   18.6950   11.2790 C.ar      1 7W3        -0.0526
      8 CAB        16.4100   19.9750   10.9760 C.ar      1 7W3        -0.0887
      9 CAC        15.3160   20.4760   11.6760 C.ar      1 7W3        -0.0571
     10 CAD        14.6550   19.7510   12.6080 C.ar      1 7W3         0.0629
     11 CAE        15.0390   18.4750   12.9180 C.ar      1 7W3         0.0154
     12 CAI        14.1700   18.0730   13.9050 C.2       1 7W3         0.0441
     13 CAK        14.1330   16.8890   14.5720 C.2       1 7W3         0.2016
     14 OAS        13.1220   16.1920   14.6800 O.2       1 7W3        -0.3681
     15 CAQ        15.4240   16.4100   15.2560 C.2       1 7W3         0.2554
     16 OAT        16.4480   17.0800   15.2430 O.2       1 7W3        -0.3624
     17 NAR        15.3770   15.2130   15.8010 N.am      1 7W3        -0.2914
     18 CAH        13.3080   19.0590   14.1300 C.2       1 7W3         0.0697
     19 CAJ        12.1680   18.9840   15.1560 C.3       1 7W3         0.0011
     20 NAG        13.5860   20.1050   13.3390 N.pl3     1 7W3        -0.2366
     21 CAU        12.8900   21.4880   13.2090 C.3       1 7W3         0.1030
     22 CAV        12.0980   21.6020   12.0030 C.ar      1 7W3         0.0203
     23 CBA        11.3410   20.4670   11.6560 C.ar      1 7W3        -0.0266
     24 CAZ        10.5410   20.4270   10.5210 C.ar      1 7W3        -0.0405
     25 CAY        10.4530   21.5260    9.6870 C.ar      1 7W3        -0.0392
     26 CAX        11.1740   22.6650    9.9860 C.ar      1 7W3        -0.0379
     27 CAW        12.0070   22.7460   11.1260 C.ar      1 7W3         0.0516
     28 CBB        12.7000   23.9840   11.3110 C.3       1 7W3         0.3706
     29 FBD        12.5970   24.8880   10.1890 F         1 7W3        -0.2263
     30 FBE        14.0160   23.7810   11.4650 F         1 7W3        -0.2263
     31 FBC        12.1400   24.6230   12.4380 F         1 7W3        -0.2263
     32 H1         16.3828   14.8463   11.4952 H         1 7W3         0.0784
     33 H2         17.0957   16.1948   10.5465 H         1 7W3         0.0784
     34 H3         17.6959   18.2706   10.7786 H         1 7W3         0.0417
     35 H4         16.9121   20.5679   10.2201 H         1 7W3         0.0483
     36 H5         14.9808   21.4854   11.4665 H         1 7W3         0.0434
     37 H6         16.1829   14.8415   16.2620 H         1 7W3         0.1827
     38 H7         14.5354   14.6750   15.7541 H         1 7W3         0.1827
     39 H8         12.1876   18.0038   15.6548 H         1 7W3         0.0462
     40 H9         11.2038   19.1151   14.6431 H         1 7W3         0.0462
     41 H10        12.2960   19.7792   15.9051 H         1 7W3         0.0462
     42 H11        13.6622   22.2713   13.1985 H         1 7W3         0.0848
     43 H12        12.2314   21.6339   14.0779 H         1 7W3         0.0848
     44 H13        11.3838   19.5937   12.2968 H         1 7W3         0.0637
     45 H14         9.9820   19.5280   10.2877 H         1 7W3         0.0834
     46 H15         9.8230   21.4938    8.8054 H         1 7W3         0.0648
     47 H16        11.0993   23.5227    9.3273 H         1 7W3         0.0820
@<TRIPOS>BOND
     1    1    2 ar 
     2    2    3 ar 
     3    2    4 1  
     4    4    5 1  
     5    5    6 1  
     6    6    7 ar 
     7    6   11 ar 
     8    7    8 ar 
     9    8    9 ar 
    10    9   10 ar 
    11   10   11 ar 
    12   10   20 1  
    13   11   12 1  
    14   12   13 1  
    15   12   18 2  
    16   13   14 2  
    17   13   15 1  
    18   15   16 2  
    19   15   17 am 
    20   18   19 1  
    21   18   20 1  
    22   20   21 1  
    23   21   22 1  
    24   22   23 ar 
    25   22   27 ar 
    26   23   24 ar 
    27   24   25 ar 
    28   25   26 ar 
    29   26   27 ar 
    30   27   28 1  
    31   28   29 1  
    32   28   30 1  
    33   28   31 1  
    34    4   32 1  
    35    4   33 1  
    36    7   34 1  
    37    8   35 1  
    38    9   36 1  
    39   17   37 1  
    40   17   38 1  
    41   19   39 1  
    42   19   40 1  
    43   19   41 1  
    44   21   42 1  
    45   21   43 1  
    46   23   44 1  
    47   24   45 1  
    48   25   46 1  
    49   26   47 1  
@<TRIPOS>SUBSTRUCTURE
     1 7W3         1

