### 
### Created by X-TOOL on Wed Jan  1 15:39:37 2020
### 

@<TRIPOS>MOLECULE
5wzv_ligand
   54    57     1     0     0
SMALL
GAST_HUCK


@<TRIPOS>ATOM
      1 OAO        19.2430   16.2260   12.3260 O.co2     1 7W0        -0.5662
      2 CAN        18.4960   15.3410   11.8180 C.2       1 7W0         0.0652
      3 OAP        18.8450   14.1690   11.4650 O.co2     1 7W0        -0.5662
      4 CAM        17.0000   15.7090   11.6090 C.3       1 7W0         0.1215
      5 OAK        16.5770   16.7310   12.5390 O.3       1 7W0        -0.3094
      6 CAA        16.2680   18.0090   12.1290 C.ar      1 7W0         0.0819
      7 CAB        17.0370   18.6300   11.1240 C.ar      1 7W0        -0.0526
      8 CAC        16.7160   19.9150   10.7280 C.ar      1 7W0        -0.0887
      9 CAD        15.6510   20.5380   11.3730 C.ar      1 7W0        -0.0572
     10 CAE        14.9330   19.9250   12.3410 C.ar      1 7W0         0.0621
     11 CAF        15.2230   18.6570   12.7360 C.ar      1 7W0         0.0154
     12 CAI        14.3260   18.3620   13.7250 C.2       1 7W0         0.0440
     13 CAL        14.2170   17.2080   14.4340 C.2       1 7W0         0.2016
     14 OAS        13.1640   16.5690   14.5250 O.2       1 7W0        -0.3681
     15 CAQ        15.4650   16.6880   15.1770 C.2       1 7W0         0.2554
     16 OAT        16.5400   17.2860   15.1660 O.2       1 7W0        -0.3624
     17 NAR        15.3090   15.5190   15.7590 N.am      1 7W0        -0.2914
     18 CAH        13.5240   19.4090   13.8870 C.2       1 7W0         0.0689
     19 CAJ        12.3620   19.4880   14.8970 C.3       1 7W0         0.0010
     20 NAG        13.8760   20.3890   13.0350 N.pl3     1 7W0        -0.2417
     21 CAU        13.2720   21.7800   12.8670 C.3       1 7W0         0.0892
     22 CAV        12.4190   21.8690   11.7030 C.ar      1 7W0        -0.0047
     23 CAW        11.6050   20.7670   11.3680 C.ar      1 7W0        -0.0564
     24 CAX        10.7570   20.7800   10.2620 C.ar      1 7W0        -0.0681
     25 CAY        10.6760   21.9010    9.4600 C.ar      1 7W0        -0.0678
     26 CAZ        11.4490   23.0100    9.7560 C.ar      1 7W0        -0.0600
     27 CBA        12.3110   23.0270   10.8620 C.ar      1 7W0        -0.0127
     28 CBB        13.0120   24.2390   10.9730 C.ar      1 7W0        -0.0214
     29 CBC        14.3160   24.3470   10.4690 C.ar      1 7W0        -0.0558
     30 CBD        15.0100   25.5590   10.5450 C.ar      1 7W0        -0.0624
     31 CBE        14.3990   26.6830   11.1060 C.ar      1 7W0        -0.0628
     32 CBF        13.0910   26.5860   11.5960 C.ar      1 7W0        -0.0624
     33 CBG        12.3940   25.3710   11.5180 C.ar      1 7W0        -0.0558
     34 H1         16.3850   14.8097   11.7605 H         1 7W0         0.0784
     35 H2         16.8618   16.0791   10.5824 H         1 7W0         0.0784
     36 H3         17.8694   18.1067   10.6675 H         1 7W0         0.0417
     37 H4         17.2721   20.4182    9.9453 H         1 7W0         0.0483
     38 H5         15.3880   21.5506   11.0890 H         1 7W0         0.0434
     39 H6         16.0675   15.1064   16.2634 H         1 7W0         0.1827
     40 H7         14.4319   15.0427   15.6971 H         1 7W0         0.1827
     41 H8         12.3031   18.5463   15.4625 H         1 7W0         0.0462
     42 H9         11.4175   19.6512   14.3573 H         1 7W0         0.0462
     43 H10        12.5362   20.3227   15.5919 H         1 7W0         0.0462
     44 H11        14.0881   22.5104   12.7645 H         1 7W0         0.0774
     45 H12        12.6770   22.0180   13.7610 H         1 7W0         0.0774
     46 H13        11.6401   19.8808   11.9912 H         1 7W0         0.0558
     47 H14        10.1585   19.9063   10.0305 H         1 7W0         0.0602
     48 H15        10.0111   21.9123    8.6039 H         1 7W0         0.0561
     49 H16        11.3868   23.8848    9.1189 H         1 7W0         0.0605
     50 H17        14.7904   23.4837   10.0165 H         1 7W0         0.0613
     51 H18        16.0240   25.6262   10.1678 H         1 7W0         0.0615
     52 H19        14.9340   27.6241   11.1616 H         1 7W0         0.0609
     53 H20        12.6147   27.4538   12.0377 H         1 7W0         0.0615
     54 H21        11.3744   25.3084   11.8806 H         1 7W0         0.0613
@<TRIPOS>BOND
     1    1    2 ar 
     2    2    3 ar 
     3    2    4 1  
     4    4    5 1  
     5    5    6 1  
     6    6    7 ar 
     7    6   11 ar 
     8    7    8 ar 
     9    8    9 ar 
    10    9   10 ar 
    11   10   11 ar 
    12   10   20 1  
    13   11   12 1  
    14   12   13 1  
    15   12   18 2  
    16   13   14 2  
    17   13   15 1  
    18   15   16 2  
    19   15   17 am 
    20   18   19 1  
    21   18   20 1  
    22   20   21 1  
    23   21   22 1  
    24   22   23 ar 
    25   22   27 ar 
    26   23   24 ar 
    27   24   25 ar 
    28   25   26 ar 
    29   26   27 ar 
    30   27   28 1  
    31   28   29 ar 
    32   28   33 ar 
    33   29   30 ar 
    34   30   31 ar 
    35   31   32 ar 
    36   32   33 ar 
    37    4   34 1  
    38    4   35 1  
    39    7   36 1  
    40    8   37 1  
    41    9   38 1  
    42   17   39 1  
    43   17   40 1  
    44   19   41 1  
    45   19   42 1  
    46   19   43 1  
    47   21   44 1  
    48   21   45 1  
    49   23   46 1  
    50   24   47 1  
    51   25   48 1  
    52   26   49 1  
    53   29   50 1  
    54   30   51 1  
    55   31   52 1  
    56   32   53 1  
    57   33   54 1  
@<TRIPOS>SUBSTRUCTURE
     1 7W0         1

