### 
### Created by X-TOOL on Mon Aug  2 16:10:02 2021
### 

@<TRIPOS>MOLECULE
5x02_ligand
   80    81     1     0     0
SMALL
GAST_HUCK


@<TRIPOS>ATOM
      1 N3        -28.8260   -1.4920   -9.6850 N.1       1 F6M        -0.3382
      2 C11       -28.7290   -0.5600   -9.0030 C.1       1 F6M         0.0878
      3 C8        -28.6730    0.4580   -8.2210 C.ar      1 F6M         0.0831
      4 C9        -28.7930    1.7540   -8.7520 C.ar      1 F6M        -0.0363
      5 C10       -28.6710    2.8410   -7.9070 C.ar      1 F6M        -0.0260
      6 C7        -28.4030    0.2970   -6.8890 C.ar      1 F6M        -0.0363
      7 C6        -28.2810    1.3970   -6.0430 C.ar      1 F6M        -0.0260
      8 C5        -28.4170    2.6880   -6.5480 C.ar      1 F6M         0.0759
      9 N2        -28.2870    3.7340   -5.6810 N.pl3     1 F6M        -0.2385
     10 C4        -28.4510    5.0620   -5.9230 C.ar      1 F6M         0.1980
     11 N1        -28.7680    5.5470   -7.1520 N.ar      1 F6M        -0.2350
     12 C3        -28.9250    6.8700   -7.3640 C.ar      1 F6M         0.1330
     13 N8        -29.2440    7.3390   -8.5930 N.pl3     1 F6M        -0.3010
     14 C2        -29.4440    6.4020   -9.6760 C.3       1 F6M         0.0295
     15 C1        -28.5900    6.7620  -10.8820 C.3       1 F6M        -0.0352
     16 C31       -27.1640    7.0420  -10.4620 C.3       1 F6M        -0.0634
     17 N4        -28.2870    5.9070   -4.8790 N.ar      1 F6M        -0.2664
     18 C12       -28.4240    7.2260   -5.0030 C.ar      1 F6M         0.0176
     19 C13       -28.7330    7.7910   -6.2050 C.ar      1 F6M         0.0819
     20 C14       -28.8990    9.0510   -6.3870 C.1       1 F6M        -0.0702
     21 C15       -28.9720   10.2160   -6.5480 C.1       1 F6M        -0.1058
     22 C16       -29.2350   11.6460   -6.7640 C.3       1 F6M         0.0080
     23 C17       -29.5470   12.2800   -5.4240 C.3       1 F6M        -0.0226
     24 C18       -28.3840   13.1390   -4.9440 C.3       1 F6M         0.0317
     25 N5        -28.4920   13.4250   -3.5210 N.am      1 F6M        -0.2850
     26 C19       -29.2420   14.4330   -3.0560 C.2       1 F6M         0.2016
     27 O1        -30.1300   14.9510   -3.7430 O.2       1 F6M        -0.3945
     28 C20       -28.9600   14.9360   -1.6620 C.3       1 F6M         0.1304
     29 C28       -29.3270   16.4170   -1.6140 C.3       1 F6M        -0.0242
     30 N6        -27.5930   14.7690   -1.2430 N.am      1 F6M        -0.2551
     31 C27       -26.5710   15.4970   -1.9360 C.3       1 F6M         0.0253
     32 C21       -27.3480   13.9800   -0.2020 C.2       1 F6M         0.1807
     33 O2        -28.2420   13.4090    0.4270 O.2       1 F6M        -0.3967
     34 C22       -25.8880   13.8190    0.2090 C.3       1 F6M         0.0424
     35 C23       -25.6830   12.6300    1.1760 C.3       1 F6M         0.0044
     36 C24       -24.6270   12.9860    2.2390 C.3       1 F6M        -0.0303
     37 N7        -25.3750   13.3360    3.4420 N.4       1 F6M         0.2310
     38 C25       -26.1330   12.3010    4.1250 C.3       1 F6M        -0.0433
     39 C26       -25.3050   14.6770    3.9930 C.3       1 F6M        -0.0433
     40 H1        -28.9787    1.8990   -9.8101 H         1 F6M         0.0689
     41 H2        -28.7761    3.8400   -8.3145 H         1 F6M         0.0565
     42 H3        -28.2822   -0.7020   -6.4860 H         1 F6M         0.0689
     43 H4        -28.0796    1.2478   -4.9884 H         1 F6M         0.0565
     44 H5        -28.0306    3.4843   -4.7152 H         1 F6M         0.2216
     45 H6        -29.3431    8.3514   -8.7549 H         1 F6M         0.1856
     46 H7        -30.5038    6.4153   -9.9705 H         1 F6M         0.0525
     47 H8        -29.1716    5.3933   -9.3322 H         1 F6M         0.0525
     48 H9        -29.0067    7.6580  -11.3652 H         1 F6M         0.0282
     49 H10       -28.5988    5.9236  -11.5941 H         1 F6M         0.0282
     50 H11       -26.5648    7.2998  -11.3477 H         1 F6M         0.0230
     51 H12       -26.7411    6.1477   -9.9809 H         1 F6M         0.0230
     52 H13       -27.1491    7.8821   -9.7521 H         1 F6M         0.0230
     53 H14       -28.2877    7.8604   -4.1347 H         1 F6M         0.0862
     54 H15       -30.0926   11.7682   -7.4419 H         1 F6M         0.0389
     55 H16       -28.3481   12.1249   -7.2045 H         1 F6M         0.0389
     56 H17       -29.7372   11.4868   -4.6860 H         1 F6M         0.0293
     57 H18       -30.4429   12.9104   -5.5239 H         1 F6M         0.0293
     58 H19       -28.3845   14.0873   -5.5014 H         1 F6M         0.0520
     59 H20       -27.4415   12.6039   -5.1317 H         1 F6M         0.0520
     60 H21       -27.9918   12.8524   -2.8715 H         1 F6M         0.1851
     61 H22       -29.6001   14.3818   -0.9598 H         1 F6M         0.0799
     62 H23       -30.3715   16.5465   -1.9339 H         1 F6M         0.0277
     63 H24       -28.6647   16.9809   -2.2873 H         1 F6M         0.0277
     64 H25       -29.2094   16.7908   -0.5862 H         1 F6M         0.0277
     65 H26       -25.5905   15.2601   -1.4973 H         1 F6M         0.0488
     66 H27       -26.7628   16.5762   -1.8437 H         1 F6M         0.0488
     67 H28       -26.5753   15.2134   -2.9988 H         1 F6M         0.0488
     68 H29       -25.5559   14.7420    0.7067 H         1 F6M         0.0504
     69 H30       -25.2821   13.6505   -0.6935 H         1 F6M         0.0504
     70 H31       -25.3437   11.7524    0.6062 H         1 F6M         0.0341
     71 H32       -26.6360   12.3979    1.6739 H         1 F6M         0.0341
     72 H33       -24.0193   13.8395    1.9042 H         1 F6M         0.0816
     73 H34       -23.9725   12.1233    2.4325 H         1 F6M         0.0816
     74 H35       -26.1798   13.5896    2.8906 H         1 F6M         0.2028
     75 H36       -26.6326   12.7326    5.0048 H         1 F6M         0.0777
     76 H37       -25.4518   11.4995    4.4467 H         1 F6M         0.0777
     77 H38       -26.8884   11.8876    3.4405 H         1 F6M         0.0777
     78 H39       -24.6900   15.3111    3.3375 H         1 F6M         0.0777
     79 H40       -24.8530   14.6386    4.9951 H         1 F6M         0.0777
     80 H41       -26.3189   15.0977    4.0639 H         1 F6M         0.0777
@<TRIPOS>BOND
     1    1    2 3  
     2    2    3 1  
     3    3    4 ar 
     4    3    6 ar 
     5    4    5 ar 
     6    5    8 ar 
     7    6    7 ar 
     8    7    8 ar 
     9    8    9 1  
    10    9   10 1  
    11   10   11 ar 
    12   10   17 ar 
    13   11   12 ar 
    14   12   13 1  
    15   12   19 ar 
    16   13   14 1  
    17   14   15 1  
    18   15   16 1  
    19   17   18 ar 
    20   18   19 ar 
    21   19   20 1  
    22   20   21 3  
    23   21   22 1  
    24   22   23 1  
    25   23   24 1  
    26   24   25 1  
    27   25   26 am 
    28   26   27 2  
    29   26   28 1  
    30   28   29 1  
    31   28   30 1  
    32   30   31 1  
    33   30   32 am 
    34   32   33 2  
    35   32   34 1  
    36   34   35 1  
    37   35   36 1  
    38   36   37 1  
    39   37   38 1  
    40   37   39 1  
    41    4   40 1  
    42    5   41 1  
    43    6   42 1  
    44    7   43 1  
    45    9   44 1  
    46   13   45 1  
    47   14   46 1  
    48   14   47 1  
    49   15   48 1  
    50   15   49 1  
    51   16   50 1  
    52   16   51 1  
    53   16   52 1  
    54   18   53 1  
    55   22   54 1  
    56   22   55 1  
    57   23   56 1  
    58   23   57 1  
    59   24   58 1  
    60   24   59 1  
    61   25   60 1  
    62   28   61 1  
    63   29   62 1  
    64   29   63 1  
    65   29   64 1  
    66   31   65 1  
    67   31   66 1  
    68   31   67 1  
    69   34   68 1  
    70   34   69 1  
    71   35   70 1  
    72   35   71 1  
    73   36   72 1  
    74   36   73 1  
    75   37   74 1  
    76   38   75 1  
    77   38   76 1  
    78   38   77 1  
    79   39   78 1  
    80   39   79 1  
    81   39   80 1  
@<TRIPOS>SUBSTRUCTURE
     1 F6M         1

