### 
### Created by X-TOOL on Mon Sep 10 21:13:31 2018
### 

@<TRIPOS>MOLECULE
5x13_ligand
   19    19     1     0     0
SMALL
GAST_HUCK


@<TRIPOS>ATOM
      1 C1         -5.2890  -11.7400    9.9680 C.2       1 HC4         0.0476
      2 O1         -5.9870  -11.7170   11.0460 O.co2     1 HC4        -0.5654
      3 O2         -4.0700  -11.9660    9.9600 O.co2     1 HC4        -0.5654
      4 C2         -5.8960  -11.4440    8.6910 C.2       1 HC4        -0.0342
      5 C3         -7.1850  -11.2090    8.5380 C.2       1 HC4        -0.0536
      6 C1'        -7.7920  -10.8710    7.2450 C.ar      1 HC4        -0.0283
      7 C2'        -9.1390  -10.6090    7.2720 C.ar      1 HC4        -0.0587
      8 C3'        -9.8270  -10.2250    6.1410 C.ar      1 HC4        -0.0286
      9 C4'        -9.1340  -10.0980    4.9190 C.ar      1 HC4         0.0925
     10 C5'        -7.7830  -10.3870    4.8800 C.ar      1 HC4        -0.0286
     11 C6'        -7.0860  -10.7380    6.0270 C.ar      1 HC4        -0.0587
     12 O4'        -9.8510   -9.7500    3.8260 O.3       1 HC4        -0.3299
     13 H1         -5.2569  -11.4133    7.8098 H         1 HC4         0.0576
     14 H2         -7.8300  -11.2687    9.4134 H         1 HC4         0.0681
     15 H3         -9.6764  -10.7067    8.2083 H         1 HC4         0.0620
     16 H4        -10.8908  -10.0225    6.1902 H         1 HC4         0.0557
     17 H5         -7.2570  -10.3384    3.9334 H         1 HC4         0.0557
     18 H6         -6.0160  -10.9078    5.9901 H         1 HC4         0.0620
     19 H7        -10.7542   -9.5961    4.0770 H         1 HC4         0.2502
@<TRIPOS>BOND
     1    1    2 ar 
     2    1    3 ar 
     3    1    4 1  
     4    4    5 2  
     5    5    6 1  
     6    6    7 ar 
     7    6   11 ar 
     8    7    8 ar 
     9    8    9 ar 
    10    9   10 ar 
    11    9   12 1  
    12   10   11 ar 
    13    4   13 1  
    14    5   14 1  
    15    7   15 1  
    16    8   16 1  
    17   10   17 1  
    18   11   18 1  
    19   12   19 1  
@<TRIPOS>SUBSTRUCTURE
     1 HC4         1

