### 
### Created by X-TOOL on Wed Jan  1 15:39:37 2020
### 

@<TRIPOS>MOLECULE
5x26_ligand
   64    68     1     0     0
SMALL
GAST_HUCK


@<TRIPOS>ATOM
      1 C4        -52.5150    0.0770  -21.7770 C.ar      1 7XO         0.1519
      2 C5        -53.4240    0.7370  -22.5670 C.ar      1 7XO         0.0534
      3 C6        -54.3730    1.5280  -21.9730 C.ar      1 7XO         0.0101
      4 C8        -52.1430   -0.3690  -23.8380 C.2       1 7XO         0.2409
      5 N1        -54.3860    1.6360  -20.6770 N.ar      1 7XO        -0.2705
      6 N2        -53.6020    1.1660  -18.6400 N.pl3     1 7XO        -0.2554
      7 N3        -52.5650    0.2100  -20.4540 N.ar      1 7XO        -0.2435
      8 CAP       -50.3330   -0.1340  -13.5180 C.3       1 7XO         0.0649
      9 CAN       -50.3100   -1.3310  -12.5920 C.3       1 7XO        -0.0123
     10 NBE       -49.0150   -1.9710  -12.7570 N.4       1 7XO         0.2358
     11 CAC       -48.8530   -2.9780  -11.7130 C.3       1 7XO        -0.0430
     12 CAO       -48.9630   -2.6070  -14.0720 C.3       1 7XO        -0.0123
     13 CAQ       -48.9810   -1.5340  -15.1530 C.3       1 7XO         0.0649
     14 NBF       -50.0820   -0.5980  -14.8840 N.pl3     1 7XO        -0.3046
     15 CAY       -50.9440   -0.1720  -15.8820 C.ar      1 7XO         0.0295
     16 CAL       -51.9410    0.7060  -15.5240 C.ar      1 7XO        -0.0531
     17 CAJ       -52.8300    1.1480  -16.4770 C.ar      1 7XO        -0.0494
     18 CAK       -50.8380   -0.6130  -17.1890 C.ar      1 7XO        -0.0531
     19 CAI       -51.7330   -0.1680  -18.1490 C.ar      1 7XO        -0.0494
     20 CAX       -52.7240    0.7150  -17.7800 C.ar      1 7XO         0.0511
     21 C2        -53.5040    0.9920  -19.9290 C.ar      1 7XO         0.1885
     22 N7        -53.1740    0.4420  -23.8330 N.2       1 7XO        -0.3006
     23 N9        -51.7510   -0.5910  -22.6090 N.pl3     1 7XO        -0.1931
     24 CBD       -50.6360   -1.4310  -22.2350 C.3       1 7XO         0.0668
     25 CAB       -49.9540   -0.7890  -21.0420 C.3       1 7XO        -0.0355
     26 CAA       -51.1540   -2.8220  -21.9130 C.3       1 7XO        -0.0355
     27 NAV       -51.5960   -0.8860  -24.9170 N.pl3     1 7XO        -0.2263
     28 CAW       -51.9170   -0.4240  -26.1110 C.ar      1 7XO         0.0682
     29 CAG       -52.2630    0.9010  -26.2810 C.ar      1 7XO        -0.0380
     30 CAE       -52.5920    1.3740  -27.5410 C.ar      1 7XO        -0.0715
     31 CAD       -52.5800    0.5230  -28.6280 C.ar      1 7XO        -0.0734
     32 CAF       -52.2410   -0.8020  -28.4510 C.ar      1 7XO        -0.0715
     33 CAH       -51.9070   -1.2740  -27.1960 C.ar      1 7XO        -0.0380
     34 H1        -55.1029    2.0565  -22.5755 H         1 7XO         0.0824
     35 H2        -54.4143    1.6865  -18.2792 H         1 7XO         0.2120
     36 H3        -49.5520    0.5809  -13.2197 H         1 7XO         0.0562
     37 H4        -51.3168    0.3554  -13.4674 H         1 7XO         0.0562
     38 H5        -51.1145   -2.0316  -12.8601 H         1 7XO         0.0834
     39 H6        -50.4401   -1.0048  -11.5496 H         1 7XO         0.0834
     40 H7        -48.2812   -1.2839  -12.6834 H         1 7XO         0.2032
     41 H8        -47.8759   -3.4702  -11.8268 H         1 7XO         0.0778
     42 H9        -49.6534   -3.7276  -11.7992 H         1 7XO         0.0778
     43 H10       -48.9076   -2.4952  -10.7262 H         1 7XO         0.0778
     44 H11       -49.8343   -3.2670  -14.1954 H         1 7XO         0.0834
     45 H12       -48.0397   -3.1987  -14.1574 H         1 7XO         0.0834
     46 H13       -49.1294   -2.0043  -16.1363 H         1 7XO         0.0562
     47 H14       -48.0252   -0.9896  -15.1474 H         1 7XO         0.0562
     48 H15       -52.0256    1.0472  -14.4986 H         1 7XO         0.0489
     49 H16       -53.6172    1.8401  -16.2008 H         1 7XO         0.0505
     50 H17       -50.0529   -1.3084  -17.4629 H         1 7XO         0.0489
     51 H18       -51.6545   -0.5096  -19.1748 H         1 7XO         0.0505
     52 H19       -49.9217   -1.4982  -23.0688 H         1 7XO         0.0635
     53 H20       -49.0982   -1.4069  -20.7326 H         1 7XO         0.0258
     54 H21       -50.6689   -0.7097  -20.2098 H         1 7XO         0.0258
     55 H22       -49.6002    0.2152  -21.3184 H         1 7XO         0.0258
     56 H23       -50.3121   -3.4696  -21.6269 H         1 7XO         0.0258
     57 H24       -51.6544   -3.2410  -22.7984 H         1 7XO         0.0258
     58 H25       -51.8705   -2.7629  -21.0805 H         1 7XO         0.0258
     59 H26       -50.9150   -1.6538  -24.8297 H         1 7XO         0.2214
     60 H27       -52.2774    1.5714  -25.4292 H         1 7XO         0.0536
     61 H28       -52.8598    2.4160  -27.6738 H         1 7XO         0.0587
     62 H29       -52.8353    0.8938  -29.6141 H         1 7XO         0.0519
     63 H30       -52.2365   -1.4760  -29.3000 H         1 7XO         0.0587
     64 H31       -51.6364   -2.3154  -27.0644 H         1 7XO         0.0536
@<TRIPOS>BOND
     1    1    2 ar 
     2    7    1 ar 
     3    1   23 1  
     4    3    2 ar 
     5    2   22 1  
     6    5    3 ar 
     7    4   22 2  
     8   23    4 1  
     9    4   27 1  
    10   21    5 ar 
    11   20    6 1  
    12    6   21 1  
    13   21    7 ar 
    14    8    9 1  
    15   14    8 1  
    16    9   10 1  
    17   10   11 1  
    18   12   10 1  
    19   13   12 1  
    20   14   13 1  
    21   15   14 1  
    22   16   15 ar 
    23   15   18 ar 
    24   17   16 ar 
    25   17   20 ar 
    26   18   19 ar 
    27   19   20 ar 
    28   23   24 1  
    29   24   25 1  
    30   24   26 1  
    31   27   28 1  
    32   28   29 ar 
    33   28   33 ar 
    34   29   30 ar 
    35   30   31 ar 
    36   31   32 ar 
    37   32   33 ar 
    38    3   34 1  
    39    6   35 1  
    40    8   36 1  
    41    8   37 1  
    42    9   38 1  
    43    9   39 1  
    44   10   40 1  
    45   11   41 1  
    46   11   42 1  
    47   11   43 1  
    48   12   44 1  
    49   12   45 1  
    50   13   46 1  
    51   13   47 1  
    52   16   48 1  
    53   17   49 1  
    54   18   50 1  
    55   19   51 1  
    56   24   52 1  
    57   25   53 1  
    58   25   54 1  
    59   25   55 1  
    60   26   56 1  
    61   26   57 1  
    62   26   58 1  
    63   27   59 1  
    64   29   60 1  
    65   30   61 1  
    66   31   62 1  
    67   32   63 1  
    68   33   64 1  
@<TRIPOS>SUBSTRUCTURE
     1 7XO         1

