### 
### Created by X-TOOL on Wed Jan  1 15:39:37 2020
### 

@<TRIPOS>MOLECULE
5x27_ligand
   68    73     1     0     0
SMALL
GAST_HUCK


@<TRIPOS>ATOM
      1 C4        -52.4950   -0.1930  -21.7200 C.ar      1 7XR         0.1519
      2 C5        -53.3260    0.4760  -22.5790 C.ar      1 7XR         0.0534
      3 C6        -54.2490    1.3520  -22.0770 C.ar      1 7XR         0.0101
      4 C8        -52.0670   -0.7660  -23.7350 C.2       1 7XR         0.2409
      5 N1        -54.3130    1.5240  -20.7900 N.ar      1 7XR        -0.2705
      6 N2        -53.6510    1.1150  -18.6960 N.pl3     1 7XR        -0.2554
      7 N3        -52.5990    0.0090  -20.4100 N.ar      1 7XR        -0.2435
      8 CAR       -49.0880   -1.2950  -14.9700 C.3       1 7XR         0.0649
      9 CAP       -49.0380   -2.4200  -13.9550 C.3       1 7XR        -0.0123
     10 NBG       -49.2230   -1.8590  -12.6210 N.4       1 7XR         0.2358
     11 CAA       -49.0350   -2.9170  -11.6320 C.3       1 7XR        -0.0430
     12 CAQ       -50.5810   -1.3510  -12.5030 C.3       1 7XR        -0.0123
     13 CAS       -50.7090   -0.1370  -13.3960 C.3       1 7XR         0.0649
     14 NBH       -50.3040   -0.5100  -14.7470 N.pl3     1 7XR        -0.3046
     15 CBA       -51.1190   -0.1230  -15.7900 C.ar      1 7XR         0.0295
     16 CAJ       -52.1670    0.7120  -15.4880 C.ar      1 7XR        -0.0531
     17 CAH       -53.0110    1.1220  -16.4920 C.ar      1 7XR        -0.0494
     18 CAI       -50.9090   -0.5540  -17.0870 C.ar      1 7XR        -0.0531
     19 CAG       -51.7620   -0.1390  -18.0960 C.ar      1 7XR        -0.0494
     20 CAZ       -52.8100    0.6970  -17.7850 C.ar      1 7XR         0.0511
     21 C2        -53.5080    0.8710  -19.9690 C.ar      1 7XR         0.1885
     22 N7        -53.0410    0.1080  -23.8120 N.2       1 7XR        -0.3006
     23 N9        -51.7400   -0.9560  -22.4790 N.pl3     1 7XR        -0.1926
     24 CBF       -50.6880   -1.8380  -22.0060 C.3       1 7XR         0.0724
     25 CAN       -51.2340   -2.8350  -21.0090 C.3       1 7XR        -0.0231
     26 CAL       -50.0750   -3.1070  -20.0560 C.3       1 7XR        -0.0503
     27 CAM       -49.0080   -2.0740  -20.3930 C.3       1 7XR        -0.0503
     28 CAO       -49.7660   -1.0070  -21.1460 C.3       1 7XR        -0.0231
     29 NAX       -51.5440   -1.3380  -24.7950 N.pl3     1 7XR        -0.2263
     30 CAY       -51.9270   -0.8730  -25.9710 C.ar      1 7XR         0.0682
     31 CAE       -52.1280    0.4820  -26.1240 C.ar      1 7XR        -0.0380
     32 CAC       -52.5310    0.9980  -27.3420 C.ar      1 7XR        -0.0715
     33 CAB       -52.7390    0.1500  -28.4090 C.ar      1 7XR        -0.0734
     34 CAD       -52.5450   -1.2080  -28.2520 C.ar      1 7XR        -0.0715
     35 CAF       -52.1370   -1.7230  -27.0350 C.ar      1 7XR        -0.0380
     36 H1        -54.9147    1.8927  -22.7400 H         1 7XR         0.0824
     37 H2        -54.4674    1.6647  -18.3923 H         1 7XR         0.2120
     38 H3        -49.1006   -1.7149  -15.9866 H         1 7XR         0.0562
     39 H4        -48.2049   -0.6501  -14.8506 H         1 7XR         0.0562
     40 H5        -48.0627   -2.9255  -14.0113 H         1 7XR         0.0834
     41 H6        -49.8390   -3.1439  -14.1658 H         1 7XR         0.0834
     42 H7        -48.5604   -1.1158  -12.4641 H         1 7XR         0.2032
     43 H8        -49.1726   -2.5034  -10.6220 H         1 7XR         0.0778
     44 H9        -48.0192   -3.3289  -11.7242 H         1 7XR         0.0778
     45 H10       -49.7716   -3.7155  -11.8047 H         1 7XR         0.0778
     46 H11       -50.7840   -1.0689  -11.4594 H         1 7XR         0.0834
     47 H12       -51.2968   -2.1238  -12.8199 H         1 7XR         0.0834
     48 H13       -50.0588    0.6680  -13.0229 H         1 7XR         0.0562
     49 H14       -51.7531    0.2090  -13.4041 H         1 7XR         0.0562
     50 H15       -52.3266    1.0440  -14.4685 H         1 7XR         0.0489
     51 H16       -53.8391    1.7834  -16.2641 H         1 7XR         0.0505
     52 H17       -50.0796   -1.2144  -17.3132 H         1 7XR         0.0489
     53 H18       -51.6063   -0.4682  -19.1170 H         1 7XR         0.0505
     54 H19       -50.1704   -2.3273  -22.8443 H         1 7XR         0.0640
     55 H20       -51.5438   -3.7605  -21.5164 H         1 7XR         0.0294
     56 H21       -52.0909   -2.4102  -20.4657 H         1 7XR         0.0294
     57 H22       -49.6847   -4.1241  -20.2083 H         1 7XR         0.0266
     58 H23       -50.4026   -2.9924  -19.0122 H         1 7XR         0.0266
     59 H24       -48.2211   -2.5143  -21.0230 H         1 7XR         0.0266
     60 H25       -48.5575   -1.6627  -19.4776 H         1 7XR         0.0266
     61 H26       -50.3321   -0.3583  -20.4614 H         1 7XR         0.0294
     62 H27       -49.0907   -0.3923  -21.7593 H         1 7XR         0.0294
     63 H28       -50.8684   -2.1112  -24.7137 H         1 7XR         0.2214
     64 H29       -51.9690    1.1479  -25.2835 H         1 7XR         0.0536
     65 H30       -52.6828    2.0651  -27.4574 H         1 7XR         0.0587
     66 H31       -53.0535    0.5477  -29.3671 H         1 7XR         0.0519
     67 H32       -52.7138   -1.8757  -29.0891 H         1 7XR         0.0587
     68 H33       -51.9832   -2.7897  -26.9188 H         1 7XR         0.0536
@<TRIPOS>BOND
     1    1    2 ar 
     2    7    1 ar 
     3    1   23 1  
     4    3    2 ar 
     5    2   22 1  
     6    5    3 ar 
     7    4   22 2  
     8   23    4 1  
     9    4   29 1  
    10   21    5 ar 
    11   20    6 1  
    12    6   21 1  
    13   21    7 ar 
    14    8    9 1  
    15   14    8 1  
    16    9   10 1  
    17   10   11 1  
    18   12   10 1  
    19   13   12 1  
    20   14   13 1  
    21   15   14 1  
    22   16   15 ar 
    23   15   18 ar 
    24   17   16 ar 
    25   17   20 ar 
    26   18   19 ar 
    27   19   20 ar 
    28   23   24 1  
    29   24   25 1  
    30   24   28 1  
    31   25   26 1  
    32   26   27 1  
    33   27   28 1  
    34   29   30 1  
    35   30   31 ar 
    36   30   35 ar 
    37   31   32 ar 
    38   32   33 ar 
    39   33   34 ar 
    40   34   35 ar 
    41    3   36 1  
    42    6   37 1  
    43    8   38 1  
    44    8   39 1  
    45    9   40 1  
    46    9   41 1  
    47   10   42 1  
    48   11   43 1  
    49   11   44 1  
    50   11   45 1  
    51   12   46 1  
    52   12   47 1  
    53   13   48 1  
    54   13   49 1  
    55   16   50 1  
    56   17   51 1  
    57   18   52 1  
    58   19   53 1  
    59   24   54 1  
    60   25   55 1  
    61   25   56 1  
    62   26   57 1  
    63   26   58 1  
    64   27   59 1  
    65   27   60 1  
    66   28   61 1  
    67   28   62 1  
    68   29   63 1  
    69   31   64 1  
    70   32   65 1  
    71   33   66 1  
    72   34   67 1  
    73   35   68 1  
@<TRIPOS>SUBSTRUCTURE
     1 7XR         1

