### 
### Created by X-TOOL on Wed Jan  1 15:39:37 2020
### 

@<TRIPOS>MOLECULE
5x28_ligand
   71    76     1     0     0
SMALL
GAST_HUCK


@<TRIPOS>ATOM
      1 C4        -52.6610    0.1440  -21.8930 C.ar      1 7XU         0.1519
      2 C5        -53.6140    0.7890  -22.6470 C.ar      1 7XU         0.0534
      3 C6        -54.5850    1.5150  -22.0090 C.ar      1 7XU         0.0101
      4 C8        -52.3030   -0.2090  -23.9710 C.2       1 7XU         0.2409
      5 N1        -54.5720    1.5710  -20.7070 N.ar      1 7XU        -0.2705
      6 N2        -53.7370    1.0650  -18.6900 N.pl3     1 7XU        -0.2554
      7 N3        -52.6890    0.2280  -20.5650 N.ar      1 7XU        -0.2435
      8 CAS       -49.1910   -1.6440  -15.0920 C.3       1 7XU         0.0649
      9 CAQ       -49.4390   -2.5670  -13.9080 C.3       1 7XU        -0.0123
     10 NBH       -49.3940   -1.8180  -12.6490 N.4       1 7XU         0.2358
     11 CAA       -49.7050   -2.7310  -11.5490 C.3       1 7XU        -0.0430
     12 CAR       -50.3950   -0.7540  -12.6210 C.3       1 7XU        -0.0123
     13 CAT       -50.0500    0.2490  -13.6990 C.3       1 7XU         0.0649
     14 NBI       -50.0740   -0.4850  -14.9550 N.pl3     1 7XU        -0.3046
     15 CBB       -50.9810   -0.1160  -15.9400 C.ar      1 7XU         0.0295
     16 CAJ       -51.9740    0.7770  -15.6020 C.ar      1 7XU        -0.0531
     17 CAH       -52.8940    1.1630  -16.5510 C.ar      1 7XU        -0.0494
     18 CAI       -50.9130   -0.6240  -17.2260 C.ar      1 7XU        -0.0531
     19 CAG       -51.8400   -0.2320  -18.1820 C.ar      1 7XU        -0.0494
     20 CBA       -52.8270    0.6630  -17.8340 C.ar      1 7XU         0.0511
     21 C2        -53.6470    0.9450  -19.9910 C.ar      1 7XU         0.1885
     22 N7        -53.3730    0.5520  -23.9280 N.2       1 7XU        -0.3006
     23 N9        -51.8860   -0.4620  -22.7600 N.pl3     1 7XU        -0.1926
     24 CBG       -50.7080   -1.2590  -22.4760 C.3       1 7XU         0.0724
     25 CAO       -51.0290   -2.7350  -22.4310 C.3       1 7XU        -0.0231
     26 CAM       -49.7240   -3.4960  -22.2530 C.3       1 7XU        -0.0504
     27 CAL       -49.0130   -3.0490  -20.9800 C.3       1 7XU        -0.0529
     28 CAN       -48.8030   -1.5460  -20.9620 C.3       1 7XU        -0.0504
     29 CAP       -50.1230   -0.8360  -21.1460 C.3       1 7XU        -0.0231
     30 NAY       -51.7250   -0.6820  -25.0500 N.pl3     1 7XU        -0.2263
     31 CAZ       -52.0460   -0.2440  -26.2490 C.ar      1 7XU         0.0682
     32 CAE       -52.2140    1.1030  -26.4780 C.ar      1 7XU        -0.0380
     33 CAC       -52.5420    1.5540  -27.7440 C.ar      1 7XU        -0.0715
     34 CAB       -52.7030    0.6550  -28.7790 C.ar      1 7XU        -0.0734
     35 CAD       -52.5370   -0.6950  -28.5420 C.ar      1 7XU        -0.0715
     36 CAF       -52.2050   -1.1440  -27.2790 C.ar      1 7XU        -0.0380
     37 H1        -55.3497    2.0331  -22.5764 H         1 7XU         0.0824
     38 H2        -54.5856    1.5081  -18.3101 H         1 7XU         0.2120
     39 H3        -49.4126   -2.1731  -16.0306 H         1 7XU         0.0562
     40 H4        -48.1413   -1.3151  -15.0954 H         1 7XU         0.0562
     41 H5        -48.6651   -3.3485  -13.8910 H         1 7XU         0.0834
     42 H6        -50.4292   -3.0338  -14.0152 H         1 7XU         0.0834
     43 H7        -48.4746   -1.4233  -12.5267 H         1 7XU         0.2032
     44 H8        -49.6747   -2.1814  -10.5966 H         1 7XU         0.0778
     45 H9        -48.9644   -3.5440  -11.5268 H         1 7XU         0.0778
     46 H10       -50.7096   -3.1540  -11.6964 H         1 7XU         0.0778
     47 H11       -50.3869   -0.2611  -11.6377 H         1 7XU         0.0834
     48 H12       -51.3927   -1.1764  -12.8112 H         1 7XU         0.0834
     49 H13       -49.0495    0.6706  -13.5222 H         1 7XU         0.0562
     50 H14       -50.7921    1.0608  -13.7169 H         1 7XU         0.0562
     51 H15       -52.0308    1.1735  -14.5947 H         1 7XU         0.0489
     52 H16       -53.6767    1.8651  -16.2874 H         1 7XU         0.0505
     53 H17       -50.1333   -1.3302  -17.4873 H         1 7XU         0.0489
     54 H18       -51.7876   -0.6258  -19.1906 H         1 7XU         0.0505
     55 H19       -49.9656   -1.0839  -23.2686 H         1 7XU         0.0640
     56 H20       -51.5137   -3.0402  -23.3701 H         1 7XU         0.0294
     57 H21       -51.7015   -2.9450  -21.5862 H         1 7XU         0.0294
     58 H22       -49.0722   -3.3037  -23.1179 H         1 7XU         0.0266
     59 H23       -49.9391   -4.5728  -22.1881 H         1 7XU         0.0266
     60 H24       -48.0343   -3.5478  -20.9226 H         1 7XU         0.0265
     61 H25       -49.6223   -3.3357  -20.1102 H         1 7XU         0.0265
     62 H26       -48.1213   -1.2640  -21.7779 H         1 7XU         0.0266
     63 H27       -48.3627   -1.2515  -19.9979 H         1 7XU         0.0266
     64 H28       -50.8103   -1.1118  -20.3326 H         1 7XU         0.0294
     65 H29       -49.9642    0.2524  -21.1387 H         1 7XU         0.0294
     66 H30       -51.0044   -1.4120  -24.9566 H         1 7XU         0.2214
     67 H31       -52.0893    1.8104  -25.6662 H         1 7XU         0.0536
     68 H32       -52.6728    2.6150  -27.9235 H         1 7XU         0.0587
     69 H33       -52.9583    1.0069  -29.7720 H         1 7XU         0.0519
     70 H34       -52.6678   -1.4052  -29.3504 H         1 7XU         0.0587
     71 H35       -52.0696   -2.2043  -27.0985 H         1 7XU         0.0536
@<TRIPOS>BOND
     1    1    2 ar 
     2    7    1 ar 
     3    1   23 1  
     4    3    2 ar 
     5    2   22 1  
     6    5    3 ar 
     7    4   22 2  
     8   23    4 1  
     9    4   30 1  
    10   21    5 ar 
    11   20    6 1  
    12    6   21 1  
    13   21    7 ar 
    14    8    9 1  
    15   14    8 1  
    16    9   10 1  
    17   10   11 1  
    18   12   10 1  
    19   13   12 1  
    20   14   13 1  
    21   15   14 1  
    22   16   15 ar 
    23   15   18 ar 
    24   17   16 ar 
    25   17   20 ar 
    26   18   19 ar 
    27   19   20 ar 
    28   23   24 1  
    29   24   25 1  
    30   24   29 1  
    31   25   26 1  
    32   26   27 1  
    33   27   28 1  
    34   28   29 1  
    35   30   31 1  
    36   31   32 ar 
    37   31   36 ar 
    38   32   33 ar 
    39   33   34 ar 
    40   34   35 ar 
    41   35   36 ar 
    42    3   37 1  
    43    6   38 1  
    44    8   39 1  
    45    8   40 1  
    46    9   41 1  
    47    9   42 1  
    48   10   43 1  
    49   11   44 1  
    50   11   45 1  
    51   11   46 1  
    52   12   47 1  
    53   12   48 1  
    54   13   49 1  
    55   13   50 1  
    56   16   51 1  
    57   17   52 1  
    58   18   53 1  
    59   19   54 1  
    60   24   55 1  
    61   25   56 1  
    62   25   57 1  
    63   26   58 1  
    64   26   59 1  
    65   27   60 1  
    66   27   61 1  
    67   28   62 1  
    68   28   63 1  
    69   29   64 1  
    70   29   65 1  
    71   30   66 1  
    72   32   67 1  
    73   33   68 1  
    74   34   69 1  
    75   35   70 1  
    76   36   71 1  
@<TRIPOS>SUBSTRUCTURE
     1 7XU         1

