### 
### Created by X-TOOL on Wed Jan  1 15:39:38 2020
### 

@<TRIPOS>MOLECULE
5x33_ligand
   66    69     1     0     0
SMALL
GAST_HUCK


@<TRIPOS>ATOM
      1 C10       117.0210  175.0890  281.6980 C.3       1 7Y9        -0.1042
      2 C13       119.6730  174.5280  281.5740 C.ar      1 7Y9        -0.0588
      3 C15       118.2580  179.7060  282.3230 C.ar      1 7Y9        -0.0077
      4 C17       117.0810  179.8060  283.0420 C.ar      1 7Y9         0.1223
      5 C20       121.9630  174.8390  280.9120 C.ar      1 7Y9         0.1160
      6 C21       115.4570  181.4300  283.6660 C.3       1 7Y9         0.1097
      7 C22       114.4320  180.7890  284.6050 C.ar      1 7Y9        -0.0183
      8 C24       112.1230  180.6780  285.2430 C.ar      1 7Y9        -0.0196
      9 C26       110.6860  181.1570  285.0490 C.3       1 7Y9         0.1028
     10 C28       113.7450  179.3170  286.3680 C.ar      1 7Y9        -0.0750
     11 O01       116.7730  180.9670  283.7630 O.3       1 7Y9        -0.2870
     12 O02       123.2930  174.4040  280.9070 O.3       1 7Y9        -0.3144
     13 O03       109.8520  180.0410  285.0290 O.3       1 7Y9        -0.3056
     14 N04       103.8110  182.3490  285.0220 N.pl3     1 7Y9        -0.2733
     15 N05       103.5660  180.1470  285.8440 N.pl3     1 7Y9        -0.2733
     16 C06       117.8410  176.1410  280.9480 C.3       1 7Y9        -0.0588
     17 C07       117.6320  177.4680  281.6690 C.ar      1 7Y9        -0.0886
     18 C08       119.3120  175.7000  280.9280 C.ar      1 7Y9        -0.0886
     19 C09       117.2810  176.2500  279.5380 C.3       1 7Y9        -0.1042
     20 C11       118.5220  178.5350  281.6340 C.ar      1 7Y9        -0.0588
     21 C12       116.4670  177.5820  282.3780 C.ar      1 7Y9        -0.0588
     22 C14       120.2940  176.4270  280.2620 C.ar      1 7Y9        -0.0588
     23 C16       116.2040  178.7430  283.0560 C.ar      1 7Y9        -0.0077
     24 C18       120.9920  174.1010  281.5670 C.ar      1 7Y9        -0.0082
     25 C19       121.6140  176.0080  280.2590 C.ar      1 7Y9        -0.0082
     26 C23       113.1250  181.1940  284.4480 C.ar      1 7Y9        -0.0540
     27 C25       114.7480  179.8470  285.5740 C.ar      1 7Y9        -0.0646
     28 C27       112.4330  179.7340  286.2080 C.ar      1 7Y9        -0.0647
     29 C29       108.4890  180.3130  285.1190 C.ar      1 7Y9         0.0939
     30 C30       107.5970  179.2880  284.8460 C.ar      1 7Y9        -0.0329
     31 C31       108.0420  181.5740  285.4830 C.ar      1 7Y9        -0.0329
     32 C32       105.7990  180.7790  285.2990 C.ar      1 7Y9         0.0145
     33 C33       106.2390  179.5200  284.9340 C.ar      1 7Y9        -0.0654
     34 C34       106.6840  181.8040  285.5780 C.ar      1 7Y9        -0.0654
     35 C35       104.3170  181.0490  285.4090 C.cat     1 7Y9         0.2294
     36 H1        115.9644  175.3942  281.7189 H         1 7Y9         0.0064
     37 H2        117.3965  174.9971  282.7278 H         1 7Y9         0.0064
     38 H3        117.1125  174.1195  281.1864 H         1 7Y9         0.0064
     39 H4        118.9196  173.9418  282.0877 H         1 7Y9         0.0758
     40 H5        118.9616  180.5303  282.2994 H         1 7Y9         0.0623
     41 H6        115.4678  182.5105  283.8719 H         1 7Y9         0.0792
     42 H7        115.1179  181.2567  282.6340 H         1 7Y9         0.0792
     43 H8        110.6008  181.7021  284.0974 H         1 7Y9         0.0778
     44 H9        110.3998  181.8204  285.8785 H         1 7Y9         0.0778
     45 H10       113.9870  178.5727  287.1180 H         1 7Y9         0.0582
     46 H11       123.8248  175.0204  280.4174 H         1 7Y9         0.2593
     47 H12       104.4572  183.0686  284.6678 H         1 7Y9         0.3180
     48 H13       102.8047  182.5543  285.1008 H         1 7Y9         0.3180
     49 H14       103.9595  179.2331  286.1103 H         1 7Y9         0.3180
     50 H15       102.5545  180.3186  285.9356 H         1 7Y9         0.3180
     51 H16       117.8527  177.0013  278.9735 H         1 7Y9         0.0064
     52 H17       116.2245  176.5527  279.5854 H         1 7Y9         0.0064
     53 H18       117.3608  175.2748  279.0353 H         1 7Y9         0.0064
     54 H19       119.4366  178.4488  281.0585 H         1 7Y9         0.0758
     55 H20       115.7591  176.7615  282.4029 H         1 7Y9         0.0758
     56 H21       120.0215  177.3356  279.7373 H         1 7Y9         0.0758
     57 H22       115.2813  178.8278  283.6186 H         1 7Y9         0.0623
     58 H23       121.2645  173.1842  282.0772 H         1 7Y9         0.0623
     59 H24       122.3700  176.5929  279.7477 H         1 7Y9         0.0623
     60 H25       112.8805  181.9284  283.6891 H         1 7Y9         0.0496
     61 H26       115.7751  179.5277  285.7086 H         1 7Y9         0.0500
     62 H27       111.6515  179.3224  286.8364 H         1 7Y9         0.0500
     63 H28       107.9643  178.3078  284.5644 H         1 7Y9         0.0542
     64 H29       108.7494  182.3688  285.6903 H         1 7Y9         0.0542
     65 H30       105.5296  178.7286  284.7206 H         1 7Y9         0.0588
     66 H31       106.3145  182.7806  285.8691 H         1 7Y9         0.0588
@<TRIPOS>BOND
     1   16    1 1  
     2   18    2 ar 
     3    2   24 ar 
     4    4    3 ar 
     5    3   20 ar 
     6   11    4 1  
     7    4   23 ar 
     8    5   12 1  
     9   24    5 ar 
    10   25    5 ar 
    11    7    6 1  
    12    6   11 1  
    13   26    7 ar 
    14    7   27 ar 
    15    9    8 1  
    16    8   26 ar 
    17    8   28 ar 
    18   13    9 1  
    19   10   27 ar 
    20   28   10 ar 
    21   29   13 1  
    22   35   14 ar 
    23   35   15 ar 
    24   17   16 1  
    25   16   18 1  
    26   16   19 1  
    27   20   17 ar 
    28   21   17 ar 
    29   18   22 ar 
    30   23   21 ar 
    31   22   25 ar 
    32   30   29 ar 
    33   31   29 ar 
    34   33   30 ar 
    35   34   31 ar 
    36   32   33 ar 
    37   32   34 ar 
    38   32   35 1  
    39    1   36 1  
    40    1   37 1  
    41    1   38 1  
    42    2   39 1  
    43    3   40 1  
    44    6   41 1  
    45    6   42 1  
    46    9   43 1  
    47    9   44 1  
    48   10   45 1  
    49   12   46 1  
    50   14   47 1  
    51   14   48 1  
    52   15   49 1  
    53   15   50 1  
    54   19   51 1  
    55   19   52 1  
    56   19   53 1  
    57   20   54 1  
    58   21   55 1  
    59   22   56 1  
    60   23   57 1  
    61   24   58 1  
    62   25   59 1  
    63   26   60 1  
    64   27   61 1  
    65   28   62 1  
    66   30   63 1  
    67   31   64 1  
    68   33   65 1  
    69   34   66 1  
@<TRIPOS>SUBSTRUCTURE
     1 7Y9         1

