### 
### Created by X-TOOL on Mon Sep 10 21:13:31 2018
### 

@<TRIPOS>MOLECULE
5x4m_ligand
   23    24     1     0     0
SMALL
GAST_HUCK


@<TRIPOS>ATOM
      1 C4         39.4130   -8.3110  -15.1210 C.ar      1 7ZF        -0.0374
      2 C5         39.1060   -6.2250  -13.9910 C.ar      1 7ZF        -0.0374
      3 C6         38.8880   -7.4400  -10.0400 C.ar      1 7ZF         0.0727
      4 C7         38.7930   -7.5650  -14.1460 C.ar      1 7ZF         0.0680
      5 C8         37.0450   -8.6880   -9.9320 C.ar      1 7ZF         0.1866
      6 N12        36.9470   -8.8070  -11.2660 N.ar      1 7ZF        -0.2130
      7 C1         40.6650   -6.3980  -15.7840 C.ar      1 7ZF        -0.0730
      8 C2         40.3520   -7.7320  -15.9410 C.ar      1 7ZF        -0.0710
      9 C3         40.0430   -5.6410  -14.8100 C.ar      1 7ZF        -0.0710
     10 C9         37.8970   -8.1660  -11.9390 C.ar      1 7ZF         0.2084
     11 N10        37.9900   -8.0270   -9.2560 N.ar      1 7ZF        -0.2418
     12 N11        38.8860   -7.4650  -11.3660 N.ar      1 7ZF        -0.2388
     13 N13        36.0840   -9.3130   -9.1960 N.pl3     1 7ZF        -0.2997
     14 N14        37.8450   -8.2190  -13.3370 N.pl3     1 7ZF        -0.2384
     15 H1         39.1605   -9.3581  -15.2431 H         1 7ZF         0.0540
     16 H2         38.6129   -5.6375  -13.2250 H         1 7ZF         0.0540
     17 H3         39.6896   -6.8948   -9.5550 H         1 7ZF         0.1144
     18 H4         41.4051   -5.9398  -16.4301 H         1 7ZF         0.0522
     19 H5         40.8438   -8.3207  -16.7069 H         1 7ZF         0.0588
     20 H6         40.2924   -4.5927  -14.6923 H         1 7ZF         0.0588
     21 H7         35.3328   -9.8363   -9.6680 H         1 7ZF         0.1862
     22 H8         36.1086   -9.2623   -8.1675 H         1 7ZF         0.1862
     23 H9         37.0889   -8.7537  -13.7879 H         1 7ZF         0.2213
@<TRIPOS>BOND
     1    4    1 ar 
     2    1    8 ar 
     3    4    2 ar 
     4    2    9 ar 
     5    3   11 ar 
     6   12    3 ar 
     7   14    4 1  
     8    6    5 ar 
     9    5   11 ar 
    10    5   13 1  
    11   10    6 ar 
    12    8    7 ar 
    13    9    7 ar 
    14   10   12 ar 
    15   10   14 1  
    16    1   15 1  
    17    2   16 1  
    18    3   17 1  
    19    7   18 1  
    20    8   19 1  
    21    9   20 1  
    22   13   21 1  
    23   13   22 1  
    24   14   23 1  
@<TRIPOS>SUBSTRUCTURE
     1 7ZF         1

