### 
### Created by X-TOOL on Mon Sep 10 21:13:32 2018
### 

@<TRIPOS>MOLECULE
5x4n_ligand
   24    25     1     0     0
SMALL
GAST_HUCK


@<TRIPOS>ATOM
      1 C4         39.7760   -6.7790  -14.2440 C.ar      1 7ZL        -0.0381
      2 C5         39.7180   -8.8500  -15.4080 C.ar      1 7ZL        -0.0381
      3 C6         37.4070   -8.8730   -9.9590 C.ar      1 7ZL         0.0142
      4 C7         39.2590   -8.0640  -14.3840 C.ar      1 7ZL         0.0642
      5 C8         37.3080   -8.9780  -11.3250 C.ar      1 7ZL         0.0977
      6 C10        39.4380   -7.9120  -10.1780 C.ar      1 7ZL         0.1721
      7 N12        39.4310   -7.9620  -11.5160 N.ar      1 7ZL        -0.2377
      8 C1         41.1820   -7.0850  -16.1570 C.ar      1 7ZL        -0.0733
      9 C2         40.7280   -6.3010  -15.1210 C.ar      1 7ZL        -0.0714
     10 C3         40.6670   -8.3610  -16.2830 C.ar      1 7ZL        -0.0714
     11 C9         38.3470   -8.4960  -12.0950 C.ar      1 7ZL         0.1471
     12 N11        38.4700   -8.3360   -9.3530 N.ar      1 7ZL        -0.2721
     13 N13        40.5620   -7.3620   -9.6000 N.pl3     1 7ZL        -0.3060
     14 N14        38.2880   -8.5570  -13.4910 N.pl3     1 7ZL        -0.2554
     15 CL1        35.8940   -9.6940  -11.9840 Cl        1 7ZL        -0.0754
     16 H1         39.4264   -6.1463  -13.4362 H         1 7ZL         0.0537
     17 H2         39.3356   -9.8568  -15.5312 H         1 7ZL         0.0537
     18 H3         36.5903   -9.2404   -9.3483 H         1 7ZL         0.0853
     19 H4         41.9230   -6.7119  -16.8547 H         1 7ZL         0.0520
     20 H5         41.1218   -5.2992  -14.9929 H         1 7ZL         0.0587
     21 H6         41.0173   -8.9944  -17.0899 H         1 7ZL         0.0587
     22 H7         41.3324   -7.0222  -10.1933 H         1 7ZL         0.1825
     23 H8         40.6315   -7.2908   -8.5748 H         1 7ZL         0.1825
     24 H9         37.4572   -9.0040  -13.9044 H         1 7ZL         0.2165
@<TRIPOS>BOND
     1    4    1 ar 
     2    1    9 ar 
     3    4    2 ar 
     4    2   10 ar 
     5    5    3 ar 
     6    3   12 ar 
     7   14    4 1  
     8   11    5 ar 
     9    5   15 1  
    10    7    6 ar 
    11    6   12 ar 
    12    6   13 1  
    13   11    7 ar 
    14    9    8 ar 
    15   10    8 ar 
    16   11   14 1  
    17    1   16 1  
    18    2   17 1  
    19    3   18 1  
    20    8   19 1  
    21    9   20 1  
    22   10   21 1  
    23   13   22 1  
    24   13   23 1  
    25   14   24 1  
@<TRIPOS>SUBSTRUCTURE
     1 7ZL         1

