### 
### Created by X-TOOL on Mon Sep 10 21:13:33 2018
### 

@<TRIPOS>MOLECULE
5x4o_ligand
   55    58     1     0     0
SMALL
GAST_HUCK


@<TRIPOS>ATOM
      1 C35        43.4720   -6.2120  -13.3140 C.3       1 YAM         0.0470
      2 C34        44.4390   -6.7110   -9.9880 C.3       1 YAM         0.0794
      3 N2         36.9720   -8.7080  -11.5480 N.ar      1 YAM        -0.2282
      4 C7         36.8100   -8.4340  -10.2430 C.ar      1 YAM         0.0368
      5 C6         37.6880   -7.6780   -9.4890 C.ar      1 YAM         0.0965
      6 C13        40.8930   -4.8660  -11.0940 C.ar      1 YAM         0.0267
      7 C20        41.9200   -4.6950  -12.0160 C.ar      1 YAM         0.1410
      8 C21        41.2270   -6.8480  -15.8780 C.ar      1 YAM         0.0648
      9 C8         37.4330   -7.3930   -8.0340 C.3       1 YAM         0.3606
     10 C18        39.8370   -2.9590  -12.0270 C.ar      1 YAM        -0.0599
     11 C16        39.5600   -6.5540  -14.2360 C.ar      1 YAM        -0.0524
     12 C19        40.8970   -2.8670  -12.9060 C.ar      1 YAM        -0.0178
     13 O33        45.5640   -5.0760  -11.6570 O.2       1 YAM        -0.1495
     14 S31        44.3170   -5.2000  -10.9270 S.o2      1 YAM         0.0614
     15 O32        43.8590   -4.1440  -10.0380 O.2       1 YAM        -0.1495
     16 N30        43.0440   -5.6330  -12.0090 N.am      1 YAM        -0.1662
     17 C17        39.8340   -3.9790  -11.1000 C.ar      1 YAM        -0.0548
     18 N1         41.9420   -3.7070  -12.9260 N.ar      1 YAM        -0.2978
     19 C12        40.9700   -5.9880  -10.1150 C.3       1 YAM         0.0716
     20 N10        39.7580   -6.4180   -9.4500 N.pl3     1 YAM        -0.2752
     21 C5         38.8070   -7.1990  -10.1500 C.ar      1 YAM         0.1506
     22 F29        36.2530   -7.8530   -7.5420 F         1 YAM        -0.2427
     23 F28        38.4480   -7.6810   -7.1880 F         1 YAM        -0.2427
     24 F27        37.2890   -6.0540   -7.8370 F         1 YAM        -0.2427
     25 N4         38.9840   -7.4560  -11.4570 N.ar      1 YAM        -0.2087
     26 C3         38.0650   -8.1810  -12.1210 C.ar      1 YAM         0.2256
     27 N9         38.2480   -8.4110  -13.4960 N.pl3     1 YAM        -0.2364
     28 C11        39.2590   -7.9070  -14.3130 C.ar      1 YAM         0.0560
     29 C14        39.9450   -8.7310  -15.1870 C.ar      1 YAM        -0.0419
     30 C22        40.9360   -8.1820  -15.9690 C.ar      1 YAM        -0.0067
     31 C23        41.8240   -8.8250  -16.9870 C.3       1 YAM         0.0702
     32 C15        40.5560   -6.0100  -15.0200 C.ar      1 YAM        -0.0516
     33 N25        42.2450   -6.5330  -16.7600 N.am      1 YAM        -0.2395
     34 C24        42.7150   -7.6660  -17.3940 C.2       1 YAM         0.2072
     35 O26        43.6850   -7.7460  -18.1330 O.2       1 YAM        -0.3895
     36 H1         42.5842   -6.4489  -13.9188 H         1 YAM         0.0524
     37 H2         44.0500   -7.1308  -13.1356 H         1 YAM         0.0524
     38 H3         44.0976   -5.4837  -13.8508 H         1 YAM         0.0524
     39 H4         44.7846   -7.5235  -10.6441 H         1 YAM         0.0488
     40 H5         43.4519   -6.9674   -9.5759 H         1 YAM         0.0488
     41 H6         45.1558   -6.5744   -9.1649 H         1 YAM         0.0488
     42 H7         35.9318   -8.8325   -9.7479 H         1 YAM         0.1099
     43 H8         39.0234   -2.2437  -12.0649 H         1 YAM         0.0543
     44 H9         39.0071   -5.9190  -13.5533 H         1 YAM         0.0472
     45 H10        40.8839   -2.0603  -13.6299 H         1 YAM         0.0703
     46 H11        39.0196   -4.0827  -10.3921 H         1 YAM         0.0616
     47 H12        41.6788   -5.6845   -9.3305 H         1 YAM         0.0690
     48 H13        41.3700   -6.8599  -10.6533 H         1 YAM         0.0690
     49 H14        39.5878   -6.1560   -8.4685 H         1 YAM         0.2002
     50 H15        37.5555   -9.0221  -13.9521 H         1 YAM         0.2274
     51 H16        39.7073   -9.7865  -15.2547 H         1 YAM         0.0462
     52 H17        41.2449   -9.2048  -17.8416 H         1 YAM         0.0646
     53 H18        42.4096   -9.6457  -16.5471 H         1 YAM         0.0646
     54 H19        40.8015   -4.9558  -14.9613 H         1 YAM         0.0470
     55 H20        42.5936   -5.6090  -16.9173 H         1 YAM         0.2234
@<TRIPOS>BOND
     1   16    1 1  
     2   14    2 1  
     3    3    4 ar 
     4   26    3 ar 
     5    4    5 ar 
     6    5    9 1  
     7   21    5 ar 
     8    6    7 ar 
     9    6   17 ar 
    10   19    6 1  
    11    7   16 1  
    12    7   18 ar 
    13    8   30 ar 
    14   32    8 ar 
    15    8   33 1  
    16    9   22 1  
    17    9   23 1  
    18    9   24 1  
    19   10   12 ar 
    20   17   10 ar 
    21   28   11 ar 
    22   11   32 ar 
    23   18   12 ar 
    24   14   13 2  
    25   14   15 2  
    26   16   14 am 
    27   20   19 1  
    28   21   20 1  
    29   25   21 ar 
    30   26   25 ar 
    31   27   26 1  
    32   27   28 1  
    33   28   29 ar 
    34   29   30 ar 
    35   30   31 1  
    36   31   34 1  
    37   33   34 am 
    38   34   35 2  
    39    1   36 1  
    40    1   37 1  
    41    1   38 1  
    42    2   39 1  
    43    2   40 1  
    44    2   41 1  
    45    4   42 1  
    46   10   43 1  
    47   11   44 1  
    48   12   45 1  
    49   17   46 1  
    50   19   47 1  
    51   19   48 1  
    52   20   49 1  
    53   27   50 1  
    54   29   51 1  
    55   31   52 1  
    56   31   53 1  
    57   32   54 1  
    58   33   55 1  
@<TRIPOS>SUBSTRUCTURE
     1 YAM         1

