### 
### Created by X-TOOL on Mon Sep 10 21:13:32 2018
### 

@<TRIPOS>MOLECULE
5x4p_ligand
   27    29     1     0     0
SMALL
GAST_HUCK


@<TRIPOS>ATOM
      1 C4         37.6430   -8.8760  -10.1860 C.ar      1 7ZO         0.0285
      2 C5         39.6350   -7.8890  -10.4810 C.ar      1 7ZO         0.0728
      3 C6         41.1290   -8.6300  -16.2410 C.ar      1 7ZO        -0.0095
      4 C7         41.5290   -7.3260  -16.1770 C.ar      1 7ZO         0.0618
      5 C8         39.5060   -8.2150  -14.5820 C.ar      1 7ZO         0.0443
      6 C10        38.5400   -8.5750  -12.3540 C.ar      1 7ZO         0.1607
      7 C1         40.9410   -6.4250  -15.3270 C.ar      1 7ZO        -0.0545
      8 C2         39.9150   -6.8940  -14.5150 C.ar      1 7ZO        -0.0566
      9 C3         40.1160   -9.1020  -15.4420 C.ar      1 7ZO        -0.0460
     10 C9         37.5130   -9.0380  -11.5490 C.ar      1 7ZO         0.1124
     11 C11        42.9030   -8.2930  -17.7310 C.2       1 7ZO         0.2060
     12 C12        41.9550   -9.3610  -17.2510 C.3       1 7ZO         0.0694
     13 N13        38.7010   -8.2920   -9.6170 N.ar      1 7ZO        -0.2820
     14 N14        39.6140   -8.0000  -11.8130 N.ar      1 7ZO        -0.2478
     15 N15        42.5560   -7.1350  -17.0790 N.am      1 7ZO        -0.2413
     16 N16        38.4920   -8.6780  -13.7480 N.pl3     1 7ZO        -0.2615
     17 O17        43.8120   -8.4580  -18.5380 O.2       1 7ZO        -0.3902
     18 CL1        36.0840   -9.8170  -12.1370 Cl        1 7ZO        -0.0634
     19 H1         36.8482   -9.2402   -9.5452 H         1 7ZO         0.0889
     20 H2         40.5121   -7.4171  -10.0531 H         1 7ZO         0.1084
     21 H3         41.2627   -5.3905  -15.2898 H         1 7ZO         0.0462
     22 H4         39.4293   -6.2175  -13.8211 H         1 7ZO         0.0452
     23 H5         39.8063  -10.1399  -15.4867 H         1 7ZO         0.0444
     24 H6         41.3324   -9.7394  -18.0751 H         1 7ZO         0.0645
     25 H7         42.4997  -10.1975  -16.7889 H         1 7ZO         0.0645
     26 H8         42.9979   -6.2525  -17.2398 H         1 7ZO         0.2220
     27 H9         37.6661   -9.1179  -14.1786 H         1 7ZO         0.2130
@<TRIPOS>BOND
     1   10    1 ar 
     2    1   13 ar 
     3    2   13 ar 
     4   14    2 ar 
     5    3    4 ar 
     6    9    3 ar 
     7    3   12 1  
     8    4    7 ar 
     9    4   15 1  
    10    5    8 ar 
    11    5    9 ar 
    12   16    5 1  
    13    6   10 ar 
    14    6   14 ar 
    15    6   16 1  
    16    7    8 ar 
    17   10   18 1  
    18   12   11 1  
    19   11   15 am 
    20   11   17 2  
    21    1   19 1  
    22    2   20 1  
    23    7   21 1  
    24    8   22 1  
    25    9   23 1  
    26   12   24 1  
    27   12   25 1  
    28   15   26 1  
    29   16   27 1  
@<TRIPOS>SUBSTRUCTURE
     1 7ZO         1

