### 
### Created by X-TOOL on Mon Sep 10 21:13:33 2018
### 

@<TRIPOS>MOLECULE
5x4q_ligand
   41    44     1     0     0
SMALL
GAST_HUCK


@<TRIPOS>ATOM
      1 C4         39.8750   -6.8750  -14.3450 C.ar      1 7Z6        -0.0566
      2 C5         40.1590   -9.0740  -15.2830 C.ar      1 7Z6        -0.0460
      3 C6         41.3110   -3.1640  -12.1900 C.ar      1 7Z6         0.0042
      4 C7         42.4020   -5.1420  -12.0660 C.ar      1 7Z6         0.0145
      5 C8         37.6550   -9.0070   -9.9790 C.ar      1 7Z6         0.0136
      6 C10        41.6630   -5.5460  -10.9740 C.ar      1 7Z6         0.0074
      7 C13        37.5410   -9.1130  -11.3530 C.ar      1 7Z6         0.0967
      8 C15        39.6920   -7.9840  -10.2170 C.ar      1 7Z6         0.1759
      9 C17        41.9940   -9.2390  -17.1220 C.3       1 7Z6         0.0694
     10 C1         40.5190   -3.4690  -11.1020 C.ar      1 7Z6        -0.0404
     11 C2         40.6980   -4.6870  -10.4790 C.ar      1 7Z6        -0.0385
     12 C3         40.8690   -6.3710  -15.1540 C.ar      1 7Z6        -0.0545
     13 C9         41.1470   -8.5650  -16.0940 C.ar      1 7Z6        -0.0095
     14 C11        41.4850   -7.2430  -16.0190 C.ar      1 7Z6         0.0618
     15 C12        39.5170   -8.2130  -14.4050 C.ar      1 7Z6         0.0441
     16 C14        38.5710   -8.6140  -12.1340 C.ar      1 7Z6         0.1440
     17 C16        42.8840   -8.1150  -17.6090 C.2       1 7Z6         0.2060
     18 C18        41.9410   -6.8860  -10.3770 C.3       1 7Z6         0.0703
     19 N19        42.2550   -3.9690  -12.6970 N.ar      1 7Z6        -0.3043
     20 N20        38.7220   -8.4400   -9.3970 N.ar      1 7Z6        -0.2726
     21 N21        39.6460   -8.0520  -11.5600 N.ar      1 7Z6        -0.2386
     22 N22        42.5000   -6.9760  -16.9280 N.am      1 7Z6        -0.2413
     23 N23        38.5120   -8.6830  -13.5400 N.pl3     1 7Z6        -0.2646
     24 N24        40.8180   -7.4020   -9.6050 N.pl3     1 7Z6        -0.2795
     25 O25        43.7770   -8.2130  -18.4410 O.2       1 7Z6        -0.3902
     26 CL1        36.1350   -9.8420  -12.0440 Cl        1 7Z6        -0.0758
     27 H1         39.3652   -6.2161  -13.6514 H         1 7Z6         0.0452
     28 H2         39.8887  -10.1228  -15.3290 H         1 7Z6         0.0444
     29 H3         41.1586   -2.2038  -12.6694 H         1 7Z6         0.0767
     30 H4         43.1571   -5.8232  -12.4414 H         1 7Z6         0.0766
     31 H5         36.8583   -9.3936   -9.3538 H         1 7Z6         0.0850
     32 H6         41.3793   -9.6413  -17.9407 H         1 7Z6         0.0645
     33 H7         42.5880  -10.0506  -16.6765 H         1 7Z6         0.0645
     34 H8         39.7734   -2.7678  -10.7450 H         1 7Z6         0.0693
     35 H9         40.0962   -4.9646   -9.6212 H         1 7Z6         0.0679
     36 H10        41.1546   -5.3262  -15.1101 H         1 7Z6         0.0462
     37 H11        42.8145   -6.8014   -9.7138 H         1 7Z6         0.0704
     38 H12        42.1643   -7.5935  -11.1891 H         1 7Z6         0.0704
     39 H13        42.9028   -6.0721  -17.0718 H         1 7Z6         0.2220
     40 H14        37.6747   -9.1071  -13.9641 H         1 7Z6         0.2128
     41 H15        40.8492   -7.3387   -8.5774 H         1 7Z6         0.1890
@<TRIPOS>BOND
     1    1   12 ar 
     2   15    1 ar 
     3    2   13 ar 
     4   15    2 ar 
     5   10    3 ar 
     6   19    3 ar 
     7    6    4 ar 
     8    4   19 ar 
     9    5    7 ar 
    10   20    5 ar 
    11    6   11 ar 
    12   18    6 1  
    13   16    7 ar 
    14    7   26 1  
    15    8   20 ar 
    16    8   21 ar 
    17   24    8 1  
    18   13    9 1  
    19    9   17 1  
    20   11   10 ar 
    21   12   14 ar 
    22   13   14 ar 
    23   14   22 1  
    24   23   15 1  
    25   21   16 ar 
    26   16   23 1  
    27   22   17 am 
    28   17   25 2  
    29   18   24 1  
    30    1   27 1  
    31    2   28 1  
    32    3   29 1  
    33    4   30 1  
    34    5   31 1  
    35    9   32 1  
    36    9   33 1  
    37   10   34 1  
    38   11   35 1  
    39   12   36 1  
    40   18   37 1  
    41   18   38 1  
    42   22   39 1  
    43   23   40 1  
    44   24   41 1  
@<TRIPOS>SUBSTRUCTURE
     1 7Z6         1

