### 
### Created by X-TOOL on Mon Sep 10 21:13:31 2018
### 

@<TRIPOS>MOLECULE
5x54_ligand
   94    99     1     0     0
SMALL
GAST_HUCK


@<TRIPOS>ATOM
      1 C         -10.2170   13.5970    2.3040 C.2       1 ACE         0.1751
      2 O         -10.2460   14.4600    3.1570 O.2       1 ACE        -0.3972
      3 CH3       -10.7380   12.2160    2.6120 C.3       1 ACE         0.0258
      4 N          -9.9090   13.8270    1.0390 N.am      1 GLU        -0.2657
      5 CA         -9.1770   15.0470    0.6080 C.3       1 GLU         0.1324
      6 C         -10.2900   15.9240    0.0290 C.2       1 GLU         0.2041
      7 O         -10.4670   15.9920   -1.1830 O.2       1 GLU        -0.3944
      8 CB         -8.1110   14.7240   -0.4290 C.3       1 GLU        -0.0008
      9 CG         -6.9430   13.9390    0.1140 C.3       1 GLU         0.0044
     10 CD         -5.9030   13.5980   -0.9280 C.2       1 GLU         0.0350
     11 OE1        -5.7170   14.3670   -1.8990 O.co2     1 GLU        -0.5690
     12 OE2        -5.2760   12.5260   -0.7890 O.co2     1 GLU        -0.5690
     13 N         -11.0610   16.5540    0.9150 N.am      1 TRP        -0.2627
     14 CA        -12.2500   17.3480    0.5250 C.3       1 TRP         0.1352
     15 C         -11.8900   18.6730   -0.1020 C.2       1 TRP         0.2052
     16 O         -12.7120   19.3170   -0.7140 O.2       1 TRP        -0.3942
     17 CB        -13.1480   17.6100    1.7380 C.3       1 TRP         0.0042
     18 CG        -12.4060   18.2520    2.8570 C.2       1 TRP        -0.0418
     19 CD1       -11.7370   17.6200    3.8700 C.2       1 TRP         0.0167
     20 CD2       -12.1860   19.6460    3.0420 C.ar      1 TRP        -0.0214
     21 NE1       -11.1290   18.5350    4.6730 N.pl3     1 TRP        -0.2890
     22 CE2       -11.4020   19.7920    4.2000 C.ar      1 TRP         0.0603
     23 CE3       -12.5880   20.7890    2.3500 C.ar      1 TRP        -0.0747
     24 CZ2       -11.0130   21.0460    4.6940 C.ar      1 TRP        -0.0443
     25 CZ3       -12.1870   22.0450    2.8400 C.ar      1 TRP        -0.0792
     26 CH2       -11.4150   22.1560    4.0050 C.ar      1 TRP        -0.0768
     27 N         -10.6300   19.0510    0.0250 N.am      1 TRP        -0.2626
     28 CA        -10.1640   20.4100   -0.2210 C.3       1 TRP         0.1351
     29 C          -9.7120   20.6750   -1.6510 C.2       1 TRP         0.2047
     30 O          -9.0420   21.6680   -1.8940 O.2       1 TRP        -0.3943
     31 CB         -9.0280   20.7260    0.7560 C.3       1 TRP         0.0042
     32 CG         -7.9080   19.7800    0.6940 C.2       1 TRP        -0.0418
     33 CD1        -6.9340   19.7170   -0.2610 C.2       1 TRP         0.0167
     34 CD2        -7.6530   18.7160    1.6030 C.ar      1 TRP        -0.0214
     35 NE1        -6.0650   18.6880    0.0200 N.pl3     1 TRP        -0.2890
     36 CE2        -6.4900   18.0560    1.1600 C.ar      1 TRP         0.0603
     37 CE3        -8.2910   18.2560    2.7510 C.ar      1 TRP        -0.0747
     38 CZ2        -5.9490   16.9700    1.8390 C.ar      1 TRP        -0.0443
     39 CZ3        -7.7480   17.1780    3.4340 C.ar      1 TRP        -0.0792
     40 CH2        -6.5890   16.5520    2.9830 C.ar      1 TRP        -0.0768
     41 N         -10.0670   19.7850   -2.5850 N.am      1 TRP        -0.2683
     42 CA         -9.9250   20.0320   -4.0320 C.3       1 TRP         0.0986
     43 C         -10.8590   19.1740   -4.8490 C.2       1 TRP         0.0613
     44 O         -11.0110   19.4040   -6.0660 O.co2     1 TRP        -0.5665
     45 CB         -8.4840   19.8530   -4.5350 C.3       1 TRP        -0.0013
     46 CG         -7.7740   18.5320   -4.3260 C.2       1 TRP        -0.0424
     47 CD1        -7.8380   17.6990   -3.2380 C.2       1 TRP         0.0166
     48 CD2        -6.7910   17.9510   -5.2040 C.ar      1 TRP        -0.0214
     49 NE1        -6.9870   16.6410   -3.4030 N.pl3     1 TRP        -0.2891
     50 CE2        -6.3260   16.7740   -4.5920 C.ar      1 TRP         0.0603
     51 CE3        -6.2760   18.3110   -6.4560 C.ar      1 TRP        -0.0747
     52 CZ2        -5.3700   15.9400   -5.1920 C.ar      1 TRP        -0.0443
     53 CZ3        -5.3030   17.5030   -7.0460 C.ar      1 TRP        -0.0792
     54 CH2        -4.8660   16.3200   -6.4170 C.ar      1 TRP        -0.0768
     55 OXT       -11.4740   18.2470   -4.2980 O.co2     1 TRP        -0.5665
     56 H1        -10.6295   11.5766    1.7235 H         1 ACE         0.0467
     57 H2        -11.8001   12.2786    2.8912 H         1 ACE         0.0467
     58 H3        -10.1644   11.7852    3.4459 H         1 ACE         0.0467
     59 H4        -10.1780   13.1565    0.3476 H         1 GLU         0.1883
     60 H5         -8.7011   15.5404    1.4682 H         1 GLU         0.0801
     61 H6         -7.7301   15.6707   -0.8397 H         1 GLU         0.0330
     62 H7         -8.5780   14.1368   -1.2335 H         1 GLU         0.0330
     63 H8         -7.3246   13.0010    0.5436 H         1 GLU         0.0433
     64 H9         -6.4613   14.5346    0.9034 H         1 GLU         0.0433
     65 H10       -10.8270   16.4881    1.8850 H         1 TRP         0.1884
     66 H11       -12.8180   16.7621   -0.2125 H         1 TRP         0.0815
     67 H12       -13.5586   16.6517    2.0887 H         1 TRP         0.0397
     68 H13       -13.9717   18.2722    1.4329 H         1 TRP         0.0397
     69 H14       -11.6970   16.5411    4.0127 H         1 TRP         0.0795
     70 H15       -10.5567   18.3182    5.5015 H         1 TRP         0.2216
     71 H16       -13.1953   20.7108    1.4555 H         1 TRP         0.0540
     72 H17       -10.4132   21.1319    5.5928 H         1 TRP         0.0541
     73 H18       -12.4799   22.9427    2.3076 H         1 TRP         0.0510
     74 H19       -11.1322   23.1385    4.3654 H         1 TRP         0.0530
     75 H20        -9.9581   18.3657    0.3058 H         1 TRP         0.1884
     76 H21       -11.0023   21.0908   -0.0117 H         1 TRP         0.0815
     77 H22        -9.4362   20.7125    1.7774 H         1 TRP         0.0397
     78 H23        -8.6447   21.7314    0.5275 H         1 TRP         0.0397
     79 H24        -6.8565   20.3833   -1.1189 H         1 TRP         0.0795
     80 H25        -5.2341   18.4348   -0.5335 H         1 TRP         0.2216
     81 H26        -9.1977   18.7326    3.1057 H         1 TRP         0.0540
     82 H27        -5.0560   16.4711    1.4803 H         1 TRP         0.0541
     83 H28        -8.2337   16.8170    4.3334 H         1 TRP         0.0510
     84 H29        -6.1827   15.7185    3.5445 H         1 TRP         0.0530
     85 H30       -10.4473   18.9094   -2.2872 H         1 TRP         0.1877
     86 H31       -10.2039   21.0819   -4.2049 H         1 TRP         0.0741
     87 H32        -7.8754   20.6238   -4.0397 H         1 TRP         0.0390
     88 H33        -8.4994   20.0385   -5.6191 H         1 TRP         0.0390
     89 H34        -8.4744   17.8572   -2.3686 H         1 TRP         0.0795
     90 H35        -6.8636   15.8658   -2.7361 H         1 TRP         0.2216
     91 H36        -6.6281   19.2042   -6.9593 H         1 TRP         0.0540
     92 H37        -5.0393   15.0280   -4.7083 H         1 TRP         0.0541
     93 H38        -4.8776   17.7892   -8.0011 H         1 TRP         0.0510
     94 H39        -4.1223   15.6997   -6.9041 H         1 TRP         0.0530
@<TRIPOS>BOND
     1    1    2 2  
     2    1    3 1  
     3    1    4 am 
     4    4    5 1  
     5    5    6 1  
     6    5    8 1  
     7    6    7 2  
     8    6   13 am 
     9    8    9 1  
    10    9   10 1  
    11   10   11 ar 
    12   10   12 ar 
    13   13   14 1  
    14   14   15 1  
    15   14   17 1  
    16   15   16 2  
    17   15   27 am 
    18   17   18 1  
    19   18   19 2  
    20   18   20 1  
    21   19   21 1  
    22   20   22 ar 
    23   20   23 ar 
    24   21   22 1  
    25   22   24 ar 
    26   23   25 ar 
    27   24   26 ar 
    28   25   26 ar 
    29   27   28 1  
    30   28   29 1  
    31   28   31 1  
    32   29   30 2  
    33   29   41 am 
    34   31   32 1  
    35   32   33 2  
    36   32   34 1  
    37   33   35 1  
    38   34   36 ar 
    39   34   37 ar 
    40   35   36 1  
    41   36   38 ar 
    42   37   39 ar 
    43   38   40 ar 
    44   39   40 ar 
    45   41   42 1  
    46   42   43 1  
    47   42   45 1  
    48   43   44 ar 
    49   43   55 ar 
    50   45   46 1  
    51   46   47 2  
    52   46   48 1  
    53   47   49 1  
    54   48   50 ar 
    55   48   51 ar 
    56   49   50 1  
    57   50   52 ar 
    58   51   53 ar 
    59   52   54 ar 
    60   53   54 ar 
    61    3   56 1  
    62    3   57 1  
    63    3   58 1  
    64    4   59 1  
    65    5   60 1  
    66    8   61 1  
    67    8   62 1  
    68    9   63 1  
    69    9   64 1  
    70   13   65 1  
    71   14   66 1  
    72   17   67 1  
    73   17   68 1  
    74   19   69 1  
    75   21   70 1  
    76   23   71 1  
    77   24   72 1  
    78   25   73 1  
    79   26   74 1  
    80   27   75 1  
    81   28   76 1  
    82   31   77 1  
    83   31   78 1  
    84   33   79 1  
    85   35   80 1  
    86   37   81 1  
    87   38   82 1  
    88   39   83 1  
    89   40   84 1  
    90   41   85 1  
    91   42   86 1  
    92   45   87 1  
    93   45   88 1  
    94   47   89 1  
    95   49   90 1  
    96   51   91 1  
    97   52   92 1  
    98   53   93 1  
    99   54   94 1  
@<TRIPOS>SUBSTRUCTURE
     1 ACE         1

