### 
### Created by X-TOOL on Fri Nov  2 10:13:49 2018
### 

@<TRIPOS>MOLECULE
5x5g_ligand
   40    40     1     0     0
SMALL
GAST_HUCK


@<TRIPOS>ATOM
      1 C1          7.1150   -1.8890   21.3510 C.2       1 OP0         0.1743
      2 O8          7.8930   -2.6320   21.9540 O.2       1 OP0        -0.3828
      3 N14         5.8760   -1.9160   21.5210 N.am      1 OP0        -0.2479
      4 C2          5.2160   -2.8720   22.3910 C.3       1 OP0         0.1359
      5 C3          4.1720   -3.5780   21.6030 C.2       1 OP0         0.2250
      6 N15         3.1170   -3.9920   22.2880 N.am      1 OP0        -0.1592
      7 O9          4.3860   -3.7880   20.3930 O.2       1 OP0        -0.3944
      8 C7          5.0460   -0.8590   21.0320 C.3       1 OP0         0.0807
      9 C6          4.7240    0.0060   22.2220 C.3       1 OP0         0.0316
     10 C5          3.9260   -0.8360   23.2160 C.3       1 OP0        -0.0025
     11 C4          4.6810   -2.1130   23.6040 C.3       1 OP0        -0.0069
     12 N16         5.9520    0.6740   22.7560 N.4       1 OP0         0.4138
     13 S17         7.8930    0.4110   24.1200 S.o2      1 OP0        -0.0327
     14 O10         6.4630    0.0620   23.8250 O.3       1 OP0        -0.2010
     15 O13         8.5490   -0.4560   25.0390 O.co2     1 OP0        -0.4578
     16 O12         7.8040    1.6750   24.7780 O.co2     1 OP0        -0.4578
     17 O11         8.6670    0.4400   22.7120 O.co2     1 OP0        -0.4578
     18 N21         2.1830   -7.9990   20.4900 N.4       1 OP0         0.2202
     19 C22         2.9900   -7.1530   21.4080 C.3       1 OP0        -0.0085
     20 C23         2.1610   -6.1580   22.2220 C.3       1 OP0         0.1187
     21 O24         2.2600   -4.8300   21.7060 O.3       1 OP0        -0.2512
     22 H1          7.5257   -1.1763   20.6374 H         1 OP0         0.1547
     23 H2          5.9461   -3.6162   22.7420 H         1 OP0         0.0803
     24 H3          2.9660   -3.6809   23.2263 H         1 OP0         0.2220
     25 H4          4.1224   -1.2691   20.5975 H         1 OP0         0.0583
     26 H5          5.5820   -0.2747   20.2696 H         1 OP0         0.0583
     27 H6          4.0586    0.8132   21.8818 H         1 OP0         0.0882
     28 H7          2.9651   -1.1140   22.7585 H         1 OP0         0.0323
     29 H8          3.7420   -0.2403   24.1222 H         1 OP0         0.0323
     30 H9          5.5284   -1.8386   24.2495 H         1 OP0         0.0314
     31 H10         3.9964   -2.7721   24.1580 H         1 OP0         0.0314
     32 H11         5.7161    1.6201   23.0114 H         1 OP0         0.2382
     33 H12         6.6510    0.6862   22.0298 H         1 OP0         0.2382
     34 H13         2.7921   -8.6269   19.9892 H         1 OP0         0.1995
     35 H14         1.6938   -7.4107   19.8337 H         1 OP0         0.1995
     36 H15         1.5159   -8.5331   21.0245 H         1 OP0         0.1995
     37 H16         3.7184   -6.5879   20.8080 H         1 OP0         0.0837
     38 H17         3.5243   -7.8127   22.1075 H         1 OP0         0.0837
     39 H18         2.5209   -6.1627   23.2614 H         1 OP0         0.0644
     40 H19         1.1067   -6.4706   22.1976 H         1 OP0         0.0644
@<TRIPOS>BOND
     1    1    2 2  
     2    3    1 am 
     3    4    3 1  
     4    3    8 1  
     5    5    4 1  
     6    4   11 1  
     7    6    5 am 
     8    5    7 2  
     9   21    6 1  
    10    8    9 1  
    11   10    9 1  
    12    9   12 1  
    13   11   10 1  
    14   12   14 1  
    15   14   13 1  
    16   13   15 ar 
    17   13   16 ar 
    18   13   17 ar 
    19   19   18 1  
    20   20   19 1  
    21   20   21 1  
    22    1   22 1  
    23    4   23 1  
    24    6   24 1  
    25    8   25 1  
    26    8   26 1  
    27    9   27 1  
    28   10   28 1  
    29   10   29 1  
    30   11   30 1  
    31   11   31 1  
    32   12   32 1  
    33   12   33 1  
    34   18   34 1  
    35   18   35 1  
    36   18   36 1  
    37   19   37 1  
    38   19   38 1  
    39   20   39 1  
    40   20   40 1  
@<TRIPOS>SUBSTRUCTURE
     1 OP0         1

