### 
### Created by X-TOOL on Mon Sep 10 21:13:32 2018
### 

@<TRIPOS>MOLECULE
5x5o_ligand
   45    48     1     0     0
SMALL
GAST_HUCK


@<TRIPOS>ATOM
      1 CAA        15.2670    1.9340    2.2820 C.3       1 7Z0         0.0592
      2 OAU        14.5870    1.8390    3.5360 O.3       1 7Z0        -0.3119
      3 CBC        13.2300    1.9160    3.4050 C.2       1 7Z0         0.1728
      4 CBE        12.3240    2.0050    4.3680 C.ar      1 7Z0         0.0725
      5 CAP        12.4190    2.0420    5.7040 C.ar      1 7Z0        -0.0264
      6 NAR        12.6020    1.9430    2.2240 N.2       1 7Z0        -0.1916
      7 NAT        11.3640    2.0410    2.4130 N.pl3     1 7Z0        -0.2135
      8 CBD        11.1440    2.0910    3.7300 C.ar      1 7Z0         0.1552
      9 NAQ        10.0010    2.1910    4.4120 N.ar      1 7Z0        -0.2775
     10 CAN        10.0230    2.2110    5.7930 C.ar      1 7Z0         0.0153
     11 CAW        11.2520    2.1430    6.4550 C.ar      1 7Z0         0.0410
     12 CAG        11.1520    2.1900    7.9200 C.1       1 7Z0        -0.0666
     13 CAH        11.0190    2.2290    9.1000 C.1       1 7Z0        -0.0696
     14 CBB        10.8600    2.2810   10.5620 C.ar      1 7Z0         0.0763
     15 CAY        10.9550    3.5060   11.2110 C.ar      1 7Z0         0.1615
     16 FAE        11.1670    4.5290   10.5560 F         1 7Z0        -0.1949
     17 CAX        10.6410    1.1290   11.3120 C.ar      1 7Z0         0.1286
     18 FAD        10.5540   -0.0900   10.6850 F         1 7Z0        -0.1963
     19 CAL        10.4950    1.2150   12.6900 C.ar      1 7Z0        -0.0461
     20 CAM        10.5820    2.4580   13.3350 C.ar      1 7Z0        -0.0480
     21 CBA        10.8150    3.6070   12.5850 C.ar      1 7Z0         0.0937
     22 NAS        10.9340    4.8580   13.0710 N.am      1 7Z0        -0.1888
     23 SBF        10.7390    5.1420   14.6520 S.o2      1 7Z0         0.0887
     24 OAB        11.1250    6.5850   14.9310 O.2       1 7Z0        -0.1449
     25 OAC        11.6100    4.2340   15.4820 O.2       1 7Z0        -0.1449
     26 CAZ         9.0370    4.9940   15.1490 C.ar      1 7Z0         0.1165
     27 CAO         8.6880    4.5550   16.4180 C.ar      1 7Z0        -0.0249
     28 CAV         7.3520    4.4710   16.7960 C.ar      1 7Z0         0.0149
     29 BR          6.9300    3.8660   18.5060 Br        1 7Z0        -0.0498
     30 CAJ         6.3310    4.8390   15.9260 C.ar      1 7Z0        -0.0520
     31 CAI         6.6860    5.2910   14.6640 C.ar      1 7Z0        -0.0571
     32 CAK         8.0240    5.3750   14.2870 C.ar      1 7Z0        -0.0318
     33 H1         16.3524    1.8663    2.4474 H         1 7Z0         0.0575
     34 H2         15.0279    2.8970    1.8072 H         1 7Z0         0.0575
     35 H3         14.9440    1.1118    1.6265 H         1 7Z0         0.0575
     36 H4         13.3865    1.9942    6.1905 H         1 7Z0         0.0745
     37 H5         10.6424    2.0767    1.6789 H         1 7Z0         0.2398
     38 H6          9.0991    2.2786    6.3559 H         1 7Z0         0.0814
     39 H7         10.3129    0.3177   13.2703 H         1 7Z0         0.0529
     40 H8         10.4684    2.5230   14.4111 H         1 7Z0         0.0463
     41 H9         11.1438    5.6146   12.4517 H         1 7Z0         0.2133
     42 H10         9.4637    4.2749   17.1215 H         1 7Z0         0.0664
     43 H11         5.2910    4.7745   16.2250 H         1 7Z0         0.0644
     44 H12         5.9127    5.5825   13.9625 H         1 7Z0         0.0625
     45 H13         8.2765    5.7457   13.3001 H         1 7Z0         0.0661
@<TRIPOS>BOND
     1    1    2 1  
     2    2    3 1  
     3    3    4 1  
     4    3    6 2  
     5    4    5 ar 
     6    4    8 ar 
     7    5   11 ar 
     8    6    7 1  
     9    7    8 1  
    10    8    9 ar 
    11    9   10 ar 
    12   10   11 ar 
    13   11   12 1  
    14   12   13 3  
    15   13   14 1  
    16   14   15 ar 
    17   14   17 ar 
    18   15   16 1  
    19   15   21 ar 
    20   17   18 1  
    21   17   19 ar 
    22   19   20 ar 
    23   20   21 ar 
    24   21   22 1  
    25   22   23 am 
    26   23   24 2  
    27   23   25 2  
    28   23   26 1  
    29   26   27 ar 
    30   26   32 ar 
    31   27   28 ar 
    32   28   29 1  
    33   28   30 ar 
    34   30   31 ar 
    35   31   32 ar 
    36    1   33 1  
    37    1   34 1  
    38    1   35 1  
    39    5   36 1  
    40    7   37 1  
    41   10   38 1  
    42   19   39 1  
    43   20   40 1  
    44   22   41 1  
    45   27   42 1  
    46   30   43 1  
    47   31   44 1  
    48   32   45 1  
@<TRIPOS>SUBSTRUCTURE
     1 7Z0         1

