### 
### Created by X-TOOL on Mon Sep 10 21:13:33 2018
### 

@<TRIPOS>MOLECULE
5x62_ligand
   46    48     1     0     0
SMALL
GAST_HUCK


@<TRIPOS>ATOM
      1 N          18.5120   40.7340  197.4130 N.4       1 SAH         0.2327
      2 CA         18.7030   39.3370  197.8980 C.3       1 SAH         0.0291
      3 CB         17.6150   38.9110  198.8880 C.3       1 SAH         0.0114
      4 CG         16.2190   38.9100  198.2720 C.3       1 SAH         0.0005
      5 SD         15.0000   38.4720  199.4860 S.3       1 SAH        -0.1578
      6 C          18.7570   38.3820  196.7350 C.2       1 SAH         0.0844
      7 O          18.4360   38.8160  195.6060 O.co2     1 SAH        -0.5643
      8 OXT        19.1240   37.2000  196.9320 O.co2     1 SAH        -0.5643
      9 C5'        14.4370   39.9620  200.2640 C.3       1 SAH         0.0226
     10 C4'        15.4740   40.5360  201.2380 C.3       1 SAH         0.0995
     11 O4'        15.1190   41.8630  201.6740 O.3       1 SAH        -0.3383
     12 C3'        15.5330   39.7080  202.5060 C.3       1 SAH         0.1132
     13 O3'        16.9140   39.6090  202.8530 O.3       1 SAH        -0.3864
     14 C2'        14.7680   40.5200  203.5390 C.3       1 SAH         0.1385
     15 O2'        15.2180   40.2600  204.8700 O.3       1 SAH        -0.3836
     16 C1'        15.1300   41.9240  203.1040 C.3       1 SAH         0.2009
     17 N9         14.1740   42.9580  203.5570 N.pl3     1 SAH        -0.1919
     18 C8         12.8310   42.8670  203.5200 C.2       1 SAH         0.1123
     19 N7         12.2580   44.0050  203.9800 N.2       1 SAH        -0.2958
     20 C5         13.2560   44.8470  204.3180 C.ar      1 SAH         0.1045
     21 C6         13.3410   46.2230  204.8620 C.ar      1 SAH         0.1298
     22 N6         12.2020   46.8900  205.1480 N.pl3     1 SAH        -0.3152
     23 N1         14.5640   46.7630  205.0690 N.ar      1 SAH        -0.2698
     24 C2         15.6860   46.0690  204.7850 C.ar      1 SAH         0.0533
     25 N3         15.6820   44.8090  204.2880 N.ar      1 SAH        -0.2714
     26 C4         14.5170   44.1620  204.0310 C.ar      1 SAH         0.1613
     27 H1         18.4777   41.3615  198.2011 H         1 SAH         0.2010
     28 H2         17.6484   40.7954  196.8969 H         1 SAH         0.2010
     29 H3         19.2808   40.9895  196.8132 H         1 SAH         0.2010
     30 H4         19.6690   39.2931  198.4222 H         1 SAH         0.1024
     31 H5         17.6225   39.6078  199.7391 H         1 SAH         0.0347
     32 H6         17.8423   37.8952  199.2437 H         1 SAH         0.0347
     33 H7         16.1876   38.1809  197.4490 H         1 SAH         0.0379
     34 H8         15.9956   39.9137  197.8814 H         1 SAH         0.0379
     35 H9         13.5126   39.7442  200.8190 H         1 SAH         0.0402
     36 H10        14.2296   40.7112  199.4858 H         1 SAH         0.0402
     37 H11        16.4576   40.5506  200.7457 H         1 SAH         0.0632
     38 H12        15.0876   38.7110  202.3734 H         1 SAH         0.0647
     39 H13        17.2666   40.4795  202.9960 H         1 SAH         0.2100
     40 H14        13.6849   40.3388  203.4757 H         1 SAH         0.0676
     41 H15        16.1387   40.4830  204.9410 H         1 SAH         0.2101
     42 H16        16.1329   42.1817  203.4752 H         1 SAH         0.0996
     43 H17        12.2800   41.9962  203.1678 H         1 SAH         0.1349
     44 H18        12.2467   47.8469  205.5266 H         1 SAH         0.1820
     45 H19        11.2886   46.4418  204.9876 H         1 SAH         0.1820
     46 H20        16.6427   46.5460  204.9644 H         1 SAH         0.0996
@<TRIPOS>BOND
     1    1    2 1  
     2    2    3 1  
     3    2    6 1  
     4    3    4 1  
     5    4    5 1  
     6    5    9 1  
     7    6    7 ar 
     8    6    8 ar 
     9    9   10 1  
    10   10   11 1  
    11   10   12 1  
    12   11   16 1  
    13   12   13 1  
    14   12   14 1  
    15   14   15 1  
    16   14   16 1  
    17   16   17 1  
    18   17   18 1  
    19   17   26 1  
    20   18   19 2  
    21   19   20 1  
    22   20   21 ar 
    23   20   26 ar 
    24   21   22 1  
    25   21   23 ar 
    26   23   24 ar 
    27   24   25 ar 
    28   25   26 ar 
    29    1   27 1  
    30    1   28 1  
    31    1   29 1  
    32    2   30 1  
    33    3   31 1  
    34    3   32 1  
    35    4   33 1  
    36    4   34 1  
    37    9   35 1  
    38    9   36 1  
    39   10   37 1  
    40   12   38 1  
    41   13   39 1  
    42   14   40 1  
    43   15   41 1  
    44   16   42 1  
    45   18   43 1  
    46   22   44 1  
    47   22   45 1  
    48   24   46 1  
@<TRIPOS>SUBSTRUCTURE
     1 SAH         1

