### 
### Created by X-TOOL on Mon Sep 10 21:13:32 2018
### 

@<TRIPOS>MOLECULE
5x72_ligand
   39    42     1     0     0
SMALL
GAST_HUCK


@<TRIPOS>ATOM
      1 FAX       -19.2770   17.7260  131.5860 F         1 P59        -0.1889
      2 CAS       -19.7520   16.7290  130.9550 C.ar      1 P59         0.1378
      3 CAT       -20.3050   15.6620  131.6530 C.ar      1 P59        -0.0347
      4 CAU       -20.8050   14.5510  130.9970 C.ar      1 P59        -0.0706
      5 CAV       -20.7720   14.5400  129.6030 C.ar      1 P59        -0.0724
      6 CAW       -20.1880   15.6110  128.8910 C.ar      1 P59        -0.0572
      7 CAL       -19.6910   16.7450  129.5680 C.ar      1 P59         0.0442
      8 CAH       -19.0970   17.8720  128.9530 C.3       1 P59         0.1807
      9 NAG       -20.0250   19.0360  128.9280 N.pl3     1 P59        -0.2810
     10 CAE       -20.9450   19.1310  127.8990 C.ar      1 P59         0.0637
     11 CAD       -22.0410   19.9510  128.0480 C.ar      1 P59        -0.0379
     12 CAC       -22.9850   20.0740  127.0240 C.ar      1 P59        -0.0691
     13 CAB       -22.7770   19.3690  125.8630 C.ar      1 P59        -0.0693
     14 CAA       -21.6590   18.5290  125.7050 C.ar      1 P59        -0.0529
     15 CAF       -20.7580   18.3790  126.7400 C.ar      1 P59         0.0736
     16 CAJ       -19.5790   17.6490  126.5670 C.2       1 P59         0.2303
     17 OAM       -19.1750   17.3440  125.4290 O.2       1 P59        -0.3801
     18 NAI       -18.7130   17.4950  127.5780 N.am      1 P59        -0.1869
     19 CAK       -17.4670   17.0590  127.3330 C.ar      1 P59         0.0728
     20 CAN       -16.5140   18.0570  127.0550 C.ar      1 P59        -0.0408
     21 CAO       -15.1850   17.7610  126.8160 C.ar      1 P59        -0.0755
     22 CAP       -14.7850   16.4410  126.7950 C.ar      1 P59        -0.0772
     23 CAQ       -15.7200   15.4250  127.0300 C.ar      1 P59        -0.0755
     24 CAR       -17.0730   15.7330  127.3050 C.ar      1 P59        -0.0408
     25 H1        -20.3455   15.7010  132.7355 H         1 P59         0.0585
     26 H2        -21.2110   13.7126  131.5513 H         1 P59         0.0549
     27 H3        -21.1978   13.7030  129.0616 H         1 P59         0.0565
     28 H4        -20.1207   15.5612  127.8102 H         1 P59         0.0547
     29 H5        -18.1959   18.1544  129.5171 H         1 P59         0.1051
     30 H6        -19.9829   19.7567  129.6627 H         1 P59         0.1834
     31 H7        -22.1734   20.5071  128.9690 H         1 P59         0.0528
     32 H8        -23.8565   20.7077  127.1426 H         1 P59         0.0619
     33 H9        -23.4895   19.4619  125.0513 H         1 P59         0.0519
     34 H10       -21.5055   18.0002  124.7713 H         1 P59         0.0634
     35 H11       -16.8330   19.0926  127.0274 H         1 P59         0.0503
     36 H12       -14.4670   18.5554  126.6474 H         1 P59         0.0577
     37 H13       -13.7491   16.1905  126.5970 H         1 P59         0.0488
     38 H14       -15.4026   14.3889  127.0008 H         1 P59         0.0577
     39 H15       -17.7904   14.9419  127.4910 H         1 P59         0.0503
@<TRIPOS>BOND
     1    1    2 1  
     2    2    3 ar 
     3    2    7 ar 
     4    3    4 ar 
     5    4    5 ar 
     6    5    6 ar 
     7    6    7 ar 
     8    7    8 1  
     9    8    9 1  
    10    8   18 1  
    11    9   10 1  
    12   10   11 ar 
    13   10   15 ar 
    14   11   12 ar 
    15   12   13 ar 
    16   13   14 ar 
    17   14   15 ar 
    18   15   16 1  
    19   16   17 2  
    20   16   18 am 
    21   18   19 1  
    22   19   20 ar 
    23   19   24 ar 
    24   20   21 ar 
    25   21   22 ar 
    26   22   23 ar 
    27   23   24 ar 
    28    3   25 1  
    29    4   26 1  
    30    5   27 1  
    31    6   28 1  
    32    8   29 1  
    33    9   30 1  
    34   11   31 1  
    35   12   32 1  
    36   13   33 1  
    37   14   34 1  
    38   20   35 1  
    39   21   36 1  
    40   22   37 1  
    41   23   38 1  
    42   24   39 1  
@<TRIPOS>SUBSTRUCTURE
     1 P59         1

