### 
### Created by X-TOOL on Mon Sep 10 21:13:33 2018
### 

@<TRIPOS>MOLECULE
5x73_ligand
   39    42     1     0     0
SMALL
GAST_HUCK


@<TRIPOS>ATOM
      1 FAX        19.2310  -17.7130   16.0750 F         1 P59        -0.1889
      2 CAS        19.7040  -16.6340   15.3500 C.ar      1 P59         0.1378
      3 CAT        20.3420  -15.5520   15.9890 C.ar      1 P59        -0.0347
      4 CAU        20.8230  -14.4490   15.2780 C.ar      1 P59        -0.0706
      5 CAV        20.6690  -14.4590   13.8900 C.ar      1 P59        -0.0724
      6 CAW        20.0250  -15.5470   13.2500 C.ar      1 P59        -0.0572
      7 CAL        19.5530  -16.6600   13.9790 C.ar      1 P59         0.0442
      8 CAH        18.8960  -17.7890   13.4360 C.3       1 P59         0.1807
      9 NAG        19.8330  -18.9040   13.3870 N.pl3     1 P59        -0.2810
     10 CAE        20.7070  -18.9780   12.3310 C.ar      1 P59         0.0637
     11 CAD        21.8410  -19.7170   12.4800 C.ar      1 P59        -0.0379
     12 CAC        22.7510  -19.8140   11.4620 C.ar      1 P59        -0.0691
     13 CAB        22.4750  -19.1760   10.2820 C.ar      1 P59        -0.0693
     14 CAA        21.3030  -18.4580   10.1380 C.ar      1 P59        -0.0529
     15 CAF        20.4290  -18.3110   11.1820 C.ar      1 P59         0.0736
     16 CAJ        19.2010  -17.6610   11.0480 C.2       1 P59         0.2303
     17 OAM        18.7170  -17.4400    9.9530 O.2       1 P59        -0.3801
     18 NAI        18.3850  -17.5160   12.0900 N.am      1 P59        -0.1869
     19 CAK        17.1200  -17.1380   11.9540 C.ar      1 P59         0.0728
     20 CAN        16.2120  -18.1650   11.7810 C.ar      1 P59        -0.0408
     21 CAO        14.8630  -17.9310   11.6350 C.ar      1 P59        -0.0755
     22 CAP        14.4210  -16.6260   11.6470 C.ar      1 P59        -0.0772
     23 CAQ        15.3270  -15.5770   11.7910 C.ar      1 P59        -0.0755
     24 CAR        16.6930  -15.8300   11.9540 C.ar      1 P59        -0.0408
     25 H1         20.4635  -15.5760   17.0659 H         1 P59         0.0585
     26 H2         21.2979  -13.6168   15.7850 H         1 P59         0.0549
     27 H3         21.0438  -13.6308   13.2996 H         1 P59         0.0565
     28 H4         19.8915  -15.5241   12.1745 H         1 P59         0.0547
     29 H5         18.0504  -18.0552   14.0871 H         1 P59         0.1051
     30 H6         19.8394  -19.6199   14.1275 H         1 P59         0.1834
     31 H7         22.0251  -20.2340   13.4148 H         1 P59         0.0528
     32 H8         23.6664  -20.3811   11.5866 H         1 P59         0.0619
     33 H9         23.1778  -19.2344    9.4587 H         1 P59         0.0519
     34 H10        21.0714  -18.0031    9.1817 H         1 P59         0.0634
     35 H11        16.5730  -19.1869   11.7595 H         1 P59         0.0503
     36 H12        14.1664  -18.7526   11.5137 H         1 P59         0.0577
     37 H13        13.3629  -16.4142   11.5439 H         1 P59         0.0488
     38 H14        14.9693  -14.5538   11.7765 H         1 P59         0.0577
     39 H15        17.3978  -15.0157   12.0773 H         1 P59         0.0503
@<TRIPOS>BOND
     1    1    2 1  
     2    2    3 ar 
     3    2    7 ar 
     4    3    4 ar 
     5    4    5 ar 
     6    5    6 ar 
     7    6    7 ar 
     8    7    8 1  
     9    8    9 1  
    10    8   18 1  
    11    9   10 1  
    12   10   11 ar 
    13   10   15 ar 
    14   11   12 ar 
    15   12   13 ar 
    16   13   14 ar 
    17   14   15 ar 
    18   15   16 1  
    19   16   17 2  
    20   16   18 am 
    21   18   19 1  
    22   19   20 ar 
    23   19   24 ar 
    24   20   21 ar 
    25   21   22 ar 
    26   22   23 ar 
    27   23   24 ar 
    28    3   25 1  
    29    4   26 1  
    30    5   27 1  
    31    6   28 1  
    32    8   29 1  
    33    9   30 1  
    34   11   31 1  
    35   12   32 1  
    36   13   33 1  
    37   14   34 1  
    38   20   35 1  
    39   21   36 1  
    40   22   37 1  
    41   23   38 1  
    42   24   39 1  
@<TRIPOS>SUBSTRUCTURE
     1 P59         1

