### 
### Created by X-TOOL on Mon Sep 10 21:13:33 2018
### 

@<TRIPOS>MOLECULE
5x79_ligand
   51    50     1     0     0
SMALL
GAST_HUCK


@<TRIPOS>ATOM
      1 C01        14.2520    9.9740   24.2640 C.3       1 GF5         0.0295
      2 C02        12.8500    9.3280   24.3050 C.3       1 GF5         0.0118
      3 C03        12.5530    8.6860   25.6670 C.3       1 GF5         0.0426
      4 C04        11.0970    8.2040   25.7800 C.2       1 GF5         0.1784
      5 C05         9.3240    6.9910   27.1280 C.3       1 GF5         0.1396
      6 C06         9.2850    5.4670   27.3400 C.3       1 GF5         0.0341
      7 C07         9.7940    4.5430   24.5470 C.3       1 GF5         0.0130
      8 C08         8.7120    3.4490   24.5520 C.3       1 GF5         0.0720
      9 C09         8.8900    7.5960   28.4450 C.2       1 GF5         0.2026
     10 C10         7.0710    8.2950   29.9480 C.3       1 GF5         0.0815
     11 C11         6.0690    9.4130   29.7380 C.3       1 GF5         0.1736
     12 C12        15.2720    8.8310   24.2340 C.3       1 GF5         0.1977
     13 N01        14.3190   10.8860   23.1100 N.4       1 GF5         0.2244
     14 N02        10.6740    7.4720   26.9590 N.am      1 GF5        -0.2648
     15 N03         7.4750    7.7530   28.6790 N.am      1 GF5        -0.2802
     16 O01        10.3420    8.4120   24.8930 O.2       1 GF5        -0.3969
     17 O02         9.7210    1.6250   23.2020 O.2       1 GF5        -0.1771
     18 O03         9.3760    1.0860   25.9020 O.2       1 GF5        -0.1771
     19 O04         9.7100    7.9010   29.2630 O.2       1 GF5        -0.3945
     20 O05         6.6720   10.3440   28.8830 O.3       1 GF5        -0.3655
     21 O06         5.7870    9.9130   31.0060 O.3       1 GF5        -0.3655
     22 O07        16.1270    8.8410   23.1320 O.3       1 GF5        -0.3629
     23 O08        15.9160    8.6020   25.4570 O.3       1 GF5        -0.3629
     24 S01        10.4620    4.6480   26.2410 S.3       1 GF5        -0.1544
     25 S02         8.9860    1.8540   24.5670 S.o2      1 GF5        -0.0404
     26 H1         14.4154   10.5641   25.1778 H         1 GF5         0.0902
     27 H2         12.7932    8.5526   23.5269 H         1 GF5         0.0346
     28 H3         12.0956   10.1034   24.1057 H         1 GF5         0.0346
     29 H4         12.7422    9.4280   26.4567 H         1 GF5         0.0504
     30 H5         13.2226    7.8243   25.8055 H         1 GF5         0.0504
     31 H6          8.6804    7.2916   26.2881 H         1 GF5         0.0808
     32 H7          8.2714    5.0971   27.1259 H         1 GF5         0.0424
     33 H8          9.5455    5.2395   28.3842 H         1 GF5         0.0424
     34 H9          9.3533    5.5077   24.2552 H         1 GF5         0.0392
     35 H10        10.5953    4.2775   23.8417 H         1 GF5         0.0392
     36 H11         8.1100    3.6318   23.6497 H         1 GF5         0.0505
     37 H12         8.1025    3.6474   25.4459 H         1 GF5         0.0505
     38 H13         6.6094    7.5008   30.5531 H         1 GF5         0.0570
     39 H14         7.9532    8.6901   30.4730 H         1 GF5         0.0570
     40 H15         5.1453    9.0352   29.2754 H         1 GF5         0.0926
     41 H16        14.6570    7.9314   24.0840 H         1 GF5         0.0965
     42 H17        13.6186   11.6043   23.2083 H         1 GF5         0.1999
     43 H18        14.1518   10.3676   22.2619 H         1 GF5         0.1999
     44 H19        15.2323   11.3106   23.0698 H         1 GF5         0.1999
     45 H20        11.3425    7.2942   27.6811 H         1 GF5         0.1883
     46 H21         6.8018    7.4950   27.9860 H         1 GF5         0.1853
     47 H22         6.0940   11.0894   28.7701 H         1 GF5         0.2125
     48 H23         5.1939   10.6511   30.9294 H         1 GF5         0.2125
     49 H24        16.5647    8.0006   23.0646 H         1 GF5         0.2127
     50 H25        15.2745    8.6090   26.1576 H         1 GF5         0.2127
     51 H26         8.0733    1.4578   24.4056 H         1 GF5         0.2091
@<TRIPOS>BOND
     1    2    1 1  
     2    1   12 1  
     3    1   13 1  
     4    3    2 1  
     5    4    3 1  
     6   14    4 am 
     7    4   16 2  
     8    5    6 1  
     9    9    5 1  
    10    5   14 1  
    11    6   24 1  
    12    7    8 1  
    13   24    7 1  
    14    8   25 1  
    15   15    9 am 
    16    9   19 2  
    17   10   11 1  
    18   10   15 1  
    19   11   20 1  
    20   11   21 1  
    21   12   22 1  
    22   12   23 1  
    23   25   17 2  
    24   25   18 2  
    25    1   26 1  
    26    2   27 1  
    27    2   28 1  
    28    3   29 1  
    29    3   30 1  
    30    5   31 1  
    31    6   32 1  
    32    6   33 1  
    33    7   34 1  
    34    7   35 1  
    35    8   36 1  
    36    8   37 1  
    37   10   38 1  
    38   10   39 1  
    39   11   40 1  
    40   12   41 1  
    41   13   42 1  
    42   13   43 1  
    43   13   44 1  
    44   14   45 1  
    45   15   46 1  
    46   20   47 1  
    47   21   48 1  
    48   22   49 1  
    49   23   50 1  
    50   25   51 1  
@<TRIPOS>SUBSTRUCTURE
     1 GF5         1

