### 
### Created by X-TOOL on Mon Sep 10 21:13:31 2018
### 

@<TRIPOS>MOLECULE
5x8i_ligand
   47    52     1     0     0
SMALL
GAST_HUCK


@<TRIPOS>ATOM
      1 F         -21.2950   14.5190  -17.7690 F         1 SQZ        -0.1893
      2 C5        -21.7520   15.7300  -17.6690 C.ar      1 SQZ         0.1248
      3 C4        -21.0200   16.6890  -17.0040 C.ar      1 SQZ        -0.0348
      4 C3        -21.4700   17.9580  -16.8570 C.ar      1 SQZ        -0.0590
      5 C6        -22.9430   16.0700  -18.2560 C.ar      1 SQZ        -0.0348
      6 C7        -23.3830   17.3530  -18.1280 C.ar      1 SQZ        -0.0590
      7 C2        -22.6530   18.2760  -17.4450 C.ar      1 SQZ        -0.0116
      8 C1        -23.1410   19.6150  -17.3200 C.3       1 SQZ         0.1189
      9 C         -23.7880   19.8290  -15.9760 C.3       1 SQZ        -0.0224
     10 N         -23.8710   20.2140  -18.4660 N.pl3     1 SQZ        -0.1374
     11 C9        -23.6050   20.4580  -19.7150 C.ar      1 SQZ         0.1451
     12 C10       -22.5010   20.2610  -20.5080 C.ar      1 SQZ         0.0383
     13 C22       -22.6130   20.7590  -21.8840 C.ar      1 SQZ         0.0377
     14 N4        -23.7050   21.3630  -22.3070 N.ar      1 SQZ        -0.3075
     15 C23       -24.7650   21.5630  -21.5710 C.ar      1 SQZ         0.0201
     16 C8        -24.7740   21.1610  -20.2710 C.ar      1 SQZ         0.1051
     17 N2        -25.6530   21.2200  -19.3120 N.2       1 SQZ        -0.1936
     18 N1        -25.1390   20.6460  -18.1900 N.2       1 SQZ        -0.0698
     19 C21       -21.5580   20.6050  -22.7340 C.ar      1 SQZ        -0.0444
     20 C20       -20.4230   19.9670  -22.3390 C.ar      1 SQZ        -0.0530
     21 C12       -20.2920   19.5270  -21.0350 C.ar      1 SQZ        -0.0210
     22 C11       -21.3260   19.6550  -20.1400 C.ar      1 SQZ        -0.0413
     23 C13       -19.0910   18.7800  -20.6980 C.ar      1 SQZ        -0.0288
     24 C19       -17.9160   18.9930  -21.3410 C.ar      1 SQZ        -0.0629
     25 C18       -16.8130   18.2380  -21.0550 C.ar      1 SQZ        -0.0255
     26 C17       -16.8900   17.2360  -20.1610 C.ar      1 SQZ         0.1476
     27 C15       -18.1250   16.9720  -19.4880 C.ar      1 SQZ         0.0520
     28 C14       -19.2180   17.7330  -19.7970 C.ar      1 SQZ        -0.0488
     29 O         -15.9620   16.4440  -19.7740 O.3       1 SQZ        -0.2209
     30 C16       -16.5400   15.6310  -18.8890 C.2       1 SQZ         0.1697
     31 N3        -17.8070   15.9640  -18.7160 N.2       1 SQZ        -0.2871
     32 H1        -20.0564   16.4203  -16.5865 H         1 SQZ         0.0587
     33 H2        -20.9076   18.6922  -16.2916 H         1 SQZ         0.0548
     34 H3        -23.5200   15.3369  -18.8079 H         1 SQZ         0.0587
     35 H4        -24.3268   17.6422  -18.5760 H         1 SQZ         0.0548
     36 H5        -22.2226   20.2188  -17.2761 H         1 SQZ         0.0833
     37 H6        -23.1776   19.3519  -15.1951 H         1 SQZ         0.0282
     38 H7        -24.7938   19.3838  -15.9782 H         1 SQZ         0.0282
     39 H8        -23.8648   20.9075  -15.7736 H         1 SQZ         0.0282
     40 H9        -25.6365   22.0486  -21.9950 H         1 SQZ         0.0862
     41 H10       -21.6247   20.9978  -23.7421 H         1 SQZ         0.0626
     42 H11       -19.6198   19.8034  -23.0483 H         1 SQZ         0.0635
     43 H12       -21.2127   19.2731  -19.1318 H         1 SQZ         0.0637
     44 H13       -17.8507   19.7723  -22.0917 H         1 SQZ         0.0565
     45 H14       -15.8721   18.4477  -21.5508 H         1 SQZ         0.0572
     46 H15       -20.1778   17.5195  -19.3407 H         1 SQZ         0.0574
     47 H16       -16.0386   14.8087  -18.3806 H         1 SQZ         0.1513
@<TRIPOS>BOND
     1    1    2 1  
     2    2    3 ar 
     3    2    5 ar 
     4    3    4 ar 
     5    4    7 ar 
     6    5    6 ar 
     7    6    7 ar 
     8    7    8 1  
     9    8    9 1  
    10    8   10 1  
    11   10   11 1  
    12   10   18 1  
    13   11   12 ar 
    14   11   16 ar 
    15   12   13 ar 
    16   12   22 ar 
    17   13   14 ar 
    18   13   19 ar 
    19   14   15 ar 
    20   15   16 ar 
    21   16   17 1  
    22   17   18 2  
    23   19   20 ar 
    24   20   21 ar 
    25   21   22 ar 
    26   21   23 1  
    27   23   24 ar 
    28   23   28 ar 
    29   24   25 ar 
    30   25   26 ar 
    31   26   27 ar 
    32   26   29 1  
    33   27   28 ar 
    34   27   31 1  
    35   29   30 1  
    36   30   31 2  
    37    3   32 1  
    38    4   33 1  
    39    5   34 1  
    40    6   35 1  
    41    8   36 1  
    42    9   37 1  
    43    9   38 1  
    44    9   39 1  
    45   15   40 1  
    46   19   41 1  
    47   20   42 1  
    48   22   43 1  
    49   24   44 1  
    50   25   45 1  
    51   28   46 1  
    52   30   47 1  
@<TRIPOS>SUBSTRUCTURE
     1 SQZ         1

