### 
### Created by X-TOOL on Mon Sep 10 21:13:33 2018
### 

@<TRIPOS>MOLECULE
5x9o_ligand
   30    32     1     0     0
SMALL
GAST_HUCK


@<TRIPOS>ATOM
      1 C4        -38.6960    6.7150   -9.5120 C.ar      1 80R        -0.0247
      2 C5        -39.9470    8.6330  -14.5440 C.ar      1 80R         0.0734
      3 C6        -36.8500    8.2580   -9.4280 C.ar      1 80R        -0.0105
      4 C7        -40.9780    6.7120  -15.5180 C.ar      1 80R         0.2745
      5 C8        -40.8510    8.0650  -15.4150 C.ar      1 80R         0.2416
      6 C10       -38.0690    7.9500  -11.4900 C.ar      1 80R         0.1231
      7 C13       -42.4650    7.6190  -16.9740 C.2       1 80R         0.4773
      8 C1        -40.2200    5.8440  -14.7730 C.ar      1 80R         0.0800
      9 C2        -39.3100    6.4020  -13.9030 C.ar      1 80R         0.0539
     10 C3        -38.8850    7.0310  -10.8390 C.ar      1 80R        -0.0107
     11 C9        -39.1720    7.7780  -13.7770 C.ar      1 80R         0.1536
     12 C11       -37.6780    7.3360   -8.8260 C.ar      1 80R         0.0848
     13 C12       -37.0580    8.5520  -10.7560 C.ar      1 80R         0.0909
     14 N14       -41.9570    6.4380  -16.4660 N.am      1 80R        -0.0960
     15 N15       -41.7670    8.6320  -16.3110 N.am      1 80R        -0.1257
     16 N16       -38.2320    8.2860  -12.8610 N.pl3     1 80R        -0.2160
     17 N17       -37.4530    7.0170   -7.4450 N.2       1 80R        -0.2170
     18 O18       -38.4280    6.8070   -6.7060 O.2       1 80R        -0.4893
     19 O19       -43.3430    7.7100  -17.8250 O.2       1 80R        -0.2620
     20 O20       -36.2620    6.9600   -7.1320 O.2       1 80R        -0.4893
     21 CL1       -35.9790    9.6980  -11.4490 Cl        1 80R        -0.0657
     22 H1        -39.3358    5.9923   -9.0185 H         1 80R         0.0695
     23 H2        -39.8458    9.7091  -14.4618 H         1 80R         0.0590
     24 H3        -36.0552    8.7394   -8.8698 H         1 80R         0.0699
     25 H4        -40.3322    4.7698  -14.8650 H         1 80R         0.0920
     26 H5        -38.6859    5.7509  -13.3016 H         1 80R         0.1087
     27 H6        -39.6878    6.5527  -11.3884 H         1 80R         0.0649
     28 H7        -42.2504    5.5221  -16.7400 H         1 80R         0.3387
     29 H8        -41.9009    9.6126  -16.4543 H         1 80R         0.2901
     30 H9        -37.5791    8.9911  -13.2316 H         1 80R         0.2610
@<TRIPOS>BOND
     1   10    1 ar 
     2    1   12 ar 
     3    2    5 ar 
     4   11    2 ar 
     5    3   12 ar 
     6   13    3 ar 
     7    5    4 ar 
     8    8    4 ar 
     9    4   14 1  
    10    5   15 1  
    11    6   10 ar 
    12    6   13 ar 
    13   16    6 1  
    14   14    7 am 
    15   15    7 am 
    16    7   19 2  
    17    9    8 ar 
    18   11    9 ar 
    19   11   16 1  
    20   12   17 1  
    21   13   21 1  
    22   17   18 2  
    23   17   20 2  
    24    1   22 1  
    25    2   23 1  
    26    3   24 1  
    27    8   25 1  
    28    9   26 1  
    29   10   27 1  
    30   14   28 1  
    31   15   29 1  
    32   16   30 1  
@<TRIPOS>SUBSTRUCTURE
     1 80R         1

