### 
### Created by X-TOOL on Mon Sep 10 21:13:32 2018
### 

@<TRIPOS>MOLECULE
5x9p_ligand
   40    42     1     0     0
SMALL
GAST_HUCK


@<TRIPOS>ATOM
      1 C4         38.9580   -7.3000  -11.2740 C.ar      1 80L         0.0057
      2 C5         36.7900   -8.2380   -9.8610 C.ar      1 80L        -0.0187
      3 C6         40.9160   -7.3910  -16.0760 C.ar      1 80L         0.2735
      4 C7         40.6030   -8.6970  -15.8610 C.ar      1 80L         0.2407
      5 C8         39.0600   -8.0800  -14.2050 C.ar      1 80L         0.1529
      6 C10        38.0140   -8.1020  -11.9040 C.ar      1 80L         0.1114
      7 C13        42.1650   -8.6580  -17.4900 C.2       1 80L         0.4763
      8 C15        40.5900   -4.3940  -10.7620 C.3       1 80L         0.0201
      9 C1         40.3140   -6.3800  -15.3640 C.ar      1 80L         0.0794
     10 C2         39.3710   -6.7440  -14.4220 C.ar      1 80L         0.0534
     11 C3         39.6760   -9.0740  -14.9300 C.ar      1 80L         0.0729
     12 C9         38.8380   -6.9430   -9.9400 C.ar      1 80L         0.0777
     13 C11        37.7330   -7.4310   -9.2580 C.ar      1 80L         0.1045
     14 C12        36.9350   -8.5700  -11.1840 C.ar      1 80L         0.0793
     15 C14        41.7690   -4.1220  -11.6440 C.2       1 80L         0.0367
     16 C16        40.9590   -5.5850   -9.9120 C.3       1 80L         0.0373
     17 N17        41.8800   -7.3660  -17.0820 N.am      1 80L        -0.0967
     18 N18        41.3620   -9.4710  -16.7210 N.am      1 80L        -0.1263
     19 N19        38.1100   -8.4560  -13.2580 N.pl3     1 80L        -0.2189
     20 N20        39.7760   -6.1170   -9.2690 N.pl3     1 80L        -0.3144
     21 N21        37.4680   -7.1070   -7.8700 N.2       1 80L        -0.2238
     22 O22        38.3920   -6.7530   -7.1170 O.2       1 80L        -0.4953
     23 O23        42.9590   -9.0230  -18.3450 O.2       1 80L        -0.2628
     24 O24        41.8650   -4.4580  -12.8170 O.co2     1 80L        -0.5689
     25 O25        36.2710   -7.1300   -7.5530 O.2       1 80L        -0.4953
     26 O26        42.7270   -3.4570  -10.9540 O.co2     1 80L        -0.5689
     27 CL1        35.6800   -9.5630  -11.8360 Cl        1 80L        -0.0749
     28 H1         39.8108   -6.9442  -11.8408 H         1 80L         0.0525
     29 H2         35.9424   -8.6062   -9.2944 H         1 80L         0.0673
     30 H3         39.7034   -4.6220  -11.3718 H         1 80L         0.0450
     31 H4         40.3824   -3.5217  -10.1248 H         1 80L         0.0450
     32 H5         40.5689   -5.3403  -15.5348 H         1 80L         0.0918
     33 H6         38.8674   -5.9769  -13.8449 H         1 80L         0.1084
     34 H7         39.4348  -10.1184  -14.7687 H         1 80L         0.0588
     35 H8         41.6831   -5.2749   -9.1442 H         1 80L         0.0534
     36 H9         41.4089   -6.3616  -10.5480 H         1 80L         0.0534
     37 H10        42.3024   -6.5392  -17.4534 H         1 80L         0.3380
     38 H11        41.3321  -10.4690  -16.7759 H         1 80L         0.2897
     39 H12        37.3707   -9.0853  -13.6019 H         1 80L         0.2607
     40 H13        39.6078   -5.8853   -8.2796 H         1 80L         0.1793
@<TRIPOS>BOND
     1    1    6 ar 
     2   12    1 ar 
     3   13    2 ar 
     4    2   14 ar 
     5    4    3 ar 
     6    9    3 ar 
     7    3   17 1  
     8   11    4 ar 
     9    4   18 1  
    10    5   10 ar 
    11    5   11 ar 
    12   19    5 1  
    13    6   14 ar 
    14    6   19 1  
    15    7   17 am 
    16   18    7 am 
    17    7   23 2  
    18    8   15 1  
    19   16    8 1  
    20   10    9 ar 
    21   12   13 ar 
    22   20   12 1  
    23   13   21 1  
    24   14   27 1  
    25   15   24 ar 
    26   15   26 ar 
    27   16   20 1  
    28   21   22 2  
    29   21   25 2  
    30    1   28 1  
    31    2   29 1  
    32    8   30 1  
    33    8   31 1  
    34    9   32 1  
    35   10   33 1  
    36   11   34 1  
    37   16   35 1  
    38   16   36 1  
    39   17   37 1  
    40   18   38 1  
    41   19   39 1  
    42   20   40 1  
@<TRIPOS>SUBSTRUCTURE
     1 80L         1

