### 
### Created by X-TOOL on Mon Sep 10 21:13:33 2018
### 

@<TRIPOS>MOLECULE
5xaf_ligand
   50    52     1     0     0
SMALL
GAST_HUCK


@<TRIPOS>ATOM
      1 N1         17.2680  -66.6360  -41.5640 N.am      1 84F        -0.2153
      2 C2         17.7610  -66.9400  -42.9510 C.3       1 84F         0.1097
      3 C3         19.0430  -67.2100  -42.6120 C.3       1 84F         0.0873
      4 C4         18.9000  -67.0710  -41.1190 C.2       1 84F         0.2123
      5 O5         19.5230  -67.1830  -40.1190 O.2       1 84F        -0.3853
      6 C6         16.0730  -66.3130  -40.8030 C.ar      1 84F         0.0443
      7 C7         14.8570  -66.1970  -41.4290 C.ar      1 84F        -0.0314
      8 C8         13.7370  -65.9180  -40.6660 C.ar      1 84F         0.0988
      9 C9         13.8210  -65.7550  -39.2710 C.ar      1 84F         0.1312
     10 C10        15.0790  -65.8930  -38.6390 C.ar      1 84F         0.0988
     11 C11        16.1890  -66.1790  -39.4220 C.ar      1 84F        -0.0314
     12 C12        17.5910  -65.8180  -44.0400 C.ar      1 84F        -0.0299
     13 C13        17.2450  -64.5070  -43.6960 C.ar      1 84F        -0.0773
     14 C14        17.1200  -63.5370  -44.6980 C.ar      1 84F        -0.0478
     15 C15        17.3320  -63.8910  -46.0280 C.ar      1 84F         0.1120
     16 C16        17.6660  -65.1910  -46.3720 C.ar      1 84F         0.1101
     17 C17        17.8010  -66.1510  -45.3770 C.ar      1 84F        -0.0373
     18 O18        17.8830  -65.5340  -47.7160 O.3       1 84F        -0.3385
     19 O19        17.2130  -62.9360  -47.0520 O.3       1 84F        -0.3294
     20 C20        16.4710  -61.7830  -46.7110 C.3       1 84F         0.0554
     21 O21        12.6400  -65.4620  -38.5440 O.3       1 84F        -0.3391
     22 C22        12.4560  -66.2140  -37.3550 C.3       1 84F         0.0510
     23 O23        15.2970  -65.7650  -37.2390 O.3       1 84F        -0.3315
     24 C24        16.5960  -66.0480  -36.7540 C.3       1 84F         0.0562
     25 O25        12.5280  -65.7890  -41.3670 O.3       1 84F        -0.3315
     26 C26        12.5750  -66.2720  -42.6970 C.3       1 84F         0.0562
     27 C29        19.4930  -68.7080  -42.9740 C.3       1 84F        -0.0406
     28 H1         17.2636  -67.8400  -43.3415 H         1 84F         0.0787
     29 H2         19.7504  -66.4884  -43.0466 H         1 84F         0.0588
     30 H3         14.7755  -66.3218  -42.5027 H         1 84F         0.0312
     31 H4         17.1585  -66.2995  -38.9523 H         1 84F         0.0312
     32 H5         17.0744  -64.2433  -42.6585 H         1 84F         0.0437
     33 H6         16.8598  -62.5168  -44.4400 H         1 84F         0.0493
     34 H7         18.0717  -67.1666  -45.6424 H         1 84F         0.0451
     35 H8         17.7507  -64.7682  -48.2624 H         1 84F         0.2442
     36 H9         16.4359  -61.1012  -47.5735 H         1 84F         0.0570
     37 H10        16.9518  -61.2754  -45.8618 H         1 84F         0.0570
     38 H11        15.4476  -62.0746  -46.4323 H         1 84F         0.0570
     39 H12        11.5159  -65.9105  -36.8710 H         1 84F         0.0562
     40 H13        13.2970  -66.0293  -36.6705 H         1 84F         0.0562
     41 H14        12.4123  -67.2851  -37.6016 H         1 84F         0.0562
     42 H15        16.6184  -65.9088  -35.6631 H         1 84F         0.0572
     43 H16        17.3199  -65.3670  -37.2254 H         1 84F         0.0572
     44 H17        16.8594  -67.0881  -36.9964 H         1 84F         0.0572
     45 H18        11.5926  -66.1339  -43.1721 H         1 84F         0.0572
     46 H19        12.8317  -67.3416  -42.6898 H         1 84F         0.0572
     47 H20        13.3372  -65.7158  -43.2624 H         1 84F         0.0572
     48 H21        20.5403  -68.8590  -42.6732 H         1 84F         0.0259
     49 H22        19.3961  -68.8682  -44.0579 H         1 84F         0.0259
     50 H23        18.8511  -69.4232  -42.4388 H         1 84F         0.0259
@<TRIPOS>BOND
     1    1    2 1  
     2    1    4 am 
     3    1    6 1  
     4    2    3 1  
     5    2   12 1  
     6    3    4 1  
     7    3   27 1  
     8    4    5 2  
     9    6    7 ar 
    10    6   11 ar 
    11    7    8 ar 
    12    8    9 ar 
    13    8   25 1  
    14    9   10 ar 
    15    9   21 1  
    16   10   11 ar 
    17   10   23 1  
    18   12   13 ar 
    19   12   17 ar 
    20   13   14 ar 
    21   14   15 ar 
    22   15   16 ar 
    23   15   19 1  
    24   16   17 ar 
    25   16   18 1  
    26   19   20 1  
    27   21   22 1  
    28   23   24 1  
    29   25   26 1  
    30    2   28 1  
    31    3   29 1  
    32    7   30 1  
    33   11   31 1  
    34   13   32 1  
    35   14   33 1  
    36   17   34 1  
    37   18   35 1  
    38   20   36 1  
    39   20   37 1  
    40   20   38 1  
    41   22   39 1  
    42   22   40 1  
    43   22   41 1  
    44   24   42 1  
    45   24   43 1  
    46   24   44 1  
    47   26   45 1  
    48   26   46 1  
    49   26   47 1  
    50   27   48 1  
    51   27   49 1  
    52   27   50 1  
@<TRIPOS>SUBSTRUCTURE
     1 84F         1

