### 
### Created by X-TOOL on Wed Jan  1 15:39:37 2020
### 

@<TRIPOS>MOLECULE
5xag_ligand
   51    53     1     0     0
SMALL
GAST_HUCK


@<TRIPOS>ATOM
      1 C29        19.7100  -68.3370  -43.3100 C.3       1 93X         0.0684
      2 O50        18.9210  -69.3560  -42.7510 O.3       1 93X        -0.3921
      3 C3         19.1800  -66.9180  -42.7890 C.3       1 93X         0.1131
      4 C4         19.0500  -66.8240  -41.2890 C.2       1 93X         0.2149
      5 O5         19.6880  -66.8970  -40.2900 O.2       1 93X        -0.3852
      6 N1         17.3940  -66.4660  -41.6930 N.am      1 93X        -0.2152
      7 C6         16.1980  -66.1880  -40.9070 C.ar      1 93X         0.0443
      8 C11        16.3450  -66.0660  -39.5270 C.ar      1 93X        -0.0314
      9 C10        15.2470  -65.8100  -38.7080 C.ar      1 93X         0.0988
     10 O23        15.4790  -65.7010  -37.3330 O.3       1 93X        -0.3315
     11 C24        16.6100  -66.4150  -36.9150 C.3       1 93X         0.0562
     12 C9         13.9690  -65.6800  -39.2890 C.ar      1 93X         0.1312
     13 O21        12.7780  -65.4060  -38.5460 O.3       1 93X        -0.3391
     14 C22        12.6480  -65.9670  -37.2380 C.3       1 93X         0.0510
     15 C8         13.8560  -65.8100  -40.6820 C.ar      1 93X         0.0988
     16 O25        12.6070  -65.6830  -41.3040 O.3       1 93X        -0.3315
     17 C26        12.7170  -65.9990  -42.6850 C.3       1 93X         0.0562
     18 C7         14.9590  -66.0630  -41.4910 C.ar      1 93X        -0.0314
     19 C2         17.8870  -66.7100  -43.0830 C.3       1 93X         0.1121
     20 C12        17.6620  -65.5410  -44.0970 C.ar      1 93X        -0.0298
     21 C17        17.8800  -65.8130  -45.4540 C.ar      1 93X        -0.0373
     22 C16        17.6980  -64.8120  -46.4130 C.ar      1 93X         0.1101
     23 O18        17.9160  -65.0650  -47.7950 O.3       1 93X        -0.3385
     24 C15        17.2990  -63.5420  -46.0030 C.ar      1 93X         0.1120
     25 O19        17.1240  -62.5740  -47.0110 O.3       1 93X        -0.3294
     26 C20        16.7380  -61.2910  -46.5710 C.3       1 93X         0.0554
     27 C14        17.0730  -63.2620  -44.6460 C.ar      1 93X        -0.0478
     28 C13        17.2540  -64.2680  -43.6770 C.ar      1 93X        -0.0773
     29 H1         19.6394  -68.3763  -44.4070 H         1 93X         0.0588
     30 H2         20.7580  -68.4733  -43.0049 H         1 93X         0.0588
     31 H3         19.2319  -70.1998  -43.0574 H         1 93X         0.2096
     32 H4         19.8287  -66.1268  -43.1931 H         1 93X         0.0614
     33 H5         17.3285  -66.1718  -39.0836 H         1 93X         0.0312
     34 H6         16.7408  -66.2921  -35.8297 H         1 93X         0.0572
     35 H7         17.4992  -66.0319  -37.4371 H         1 93X         0.0572
     36 H8         16.4779  -67.4815  -37.1499 H         1 93X         0.0572
     37 H9         11.6837  -65.6647  -36.8036 H         1 93X         0.0562
     38 H10        13.4674  -65.6040  -36.6002 H         1 93X         0.0562
     39 H11        12.6927  -67.0641  -37.3034 H         1 93X         0.0562
     40 H12        11.7322  -65.8965  -43.1641 H         1 93X         0.0572
     41 H13        13.0734  -67.0336  -42.7972 H         1 93X         0.0572
     42 H14        13.4305  -65.3115  -43.1628 H         1 93X         0.0572
     43 H15        14.8439  -66.1601  -42.5645 H         1 93X         0.0312
     44 H16        17.4250  -67.6143  -43.5059 H         1 93X         0.0788
     45 H17        18.1914  -66.8046  -45.7620 H         1 93X         0.0451
     46 H18        17.7444  -64.2735  -48.2916 H         1 93X         0.2442
     47 H19        16.6320  -60.6225  -47.4381 H         1 93X         0.0570
     48 H20        17.5043  -60.8906  -45.8910 H         1 93X         0.0570
     49 H21        15.7766  -61.3590  -46.0408 H         1 93X         0.0570
     50 H22        16.7586  -62.2697  -44.3434 H         1 93X         0.0493
     51 H23        17.0811  -64.0615  -42.6270 H         1 93X         0.0437
@<TRIPOS>BOND
     1    1    2 1  
     2    1    3 1  
     3    3    4 1  
     4    3   19 1  
     5    4    5 2  
     6    4    6 am 
     7    6    7 1  
     8    6   19 1  
     9    7    8 ar 
    10    7   18 ar 
    11    8    9 ar 
    12    9   10 1  
    13    9   12 ar 
    14   10   11 1  
    15   12   13 1  
    16   12   15 ar 
    17   13   14 1  
    18   15   16 1  
    19   15   18 ar 
    20   16   17 1  
    21   19   20 1  
    22   20   21 ar 
    23   20   28 ar 
    24   21   22 ar 
    25   22   23 1  
    26   22   24 ar 
    27   24   25 1  
    28   24   27 ar 
    29   25   26 1  
    30   27   28 ar 
    31    1   29 1  
    32    1   30 1  
    33    2   31 1  
    34    3   32 1  
    35    8   33 1  
    36   11   34 1  
    37   11   35 1  
    38   11   36 1  
    39   14   37 1  
    40   14   38 1  
    41   14   39 1  
    42   17   40 1  
    43   17   41 1  
    44   17   42 1  
    45   18   43 1  
    46   19   44 1  
    47   21   45 1  
    48   23   46 1  
    49   26   47 1  
    50   26   48 1  
    51   26   49 1  
    52   27   50 1  
    53   28   51 1  
@<TRIPOS>SUBSTRUCTURE
     1 93X         1

