### 
### Created by X-TOOL on Mon Aug  2 16:12:18 2021
### 

@<TRIPOS>MOLECULE
5xff_ligand
   51    54     1     0     0
SMALL
GAST_HUCK


@<TRIPOS>ATOM
      1 CAJ        71.9480   45.5150  561.5880 C.ar      1 MOL         0.0047
      2 CAK        69.1700   47.1120  558.7790 C.3       1 MOL         0.1178
      3 CAL        71.6430   44.2960  562.2010 C.ar      1 MOL         0.0745
      4 CAM        69.8140   45.4010  560.3780 C.ar      1 MOL         0.0829
      5 CAN        73.2570   45.8750  562.1320 C.2       1 MOL         0.0316
      6 CAO        71.0180   46.0660  560.6710 C.ar      1 MOL        -0.0375
      7 CAP        70.1590   46.9300  557.6180 C.ar      1 MOL         0.0375
      8 CAQ        70.4340   43.6250  561.9140 C.ar      1 MOL        -0.0415
      9 CAR        69.5280   44.1740  561.0110 C.ar      1 MOL        -0.0393
     10 CAS        67.8820   47.7200  558.2230 C.3       1 MOL        -0.0224
     11 CAT        74.1540   47.0950  561.8760 C.3       1 MOL        -0.0069
     12 CAU        74.8100   49.1000  560.4630 C.2       1 MOL        -0.0310
     13 CAV        73.7180   48.0780  560.7920 C.3       1 MOL        -0.0241
     14 CAW        76.2660   51.8490  558.6180 C.3       1 MOL         0.0912
     15 CAX        74.7790   50.0800  559.4490 C.2       1 MOL         0.0462
     16 CAY        70.0750   45.8930  556.6890 C.ar      1 MOL         0.0725
     17 CAZ        71.1940   47.8460  557.4650 C.ar      1 MOL         0.0725
     18 NAE        72.6650   43.9840  563.0150 N.pl3     1 MOL        -0.2289
     19 NAF        73.5970   44.9190  562.9620 N.2       1 MOL        -0.2213
     20 NAG        75.9090   50.7450  559.4970 N.pl3     1 MOL        -0.2135
     21 NAH        76.6630   50.2590  560.4810 N.2       1 MOL        -0.2229
     22 NAI        71.9830   46.7030  555.5680 N.ar      1 MOL        -0.3056
     23 OAC        68.8690   45.9180  559.4660 O.3       1 MOL        -0.3076
     24 OAD        76.7760   51.9470  556.3270 O.3       1 MOL        -0.3921
     25 CBA        76.0620   49.2700  561.0970 C.2       1 MOL        -0.0032
     26 CBB        76.8820   51.3190  557.3270 C.3       1 MOL         0.0734
     27 CBC        71.0160   45.8160  555.6740 C.ar      1 MOL         0.0172
     28 CBD        72.0950   47.6980  556.4220 C.ar      1 MOL         0.0172
     29 CL1        68.7930   44.6520  556.7640 Cl        1 MOL        -0.0672
     30 CL2        71.3720   49.2080  558.6070 Cl        1 MOL        -0.0672
     31 H1         69.6148   47.8135  559.5002 H         1 MOL         0.0838
     32 H2         71.2377   47.0120  560.1895 H         1 MOL         0.0489
     33 H3         70.2111   42.6808  562.3977 H         1 MOL         0.0539
     34 H4         68.6003   43.6569  560.7939 H         1 MOL         0.0532
     35 H5         67.1592   47.8585  559.0406 H         1 MOL         0.0284
     36 H6         67.4548   47.0454  557.4664 H         1 MOL         0.0284
     37 H7         68.1052   48.6935  557.7621 H         1 MOL         0.0284
     38 H8         75.1496   46.7189  561.5980 H         1 MOL         0.0433
     39 H9         74.2242   47.6557  562.8197 H         1 MOL         0.0433
     40 H10        72.8236   48.6154  561.1403 H         1 MOL         0.0372
     41 H11        73.4747   47.5138  559.8796 H         1 MOL         0.0372
     42 H12        76.9934   52.4981  559.1275 H         1 MOL         0.0659
     43 H13        75.3625   52.4286  558.3778 H         1 MOL         0.0659
     44 H14        73.9620   50.2538  558.7502 H         1 MOL         0.0872
     45 H15        72.7150   43.1362  563.5978 H         1 MOL         0.2367
     46 H16        77.2094   51.4867  555.6179 H         1 MOL         0.2095
     47 H17        76.4513   48.6921  561.9339 H         1 MOL         0.0627
     48 H18        76.4276   50.3355  557.1363 H         1 MOL         0.0586
     49 H19        77.9589   51.1954  557.5140 H         1 MOL         0.0586
     50 H20        70.9543   45.0090  554.9529 H         1 MOL         0.0809
     51 H21        72.9030   48.4117  556.3083 H         1 MOL         0.0809
@<TRIPOS>BOND
     1    1    3 ar 
     2    5    1 1  
     3    1    6 ar 
     4    2    7 1  
     5    2   10 1  
     6   23    2 1  
     7    3    8 ar 
     8    3   18 1  
     9    6    4 ar 
    10    4    9 ar 
    11    4   23 1  
    12   11    5 1  
    13    5   19 2  
    14    7   16 ar 
    15    7   17 ar 
    16    8    9 ar 
    17   13   11 1  
    18   12   13 1  
    19   15   12 2  
    20   12   25 1  
    21   20   14 1  
    22   14   26 1  
    23   15   20 1  
    24   16   27 ar 
    25   16   29 1  
    26   17   28 ar 
    27   17   30 1  
    28   18   19 1  
    29   20   21 1  
    30   21   25 2  
    31   27   22 ar 
    32   22   28 ar 
    33   26   24 1  
    34    2   31 1  
    35    6   32 1  
    36    8   33 1  
    37    9   34 1  
    38   10   35 1  
    39   10   36 1  
    40   10   37 1  
    41   11   38 1  
    42   11   39 1  
    43   13   40 1  
    44   13   41 1  
    45   14   42 1  
    46   14   43 1  
    47   15   44 1  
    48   18   45 1  
    49   24   46 1  
    50   25   47 1  
    51   26   48 1  
    52   26   49 1  
    53   27   50 1  
    54   28   51 1  
@<TRIPOS>SUBSTRUCTURE
     1 MOL         1

