### 
### Created by X-TOOL on Mon Aug  2 16:12:18 2021
### 

@<TRIPOS>MOLECULE
5xfj_ligand
   51    54     1     0     0
SMALL
GAST_HUCK


@<TRIPOS>ATOM
      1 CAJ       -40.7010  -14.5820  377.7930 C.ar      1 MOL         0.0047
      2 CAK       -38.0040  -16.1550  374.9400 C.3       1 MOL         0.1178
      3 CAL       -40.3970  -13.3580  378.3910 C.ar      1 MOL         0.0745
      4 CAM       -38.5510  -14.5200  376.6260 C.ar      1 MOL         0.0829
      5 CAN       -42.0190  -14.9230  378.3070 C.2       1 MOL         0.0316
      6 CAO       -39.7650  -15.1650  376.9100 C.ar      1 MOL        -0.0375
      7 CAP       -39.0120  -15.8140  373.8360 C.ar      1 MOL         0.0375
      8 CAQ       -39.1730  -12.7080  378.1100 C.ar      1 MOL        -0.0415
      9 CAR       -38.2580  -13.2860  377.2350 C.ar      1 MOL        -0.0393
     10 CAS       -36.7510  -16.6730  374.2760 C.3       1 MOL        -0.0224
     11 CAT       -42.8930  -16.1530  378.0310 C.3       1 MOL        -0.0069
     12 CAU       -43.8120  -17.9810  376.6190 C.2       1 MOL        -0.0310
     13 CAV       -42.7350  -16.8940  376.7010 C.3       1 MOL        -0.0241
     14 CAW       -45.2720  -21.1950  375.7670 C.3       1 MOL         0.0912
     15 CAX       -43.7410  -19.2700  376.0350 C.2       1 MOL         0.0462
     16 CAY       -38.9200  -14.6540  373.0750 C.ar      1 MOL         0.0725
     17 CAZ       -40.0610  -16.6860  373.5670 C.ar      1 MOL         0.0725
     18 NAE       -41.4360  -13.0230  379.1820 N.pl3     1 MOL        -0.2289
     19 NAF       -42.3760  -13.9530  379.1190 N.2       1 MOL        -0.2213
     20 NAG       -44.9080  -19.8540  376.2060 N.pl3     1 MOL        -0.2135
     21 NAH       -45.7130  -19.0290  376.8720 N.2       1 MOL        -0.2229
     22 NAI       -40.8560  -15.2700  371.8820 N.ar      1 MOL        -0.3056
     23 OAC       -37.6050  -15.0730  375.7460 O.3       1 MOL        -0.3076
     24 OAD       -44.8940  -22.4790  373.8350 O.3       1 MOL        -0.3921
     25 CBA       -45.1180  -17.8970  377.1500 C.2       1 MOL        -0.0032
     26 CBB       -45.0400  -21.3840  374.2690 C.3       1 MOL         0.0734
     27 CBC       -39.8750  -14.4160  372.0950 C.ar      1 MOL         0.0172
     28 CBD       -40.9740  -16.3800  372.5760 C.ar      1 MOL         0.0172
     29 CL1       -37.5990  -13.4800  373.3500 Cl        1 MOL        -0.0672
     30 CL2       -40.2540  -18.1990  374.4910 Cl        1 MOL        -0.0672
     31 H1        -38.4428  -16.9315  375.5838 H         1 MOL         0.0838
     32 H2        -39.9864  -16.1199  376.4472 H         1 MOL         0.0489
     33 H3        -38.9467  -11.7566  378.5776 H         1 MOL         0.0539
     34 H4        -37.3201  -12.7857  377.0228 H         1 MOL         0.0532
     35 H5        -36.0067  -16.9269  375.0451 H         1 MOL         0.0284
     36 H6        -36.3414  -15.8985  373.6110 H         1 MOL         0.0284
     37 H7        -36.9919  -17.5711  373.6883 H         1 MOL         0.0284
     38 H8        -43.9408  -15.8242  378.0939 H         1 MOL         0.0433
     39 H9        -42.6880  -16.8798  378.8308 H         1 MOL         0.0433
     40 H10       -41.7377  -17.3552  376.6494 H         1 MOL         0.0372
     41 H11       -42.8561  -16.1880  375.8662 H         1 MOL         0.0372
     42 H12       -46.3364  -21.3649  375.9866 H         1 MOL         0.0659
     43 H13       -44.6626  -21.9273  376.3168 H         1 MOL         0.0659
     44 H14       -42.8753  -19.7007  375.5340 H         1 MOL         0.0872
     45 H15       -41.4906  -12.1673  379.7527 H         1 MOL         0.2367
     46 H16       -44.7611  -22.4310  372.8955 H         1 MOL         0.2095
     47 H17       -45.5473  -17.0527  377.6874 H         1 MOL         0.0627
     48 H18       -44.1355  -20.8139  374.0105 H         1 MOL         0.0586
     49 H19       -45.9081  -20.9481  373.7529 H         1 MOL         0.0586
     50 H20       -39.8126  -13.5144  371.4964 H         1 MOL         0.0809
     51 H21       -41.7928  -17.0597  372.3696 H         1 MOL         0.0809
@<TRIPOS>BOND
     1    1    3 ar 
     2    5    1 1  
     3    1    6 ar 
     4    2    7 1  
     5    2   10 1  
     6   23    2 1  
     7    3    8 ar 
     8    3   18 1  
     9    6    4 ar 
    10    4    9 ar 
    11    4   23 1  
    12   11    5 1  
    13    5   19 2  
    14    7   16 ar 
    15    7   17 ar 
    16    8    9 ar 
    17   13   11 1  
    18   12   13 1  
    19   15   12 2  
    20   12   25 1  
    21   20   14 1  
    22   14   26 1  
    23   15   20 1  
    24   16   27 ar 
    25   16   29 1  
    26   17   28 ar 
    27   17   30 1  
    28   18   19 1  
    29   20   21 1  
    30   21   25 2  
    31   27   22 ar 
    32   22   28 ar 
    33   26   24 1  
    34    2   31 1  
    35    6   32 1  
    36    8   33 1  
    37    9   34 1  
    38   10   35 1  
    39   10   36 1  
    40   10   37 1  
    41   11   38 1  
    42   11   39 1  
    43   13   40 1  
    44   13   41 1  
    45   14   42 1  
    46   14   43 1  
    47   15   44 1  
    48   18   45 1  
    49   24   46 1  
    50   25   47 1  
    51   26   48 1  
    52   26   49 1  
    53   27   50 1  
    54   28   51 1  
@<TRIPOS>SUBSTRUCTURE
     1 MOL         1

