### 
### Created by X-TOOL on Mon Sep 10 21:13:31 2018
### 

@<TRIPOS>MOLECULE
5xg4_ligand
   34    36     1     0     0
SMALL
GAST_HUCK


@<TRIPOS>ATOM
      1 C1        -24.9380  -10.3990   -2.2480 C.ar      1 QUE        -0.0097
      2 C2        -25.9660  -10.5260   -3.1840 C.ar      1 QUE         0.0926
      3 C3        -26.7860  -11.6660   -3.1610 C.ar      1 QUE         0.0813
      4 C4        -26.5990  -12.6900   -2.2030 C.ar      1 QUE         0.0992
      5 C5        -25.5630  -12.5350   -1.2680 C.ar      1 QUE        -0.0092
      6 C6        -24.7390  -11.3980   -1.2950 C.ar      1 QUE         0.0765
      7 C9        -27.8820  -11.8060   -4.1570 C.2       1 QUE         0.1474
      8 C10       -28.7200  -13.0170   -4.0970 C.3       1 QUE         0.1620
      9 C11       -28.4410  -14.0630   -3.0690 C.3       1 QUE         0.1496
     10 C14       -29.3500  -15.2650   -2.9920 C.ar      1 QUE        -0.0245
     11 C15       -30.0850  -15.3920   -1.8020 C.ar      1 QUE        -0.0770
     12 C16       -30.9950  -16.4410   -1.6120 C.ar      1 QUE        -0.0481
     13 C17       -31.2220  -17.3840   -2.6070 C.ar      1 QUE         0.1088
     14 C18       -30.5100  -17.2590   -3.8040 C.ar      1 QUE         0.1099
     15 C19       -29.5860  -16.2060   -4.0140 C.ar      1 QUE        -0.0370
     16 O12       -27.4120  -13.8250   -2.1640 O.3       1 QUE        -0.2988
     17 O13       -28.0960  -10.9280   -5.0210 O.2       1 QUE        -0.3939
     18 O23       -30.7390  -18.1870   -4.7710 O.3       1 QUE        -0.3385
     19 O24       -32.1260  -18.3930   -2.3940 O.3       1 QUE        -0.3414
     20 O27       -29.7080  -13.1460   -5.0070 O.3       1 QUE        -0.3689
     21 O29       -23.7350  -11.2550   -0.3890 O.3       1 QUE        -0.3349
     22 O30       -26.1640   -9.5480   -4.1200 O.3       1 QUE        -0.3326
     23 H1        -24.2958   -9.5258   -2.2618 H         1 QUE         0.0390
     24 H2        -25.3976  -13.3002   -0.5182 H         1 QUE         0.0390
     25 H3        -29.4149  -12.5216   -3.4030 H         1 QUE         0.0864
     26 H4        -27.7560  -14.5997   -3.7419 H         1 QUE         0.0847
     27 H5        -29.9454  -14.6623   -1.0126 H         1 QUE         0.0437
     28 H6        -31.5308  -16.5179   -0.6728 H         1 QUE         0.0492
     29 H7        -29.0615  -16.1243   -4.9591 H         1 QUE         0.0451
     30 H8        -31.3826  -18.8134   -4.4612 H         1 QUE         0.2442
     31 H9        -32.5004  -18.3031   -1.5255 H         1 QUE         0.2420
     32 H10       -29.7225  -12.3794   -5.5678 H         1 QUE         0.2135
     33 H11       -23.2803  -10.4363   -0.5485 H         1 QUE         0.2497
     34 H12       -26.0619   -9.9177   -4.9891 H         1 QUE         0.2506
@<TRIPOS>BOND
     1    1    2 ar 
     2    1    6 ar 
     3    2    3 ar 
     4    2   22 1  
     5    3    4 ar 
     6    3    7 1  
     7    4    5 ar 
     8    4   16 1  
     9    5    6 ar 
    10    6   21 1  
    11    7    8 1  
    12    7   17 2  
    13    8    9 1  
    14    8   20 1  
    15    9   10 1  
    16    9   16 1  
    17   10   11 ar 
    18   10   15 ar 
    19   11   12 ar 
    20   12   13 ar 
    21   13   14 ar 
    22   13   19 1  
    23   14   15 ar 
    24   14   18 1  
    25    1   23 1  
    26    5   24 1  
    27    8   25 1  
    28    9   26 1  
    29   11   27 1  
    30   12   28 1  
    31   15   29 1  
    32   18   30 1  
    33   19   31 1  
    34   20   32 1  
    35   21   33 1  
    36   22   34 1  
@<TRIPOS>SUBSTRUCTURE
     1 QUE         1

