### 
### Created by X-TOOL on Mon Sep 10 21:13:30 2018
### 

@<TRIPOS>MOLECULE
5xg5_ligand
   30    30     1     0     0
SMALL
GAST_HUCK


@<TRIPOS>ATOM
      1 O          21.3350   -2.7720   -0.9570 O.3       1 A2G        -0.3410
      2 C1         22.1210   -2.7970   -2.1170 C.3       1 A2G         0.1823
      3 O1         23.3560   -2.1080   -2.0190 O.3       1 A2G        -0.3651
      4 C2         21.2940   -2.2190   -3.3030 C.3       1 A2G         0.1208
      5 N2         22.0900   -2.1010   -4.4930 N.am      1 A2G        -0.2766
      6 C3         20.7960   -0.7940   -2.9010 C.3       1 A2G         0.1110
      7 O3         19.9290   -0.2190   -3.9040 O.3       1 A2G        -0.3867
      8 C4         20.0380   -0.8320   -1.5960 C.3       1 A2G         0.1116
      9 O4         18.8230   -1.6600   -1.7430 O.3       1 A2G        -0.3865
     10 C5         20.9270   -1.4600   -0.5670 C.3       1 A2G         0.1130
     11 C6         20.2830   -1.6180    0.7970 C.3       1 A2G         0.0730
     12 O6         21.1670   -2.2190    1.7610 O.3       1 A2G        -0.3924
     13 C7         21.6460   -2.4990   -5.7000 C.2       1 A2G         0.1733
     14 O7         20.5160   -3.0080   -5.8280 O.2       1 A2G        -0.3974
     15 C8         22.6920   -2.3140   -6.8260 C.3       1 A2G         0.0257
     16 H1         22.3516   -3.8504   -2.3344 H         1 A2G         0.0932
     17 H2         23.8792   -2.4949   -1.3268 H         1 A2G         0.2126
     18 H3         20.4346   -2.8757   -3.5031 H         1 A2G         0.0633
     19 H4         23.0072   -1.7090   -4.4222 H         1 A2G         0.1857
     20 H5         21.6765   -0.1454   -2.7825 H         1 A2G         0.0645
     21 H6         19.1689   -0.7768   -4.0214 H         1 A2G         0.2100
     22 H7         19.7612    0.1878   -1.2903 H         1 A2G         0.0647
     23 H8         18.2673   -1.2879   -2.4177 H         1 A2G         0.2100
     24 H9         21.8163   -0.8209   -0.4637 H         1 A2G         0.0647
     25 H10        19.3906   -2.2528    0.6937 H         1 A2G         0.0584
     26 H11        19.9857   -0.6243    1.1633 H         1 A2G         0.0584
     27 H12        21.9388   -1.6747    1.8638 H         1 A2G         0.2095
     28 H13        22.2672   -2.6569   -7.7810 H         1 A2G         0.0467
     29 H14        23.5909   -2.9033   -6.5919 H         1 A2G         0.0467
     30 H15        22.9612   -1.2504   -6.9053 H         1 A2G         0.0467
@<TRIPOS>BOND
     1    1    2 1  
     2    1   10 1  
     3    2    3 1  
     4    2    4 1  
     5    4    5 1  
     6    4    6 1  
     7    5   13 am 
     8    6    7 1  
     9    6    8 1  
    10    8    9 1  
    11    8   10 1  
    12   10   11 1  
    13   11   12 1  
    14   13   14 2  
    15   13   15 1  
    16    2   16 1  
    17    3   17 1  
    18    4   18 1  
    19    5   19 1  
    20    6   20 1  
    21    7   21 1  
    22    8   22 1  
    23    9   23 1  
    24   10   24 1  
    25   11   25 1  
    26   11   26 1  
    27   12   27 1  
    28   15   28 1  
    29   15   29 1  
    30   15   30 1  
@<TRIPOS>SUBSTRUCTURE
     1 A2G         1

