### 
### Created by X-TOOL on Mon Aug  2 16:12:19 2021
### 

@<TRIPOS>MOLECULE
5xgh_ligand
   52    56     1     0     0
SMALL
GAST_HUCK


@<TRIPOS>ATOM
      1 O01        28.2500   45.8580   46.3810 O.3       1 MOL        -0.3757
      2 C02        29.4550   46.6250   46.3510 C.3       1 MOL         0.0682
      3 C05        29.5750   47.3620   45.0210 C.3       1 MOL         0.0552
      4 N08        29.5860   46.3750   43.9390 N.pl3     1 MOL        -0.2839
      5 C09        28.4080   45.4810   43.9740 C.3       1 MOL         0.0552
      6 C12        28.2320   44.8590   45.3550 C.3       1 MOL         0.0682
      7 C15        30.3660   46.4590   42.7750 C.ar      1 MOL         0.1417
      8 C16        31.5050   47.2940   42.5010 C.ar      1 MOL         0.1053
      9 C17        32.1380   47.2050   41.2470 C.ar      1 MOL         0.0406
     10 N18        31.7280   46.3600   40.2690 N.ar      1 MOL        -0.2976
     11 C19        30.6690   45.5860   40.5510 C.ar      1 MOL         0.0863
     12 N20        30.0140   45.6310   41.7270 N.ar      1 MOL        -0.2632
     13 C21        33.2540   48.0810   41.0900 C.2       1 MOL        -0.0401
     14 C23        33.4800   48.8370   42.2070 C.2       1 MOL         0.0085
     15 S25        32.3530   48.4890   43.4300 S.3       1 MOL        -0.0213
     16 C26        30.1810   44.6550   39.5040 C.ar      1 MOL        -0.0088
     17 C27        29.1430   43.7140   39.6890 C.ar      1 MOL        -0.0331
     18 C29        30.7650   44.6880   38.2200 C.ar      1 MOL        -0.0419
     19 C31        30.3900   43.8650   37.1420 C.ar      1 MOL         0.0340
     20 C32        29.3490   42.9510   37.3720 C.ar      1 MOL        -0.0139
     21 C34        28.7400   42.8790   38.6350 C.ar      1 MOL         0.0797
     22 O35        27.7300   41.9890   38.8800 O.3       1 MOL        -0.3359
     23 N37        31.0730   44.0320   35.9400 N.pl3     1 MOL        -0.3139
     24 C39        31.0320   45.2550   35.1620 C.3       1 MOL         0.0555
     25 C42        31.9290   46.4120   35.5980 C.ar      1 MOL        -0.0256
     26 C43        31.5090   47.3720   36.5560 C.ar      1 MOL        -0.0601
     27 C45        32.3390   48.4300   36.9530 C.ar      1 MOL        -0.0348
     28 C47        33.6050   48.5580   36.3800 C.ar      1 MOL         0.1248
     29 C48        34.0460   47.6370   35.4220 C.ar      1 MOL        -0.0348
     30 C50        33.2120   46.5730   35.0320 C.ar      1 MOL        -0.0601
     31 F52        34.3970   49.5730   36.7540 F         1 MOL        -0.1893
     32 H1         30.3171   45.9529   46.4734 H         1 MOL         0.0580
     33 H2         29.4410   47.3567   47.1722 H         1 MOL         0.0580
     34 H3         30.5089   47.9428   45.0022 H         1 MOL         0.0547
     35 H4         28.7185   48.0406   44.8948 H         1 MOL         0.0547
     36 H5         28.5434   44.6790   43.2334 H         1 MOL         0.0547
     37 H6         27.5082   46.0624   43.7245 H         1 MOL         0.0547
     38 H7         27.2694   44.3278   45.3888 H         1 MOL         0.0580
     39 H8         29.0506   44.1464   45.5341 H         1 MOL         0.0580
     40 H9         33.8563   48.1405   40.1847 H         1 MOL         0.0455
     41 H10        34.2807   49.5691   42.3007 H         1 MOL         0.0899
     42 H11        28.6538   43.6363   40.6532 H         1 MOL         0.0467
     43 H12        31.5633   45.4016   38.0511 H         1 MOL         0.0457
     44 H13        29.0149   42.2996   36.5726 H         1 MOL         0.0462
     45 H14        28.0465   41.1050   38.7357 H         1 MOL         0.2477
     46 H15        31.6365   43.2462   35.5852 H         1 MOL         0.1778
     47 H16        29.9946   45.6202   35.1809 H         1 MOL         0.0667
     48 H17        31.3108   44.9958   34.1300 H         1 MOL         0.0667
     49 H18        30.5204   47.2847   36.9921 H         1 MOL         0.0548
     50 H19        32.0007   49.1415   37.6976 H         1 MOL         0.0587
     51 H20        35.0303   47.7437   34.9806 H         1 MOL         0.0587
     52 H21        33.5596   45.8671   34.2864 H         1 MOL         0.0548
@<TRIPOS>BOND
     1    1    2 1  
     2    1    6 1  
     3    2    3 1  
     4    3    4 1  
     5    4    5 1  
     6    4    7 1  
     7    5    6 1  
     8    7    8 ar 
     9    7   12 ar 
    10    8    9 ar 
    11    8   15 1  
    12    9   10 ar 
    13    9   13 1  
    14   10   11 ar 
    15   11   12 ar 
    16   11   16 1  
    17   13   14 2  
    18   14   15 1  
    19   16   17 ar 
    20   16   18 ar 
    21   17   21 ar 
    22   18   19 ar 
    23   19   20 ar 
    24   19   23 1  
    25   20   21 ar 
    26   21   22 1  
    27   23   24 1  
    28   24   25 1  
    29   25   26 ar 
    30   25   30 ar 
    31   26   27 ar 
    32   27   28 ar 
    33   28   29 ar 
    34   28   31 1  
    35   29   30 ar 
    36    2   32 1  
    37    2   33 1  
    38    3   34 1  
    39    3   35 1  
    40    5   36 1  
    41    5   37 1  
    42    6   38 1  
    43    6   39 1  
    44   13   40 1  
    45   14   41 1  
    46   17   42 1  
    47   18   43 1  
    48   20   44 1  
    49   22   45 1  
    50   23   46 1  
    51   24   47 1  
    52   24   48 1  
    53   26   49 1  
    54   27   50 1  
    55   29   51 1  
    56   30   52 1  
@<TRIPOS>SUBSTRUCTURE
     1 MOL         1

