### 
### Created by X-TOOL on Mon Sep 10 21:13:33 2018
### 

@<TRIPOS>MOLECULE
5xhr_ligand
   43    44     1     0     0
SMALL
GAST_HUCK


@<TRIPOS>ATOM
      1 O8         21.5500   88.2910   96.3380 O.2       1 PXH        -0.3743
      2 C7         22.7500   88.0390   96.3900 C.2       1 PXH         0.1110
      3 N4         23.4450   87.8810   98.6880 N.4       1 PXH         0.2535
      4 C3         22.7070   88.8290   99.5440 C.3       1 PXH         0.0459
      5 C11        21.8550   88.0540  100.5140 C.2       1 PXH         0.0859
      6 O13        20.7850   88.5770  100.9080 O.co2     1 PXH        -0.5642
      7 O12        22.2400   86.9180  100.8720 O.co2     1 PXH        -0.5642
      8 C2         23.7380   89.7390  100.2190 C.3       1 PXH         0.0707
      9 C10        24.3980   88.9830  101.3620 C.3       1 PXH        -0.0437
     10 C9         23.1280   91.0530  100.6950 C.3       1 PXH        -0.0437
     11 S1         24.9320   90.0280   98.9520 S.3       1 PXH        -0.0919
     12 C5         24.4650   88.6610   97.9340 C.3       1 PXH         0.0479
     13 C6         23.7700   89.0910   96.6630 C.3       1 PXH         0.1088
     14 C15        24.1440   89.6280   94.2180 C.3       1 PXH        -0.0126
     15 C17        25.2370   89.8230   93.1750 C.3       1 PXH        -0.0050
     16 C14        24.7680   89.1560   95.5220 C.3       1 PXH         0.0815
     17 O14        25.7800   90.0790   95.9380 O.3       1 PXH        -0.3887
     18 C1         24.7860   90.5720   91.9450 C.2       1 PXH         0.0122
     19 C4         25.4700   91.0820   90.8260 C.2       1 PXH        -0.0817
     20 C8         24.6070   91.7220   89.9100 C.2       1 PXH        -0.0932
     21 C12        23.2640   91.7010   90.2890 C.2       1 PXH        -0.0196
     22 S13        23.1020   90.9470   91.8160 S.3       1 PXH        -0.0444
     23 H1         23.0803   87.0135   96.2315 H         1 PXH         0.1355
     24 H2         22.8112   87.4317   98.0457 H         1 PXH         0.2044
     25 H3         23.8972   87.1830   99.2575 H         1 PXH         0.2044
     26 H4         22.0453   89.4493   98.9216 H         1 PXH         0.1039
     27 H5         25.1397   89.6318  101.8507 H         1 PXH         0.0246
     28 H6         24.8984   88.0862  100.9679 H         1 PXH         0.0246
     29 H7         23.6332   88.6843  102.0940 H         1 PXH         0.0246
     30 H8         22.6613   91.5702   99.8437 H         1 PXH         0.0246
     31 H9         23.9164   91.6894  101.1232 H         1 PXH         0.0246
     32 H10        22.3662   90.8473  101.4613 H         1 PXH         0.0246
     33 H11        25.3482   88.0489   97.6989 H         1 PXH         0.1006
     34 H12        23.2906   90.0722   96.7950 H         1 PXH         0.0620
     35 H13        23.4263   88.8748   93.8610 H         1 PXH         0.0317
     36 H14        23.6220   90.5817   94.3852 H         1 PXH         0.0317
     37 H15        25.5982   88.8319   92.8632 H         1 PXH         0.0453
     38 H16        26.0614   90.3845   93.6388 H         1 PXH         0.0453
     39 H17        25.2076   88.1604   95.3625 H         1 PXH         0.0626
     40 H18        25.3914   90.9361   96.0675 H         1 PXH         0.2100
     41 H19        26.5458   90.9929   90.6824 H         1 PXH         0.0276
     42 H20        24.9575   92.1896   88.9911 H         1 PXH         0.0371
     43 H21        22.4415   92.1046   89.7003 H         1 PXH         0.0598
@<TRIPOS>BOND
     1    2    1 2  
     2   13    2 1  
     3    3    4 1  
     4   12    3 1  
     5    4    5 1  
     6    8    4 1  
     7    5    6 ar 
     8    5    7 ar 
     9    8    9 1  
    10    8   10 1  
    11   11    8 1  
    12   12   11 1  
    13   13   12 1  
    14   16   13 1  
    15   14   15 1  
    16   14   16 1  
    17   15   18 1  
    18   16   17 1  
    19   18   19 2  
    20   18   22 1  
    21   19   20 1  
    22   20   21 2  
    23   21   22 1  
    24    2   23 1  
    25    3   24 1  
    26    3   25 1  
    27    4   26 1  
    28    9   27 1  
    29    9   28 1  
    30    9   29 1  
    31   10   30 1  
    32   10   31 1  
    33   10   32 1  
    34   12   33 1  
    35   13   34 1  
    36   14   35 1  
    37   14   36 1  
    38   15   37 1  
    39   15   38 1  
    40   16   39 1  
    41   17   40 1  
    42   19   41 1  
    43   20   42 1  
    44   21   43 1  
@<TRIPOS>SUBSTRUCTURE
     1 PXH         1

