### 
### Created by X-TOOL on Wed Jan  1 15:39:35 2020
### 

@<TRIPOS>MOLECULE
5xhs_ligand
   69    71     1     0     0
SMALL
GAST_HUCK


@<TRIPOS>ATOM
      1 C1         14.6710  -27.8980   -2.2710 C.2       1 PHQ         0.3239
      2 O1         14.6930  -28.9420   -1.7300 O.2       1 PHQ        -0.3773
      3 O2         13.4420  -27.2100   -2.2650 O.3       1 PHQ        -0.2506
      4 C2         13.4600  -25.8360   -2.0240 C.3       1 PHQ         0.1113
      5 C3         13.2270  -25.5520   -0.5360 C.ar      1 PHQ        -0.0130
      6 C4         11.9580  -25.6170    0.0410 C.ar      1 PHQ        -0.0578
      7 C5         11.7790  -25.3400    1.3930 C.ar      1 PHQ        -0.0685
      8 C6         12.8650  -24.9880    2.1560 C.ar      1 PHQ        -0.0687
      9 C7         14.1260  -24.9170    1.5780 C.ar      1 PHQ        -0.0685
     10 C8         14.3100  -25.1950    0.2390 C.ar      1 PHQ        -0.0578
     11 C          18.3160  -28.0820   -2.7560 C.2       1 SLL         0.2319
     12 N          15.9080  -27.4610   -2.9310 N.am      1 SLL        -0.2405
     13 O          18.6220  -26.9490   -2.6160 O.2       1 SLL        -0.3808
     14 CA         16.9150  -28.5080   -3.1920 C.3       1 SLL         0.1392
     15 CB         16.9840  -28.9340   -4.6520 C.3       1 SLL        -0.0118
     16 CD         16.6070  -28.0380   -6.9810 C.3       1 SLL        -0.0325
     17 CE         15.1730  -28.0460   -7.4640 C.3       1 SLL         0.0309
     18 CG         16.6480  -27.7060   -5.5020 C.3       1 SLL        -0.0470
     19 CK         15.1740  -29.4310  -11.0490 C.3       1 SLL         0.0487
     20 CL         13.7330  -29.2540  -11.4640 C.3       1 SLL         0.0171
     21 CP         13.6480  -29.3840  -12.9580 C.2       1 SLL         0.0370
     22 CX         15.2730  -28.4900   -9.8800 C.2       1 SLL         0.1776
     23 OX         15.4450  -27.3370  -10.0510 O.2       1 SLL        -0.3970
     24 NZ         15.0890  -28.9950   -8.5550 N.am      1 SLL        -0.2869
     25 OP1        13.9480  -28.4030  -13.6880 O.co2     1 SLL        -0.5689
     26 OP2        13.2890  -30.4970  -13.3990 O.co2     1 SLL        -0.5689
     27 N          19.2310  -29.1850   -2.5330 N.am      1 MCM        -0.2295
     28 CA         20.5820  -29.0370   -2.0590 C.ar      1 MCM         0.0670
     29 C2         21.1990  -27.8180   -1.9520 C.ar      1 MCM         0.0001
     30 C3         22.4980  -27.7650   -1.4450 C.ar      1 MCM         0.1301
     31 C4         24.4960  -26.5690   -1.3540 C.2       1 MCM         0.2426
     32 C5         25.1320  -27.6540   -0.7130 C.2       1 MCM         0.0039
     33 C6         24.4260  -28.8660   -0.5400 C.2       1 MCM        -0.0346
     34 C7         23.1310  -28.9190   -1.0460 C.ar      1 MCM         0.0189
     35 C8         22.5030  -30.1370   -1.1310 C.ar      1 MCM        -0.0630
     36 C9         21.2180  -30.1800   -1.6230 C.ar      1 MCM        -0.0419
     37 C10        24.9740  -30.1240    0.1670 C.3       1 MCM        -0.0261
     38 O1         23.1500  -26.5610   -1.3610 O.3       1 MCM        -0.2185
     39 O2         25.1020  -25.6890   -1.8920 O.2       1 MCM        -0.3892
     40 H1         12.6663  -25.3540   -2.6136 H         1 PHQ         0.0776
     41 H2         14.4372  -25.4284   -2.3222 H         1 PHQ         0.0776
     42 H3         11.1037  -25.8858   -0.5697 H         1 PHQ         0.0557
     43 H4         10.7929  -25.4015    1.8390 H         1 PHQ         0.0599
     44 H5         12.7382  -24.7655    3.2093 H         1 PHQ         0.0559
     45 H6         14.9781  -24.6391    2.1877 H         1 PHQ         0.0599
     46 H7         15.2990  -25.1331   -0.2005 H         1 PHQ         0.0557
     47 H8         16.0596  -26.5069   -3.1893 H         1 PHQ         0.1899
     48 H9         16.6256  -29.3877   -2.5984 H         1 PHQ         0.0805
     49 H10        16.2559  -29.7357   -4.8449 H         1 PHQ         0.0312
     50 H11        17.9960  -29.2922   -4.8920 H         1 PHQ         0.0312
     51 H12        17.1770  -27.2820   -7.5410 H         1 PHQ         0.0285
     52 H13        17.0534  -29.0298   -7.1453 H         1 PHQ         0.0285
     53 H14        14.8889  -27.0431   -7.8154 H         1 PHQ         0.0520
     54 H15        14.5028  -28.3519   -6.6472 H         1 PHQ         0.0520
     55 H16        17.4136  -26.9348   -5.3315 H         1 PHQ         0.0268
     56 H17        15.6643  -27.3200   -5.1965 H         1 PHQ         0.0268
     57 H18        15.8623  -29.1409  -11.8565 H         1 PHQ         0.0520
     58 H19        15.3797  -30.4685  -10.7469 H         1 PHQ         0.0520
     59 H20        13.3780  -28.2590  -11.1574 H         1 PHQ         0.0455
     60 H21        13.1122  -30.0275  -10.9884 H         1 PHQ         0.0455
     61 H22        14.9095  -29.9645   -8.3882 H         1 PHQ         0.1851
     62 H23        18.9012  -30.1101   -2.7211 H         1 PHQ         0.2293
     63 H24        20.6875  -26.9118   -2.2556 H         1 PHQ         0.0445
     64 H25        26.1562  -27.5581   -0.3555 H         1 PHQ         0.0388
     65 H26        23.0074  -31.0439   -0.8179 H         1 PHQ         0.0608
     66 H27        20.6969  -31.1294   -1.6684 H         1 PHQ         0.0462
     67 H28        26.0012  -29.9330    0.5110 H         1 PHQ         0.0431
     68 H29        24.9743  -30.9694   -0.5368 H         1 PHQ         0.0431
     69 H30        24.3371  -30.3660    1.0306 H         1 PHQ         0.0431
@<TRIPOS>BOND
     1    1    2 2  
     2    1    3 1  
     3   12    1 am 
     4    3    4 1  
     5    4    5 1  
     6    5    6 ar 
     7    5   10 ar 
     8    6    7 ar 
     9    7    8 ar 
    10    9    8 ar 
    11   10    9 ar 
    12   11   13 2  
    13   11   14 1  
    14   27   11 am 
    15   14   12 1  
    16   14   15 1  
    17   15   18 1  
    18   16   17 1  
    19   18   16 1  
    20   17   24 1  
    21   19   20 1  
    22   22   19 1  
    23   20   21 1  
    24   21   25 ar 
    25   21   26 ar 
    26   22   23 2  
    27   24   22 am 
    28   28   27 1  
    29   29   28 ar 
    30   28   36 ar 
    31   30   29 ar 
    32   30   34 ar 
    33   38   30 1  
    34   31   32 1  
    35   31   38 1  
    36   31   39 2  
    37   32   33 2  
    38   33   34 1  
    39   33   37 1  
    40   34   35 ar 
    41   35   36 ar 
    42    4   40 1  
    43    4   41 1  
    44    6   42 1  
    45    7   43 1  
    46    8   44 1  
    47    9   45 1  
    48   10   46 1  
    49   12   47 1  
    50   14   48 1  
    51   15   49 1  
    52   15   50 1  
    53   16   51 1  
    54   16   52 1  
    55   17   53 1  
    56   17   54 1  
    57   18   55 1  
    58   18   56 1  
    59   19   57 1  
    60   19   58 1  
    61   20   59 1  
    62   20   60 1  
    63   24   61 1  
    64   27   62 1  
    65   29   63 1  
    66   32   64 1  
    67   35   65 1  
    68   36   66 1  
    69   37   67 1  
    70   37   68 1  
    71   37   69 1  
@<TRIPOS>SUBSTRUCTURE
     1 PHQ         1

