### 
### Created by X-TOOL on Wed Jan  1 15:39:36 2020
### 

@<TRIPOS>MOLECULE
5xig_ligand
   41    43     1     0     0
SMALL
GAST_HUCK


@<TRIPOS>ATOM
      1 C1          3.3920   -2.1910  -33.8520 C.ar      1 87F        -0.0499
      2 C2          4.2620   -1.6810  -34.7820 C.ar      1 87F        -0.0643
      3 C3          5.5590   -1.4350  -34.4290 C.ar      1 87F        -0.0633
      4 C7          3.3470   -3.1820  -30.4410 C.2       1 87F         0.1297
      5 C6          3.8160   -2.4260  -32.5660 C.ar      1 87F         0.0242
      6 O2          3.7390   -2.3440  -24.7650 O.2       1 87F        -0.3856
      7 C4          5.9870   -1.6810  -33.1500 C.ar      1 87F        -0.0479
      8 C5          5.1200   -2.1820  -32.2140 C.ar      1 87F         0.0645
      9 O1          6.7000   -2.2200  -30.6080 O.2       1 87F        -0.3847
     10 C8          5.5560   -2.4220  -30.9380 C.2       1 87F         0.2408
     11 N1          2.9410   -2.9460  -31.6560 N.2       1 87F        -0.2956
     12 N2          4.6310   -2.9370  -30.0590 N.am      1 87F        -0.1840
     13 C9          5.0250   -3.1820  -28.6680 C.3       1 87F         0.0717
     14 C10         4.8610   -1.9100  -27.8030 C.3       1 87F        -0.0163
     15 C11         5.8240   -1.9420  -26.6150 C.3       1 87F         0.0095
     16 C12         5.4610   -0.9300  -25.5080 C.3       1 87F         0.0505
     17 N3          5.4290    0.4330  -25.9970 N.4       1 87F         0.2456
     18 C16         5.2200    1.3740  -24.9040 C.3       1 87F        -0.0295
     19 C13         4.1680   -1.2330  -24.8370 C.2       1 87F         0.1525
     20 C14         3.4770   -0.1530  -24.1990 C.3       1 87F         0.0315
     21 C15         4.4360    0.8440  -23.7620 C.3       1 87F         0.0035
     22 H1          2.3678   -2.4091  -34.1321 H         1 87F         0.0573
     23 H2          3.9227   -1.4744  -35.7906 H         1 87F         0.0633
     24 H3          6.2529   -1.0434  -35.1640 H         1 87F         0.0570
     25 H4          2.6434   -3.5846  -29.7138 H         1 87F         0.1522
     26 H5          7.0164   -1.4782  -32.8775 H         1 87F         0.0648
     27 H6          6.0785   -3.4974  -28.6446 H         1 87F         0.0634
     28 H7          4.3936   -3.9812  -28.2525 H         1 87F         0.0634
     29 H8          3.8276   -1.8567  -27.4299 H         1 87F         0.0297
     30 H9          5.0748   -1.0237  -28.4184 H         1 87F         0.0297
     31 H10         6.8361   -1.7125  -26.9796 H         1 87F         0.0347
     32 H11         5.8107   -2.9530  -26.1818 H         1 87F         0.0347
     33 H12         6.2520   -0.9933  -24.7462 H         1 87F         0.1091
     34 H13         4.6772    0.5274  -26.6617 H         1 87F         0.2035
     35 H14         6.3054    0.6419  -26.4490 H         1 87F         0.2035
     36 H15         4.6893    2.2502  -25.3048 H         1 87F         0.0816
     37 H16         6.2059    1.6833  -24.5267 H         1 87F         0.0816
     38 H17         2.9233   -0.5352  -23.3288 H         1 87F         0.0498
     39 H18         2.7727    0.3029  -24.9105 H         1 87F         0.0498
     40 H19         3.8967    1.6737  -23.2817 H         1 87F         0.0342
     41 H20         5.1243    0.3855  -23.0368 H         1 87F         0.0342
@<TRIPOS>BOND
     1    1    2 ar 
     2    5    1 ar 
     3    3    2 ar 
     4    7    3 ar 
     5    4   11 2  
     6   12    4 1  
     7    8    5 ar 
     8   11    5 1  
     9   19    6 2  
    10    8    7 ar 
    11   10    8 1  
    12   10    9 2  
    13   12   10 am 
    14   13   12 1  
    15   14   13 1  
    16   15   14 1  
    17   16   15 1  
    18   16   17 1  
    19   16   19 1  
    20   17   18 1  
    21   18   21 1  
    22   19   20 1  
    23   20   21 1  
    24    1   22 1  
    25    2   23 1  
    26    3   24 1  
    27    4   25 1  
    28    7   26 1  
    29   13   27 1  
    30   13   28 1  
    31   14   29 1  
    32   14   30 1  
    33   15   31 1  
    34   15   32 1  
    35   16   33 1  
    36   17   34 1  
    37   17   35 1  
    38   18   36 1  
    39   18   37 1  
    40   20   38 1  
    41   20   39 1  
    42   21   40 1  
    43   21   41 1  
@<TRIPOS>SUBSTRUCTURE
     1 87F         1

