### 
### Created by X-TOOL on Wed Jan  1 15:39:36 2020
### 

@<TRIPOS>MOLECULE
5xih_ligand
   41    43     1     0     0
SMALL
GAST_HUCK


@<TRIPOS>ATOM
      1 O20         6.9510  -13.1860   23.8880 O.2       1 86U        -0.3856
      2 C19         7.1570  -14.3170   24.3260 C.2       1 86U         0.1525
      3 C18         6.3530  -15.4820   23.8330 C.3       1 86U         0.0315
      4 C17         7.2980  -16.6110   23.3500 C.3       1 86U         0.0035
      5 C16         8.6460  -16.5510   24.1110 C.3       1 86U        -0.0295
      6 N15         8.4770  -15.9930   25.4630 N.4       1 86U         0.2456
      7 C14         8.2210  -14.5530   25.3660 C.3       1 86U         0.0505
      8 C13         7.7570  -13.9870   26.7100 C.3       1 86U         0.0095
      9 C12         8.8820  -13.1550   27.3290 C.3       1 86U        -0.0164
     10 C11         8.2810  -11.9800   28.1030 C.3       1 86U         0.0713
     11 N10         7.7530  -12.4230   29.4140 N.am      1 86U        -0.1855
     12 C22         8.5930  -13.0210   30.3240 C.2       1 86U         0.2369
     13 O23         9.7840  -13.2000   30.0760 O.2       1 86U        -0.3865
     14 C06         7.9890  -13.4250   31.5890 C.ar      1 86U         0.0592
     15 C05         8.7630  -14.0370   32.5670 C.ar      1 86U        -0.0153
     16 C03         8.1840  -14.4210   33.7710 C.ar      1 86U         0.1638
     17 F40         8.9350  -15.0150   34.7220 F         1 86U        -0.1882
     18 C02         6.8310  -14.1930   33.9950 C.ar      1 86U         0.1644
     19 F41         6.2690  -14.5660   35.1650 F         1 86U        -0.1820
     20 C24         6.0570  -13.5810   33.0160 C.ar      1 86U        -0.0174
     21 C07         6.6340  -13.1960   31.8110 C.ar      1 86U         0.0189
     22 N08         5.8460  -12.5780   30.8260 N.2       1 86U        -0.2995
     23 C09         6.4420  -12.2370   29.7130 C.2       1 86U         0.1280
     24 H1          5.7161  -15.1575   22.9970 H         1 86U         0.0498
     25 H2          5.7211  -15.8604   24.6500 H         1 86U         0.0498
     26 H3          7.4847  -16.4910   22.2726 H         1 86U         0.0342
     27 H4          6.8216  -17.5854   23.5334 H         1 86U         0.0342
     28 H5          9.3468  -15.9173   23.5477 H         1 86U         0.0816
     29 H6          9.0561  -17.5684   24.1928 H         1 86U         0.0816
     30 H7          9.3160  -16.1501   25.9991 H         1 86U         0.2035
     31 H8          7.6983  -16.4432   25.9179 H         1 86U         0.2035
     32 H9          9.1471  -14.0423   25.0636 H         1 86U         0.1091
     33 H10         7.4982  -14.8147   27.3867 H         1 86U         0.0347
     34 H11         6.8734  -13.3506   26.5544 H         1 86U         0.0347
     35 H12         9.5364  -12.7725   26.5319 H         1 86U         0.0297
     36 H13         9.4686  -13.7840   28.0147 H         1 86U         0.0297
     37 H14         7.4612  -11.5429   27.5141 H         1 86U         0.0633
     38 H15         9.0601  -11.2209   28.2668 H         1 86U         0.0633
     39 H16         9.8178  -14.2150   32.3913 H         1 86U         0.0625
     40 H17         5.0022  -13.4037   33.1922 H         1 86U         0.0548
     41 H18         5.8272  -11.7575   28.9527 H         1 86U         0.1510
@<TRIPOS>BOND
     1    1    2 2  
     2    2    3 1  
     3    2    7 1  
     4    3    4 1  
     5    4    5 1  
     6    5    6 1  
     7    6    7 1  
     8    7    8 1  
     9    8    9 1  
    10    9   10 1  
    11   10   11 1  
    12   11   12 am 
    13   11   23 1  
    14   12   13 2  
    15   12   14 1  
    16   14   15 ar 
    17   14   21 ar 
    18   15   16 ar 
    19   16   17 1  
    20   16   18 ar 
    21   18   19 1  
    22   18   20 ar 
    23   20   21 ar 
    24   21   22 1  
    25   22   23 2  
    26    3   24 1  
    27    3   25 1  
    28    4   26 1  
    29    4   27 1  
    30    5   28 1  
    31    5   29 1  
    32    6   30 1  
    33    6   31 1  
    34    7   32 1  
    35    8   33 1  
    36    8   34 1  
    37    9   35 1  
    38    9   36 1  
    39   10   37 1  
    40   10   38 1  
    41   15   39 1  
    42   20   40 1  
    43   23   41 1  
@<TRIPOS>SUBSTRUCTURE
     1 86U         1

