### 
### Created by X-TOOL on Wed Jan  1 15:39:35 2020
### 

@<TRIPOS>MOLECULE
5xii_ligand
   41    43     1     0     0
SMALL
GAST_HUCK


@<TRIPOS>ATOM
      1 C12        12.7810   -2.6770   -9.1970 C.3       1 86X         0.0717
      2 C14        13.8650   -1.4260   -7.3250 C.3       1 86X         0.0095
      3 C15        13.5090   -0.6420   -6.0600 C.3       1 86X         0.0505
      4 C17        13.0310    1.5250   -5.1530 C.3       1 86X        -0.0295
      5 C20        12.0980   -0.9500   -5.6610 C.2       1 86X         0.1525
      6 O21        11.8080   -2.0480   -5.1890 O.2       1 86X        -0.3856
      7 C19        11.0390    0.1080   -5.8480 C.3       1 86X         0.0315
      8 C18        11.4870    1.4290   -5.1760 C.3       1 86X         0.0035
      9 N16        13.6330    0.8020   -6.2850 N.4       1 86X         0.2456
     10 C13        12.6480   -1.4820   -8.2510 C.3       1 86X        -0.0163
     11 N11        12.3230   -2.3270  -10.5610 N.am      1 86X        -0.1845
     12 C22        13.2340   -1.8890  -11.5060 C.2       1 86X         0.2382
     13 O23        14.4240   -1.7910  -11.2110 O.2       1 86X        -0.3862
     14 C06        12.7880   -1.5680  -12.7700 C.ar      1 86X         0.0613
     15 C05        13.6840   -1.1260  -13.7370 C.ar      1 86X        -0.0352
     16 C03        13.2280   -0.8040  -15.0090 C.ar      1 86X         0.0718
     17 CL4        14.3370   -0.2550  -16.2110 Cl        1 86X        -0.0768
     18 C02        11.8770   -0.9250  -15.3130 C.ar      1 86X         0.1449
     19 F01        11.4290   -0.6100  -16.5600 F         1 86X        -0.1809
     20 C08        10.9830   -1.3680  -14.3440 C.ar      1 86X        -0.0161
     21 C07        11.4420   -1.6890  -13.0720 C.ar      1 86X         0.0224
     22 N09        10.5450   -2.1340  -12.0980 N.2       1 86X        -0.2966
     23 C10        10.9610   -2.4400  -10.8970 C.2       1 86X         0.1296
     24 H1         12.1704   -3.5083   -8.8147 H         1 86X         0.0634
     25 H2         13.8357   -2.9863   -9.2400 H         1 86X         0.0634
     26 H3         14.1640   -2.4484   -7.0506 H         1 86X         0.0347
     27 H4         14.6972   -0.9272   -7.8433 H         1 86X         0.0347
     28 H5         14.1912   -0.9402   -5.2503 H         1 86X         0.1091
     29 H6         13.4023    1.0904   -4.2132 H         1 86X         0.0816
     30 H7         13.3243    2.5837   -5.2085 H         1 86X         0.0816
     31 H8         10.0985   -0.2329   -5.3905 H         1 86X         0.0498
     32 H9         10.8824    0.2809   -6.9230 H         1 86X         0.0498
     33 H10        11.0792    2.2798   -5.7414 H         1 86X         0.0342
     34 H11        11.1065    1.4581   -4.1443 H         1 86X         0.0342
     35 H12        13.1552    1.0522   -7.1365 H         1 86X         0.2035
     36 H13        14.6074    1.0483   -6.3617 H         1 86X         0.2035
     37 H14        11.7340   -1.5911   -7.6488 H         1 86X         0.0297
     38 H15        12.5915   -0.5538   -8.8386 H         1 86X         0.0297
     39 H16        14.7373   -1.0328  -13.4985 H         1 86X         0.0647
     40 H17         9.9294   -1.4628  -14.5806 H         1 86X         0.0554
     41 H18        10.2476   -2.7853  -10.1502 H         1 86X         0.1522
@<TRIPOS>BOND
     1   10    1 1  
     2    1   11 1  
     3    3    2 1  
     4    2   10 1  
     5    3    5 1  
     6    9    3 1  
     7    4    8 1  
     8    4    9 1  
     9    5    6 2  
    10    5    7 1  
    11    7    8 1  
    12   11   12 am 
    13   11   23 1  
    14   12   13 2  
    15   12   14 1  
    16   14   15 ar 
    17   14   21 ar 
    18   15   16 ar 
    19   16   17 1  
    20   16   18 ar 
    21   18   19 1  
    22   18   20 ar 
    23   20   21 ar 
    24   21   22 1  
    25   22   23 2  
    26    1   24 1  
    27    1   25 1  
    28    2   26 1  
    29    2   27 1  
    30    3   28 1  
    31    4   29 1  
    32    4   30 1  
    33    7   31 1  
    34    7   32 1  
    35    8   33 1  
    36    8   34 1  
    37    9   35 1  
    38    9   36 1  
    39   10   37 1  
    40   10   38 1  
    41   15   39 1  
    42   20   40 1  
    43   23   41 1  
@<TRIPOS>SUBSTRUCTURE
     1 86X         1

