### 
### Created by X-TOOL on Wed Jan  1 15:39:36 2020
### 

@<TRIPOS>MOLECULE
5xij_ligand
   44    46     1     0     0
SMALL
GAST_HUCK


@<TRIPOS>ATOM
      1 C11         4.4230  -13.1520    3.4470 C.ar      1 873         0.0242
      2 C12         3.0770  -13.4660    3.1820 C.ar      1 873         0.0645
      3 C13         2.2160  -12.5030    2.6750 C.ar      1 873        -0.0479
      4 C14         2.6910  -11.1980    2.4270 C.ar      1 873        -0.0633
      5 O18         1.4570  -15.0680    3.2150 O.2       1 873        -0.3847
      6 C17         2.5810  -14.7840    3.4340 C.2       1 873         0.2408
      7 C15         4.0180  -10.8800    2.6960 C.ar      1 873        -0.0643
      8 C16         4.8950  -11.8660    3.1970 C.ar      1 873        -0.0499
      9 N10         5.2690  -14.1350    3.9540 N.2       1 873        -0.2956
     10 C09         4.7850  -15.3060    4.1630 C.2       1 873         0.1298
     11 N08         3.4800  -15.6970    3.9210 N.am      1 873        -0.1815
     12 C07         3.0260  -17.0740    4.2190 C.3       1 873         0.0974
     13 C06         3.4160  -18.0500    3.0940 C.3       1 873         0.0894
     14 O19         3.2970  -17.3930    1.8310 O.3       1 873        -0.3887
     15 C05         2.4870  -19.2870    3.1230 C.3       1 873         0.0214
     16 C04         2.5580  -20.1390    1.8790 C.3       1 873         0.0063
     17 N03         3.2630  -19.4310    0.7880 N.4       1 873         0.2311
     18 C02         3.1310  -20.1490   -0.5000 C.3       1 873        -0.0332
     19 C20         3.2480  -21.4790    2.1990 C.3       1 873         0.0979
     20 O22         4.3040  -21.2680    3.1620 O.3       1 873        -0.3862
     21 C21         3.8350  -22.0940    0.9280 C.3       1 873        -0.0168
     22 C01         2.9980  -21.6720   -0.2830 C.3       1 873        -0.0100
     23 H1          1.1813  -12.7528    2.4701 H         1 873         0.0648
     24 H2          2.0226  -10.4440    2.0273 H         1 873         0.0570
     25 H3          4.3794   -9.8732    2.5206 H         1 873         0.0633
     26 H4          5.9341  -11.6226    3.3868 H         1 873         0.0573
     27 H5          5.4616  -16.0579    4.5664 H         1 873         0.1522
     28 H6          1.9316  -17.0740    4.3293 H         1 873         0.0660
     29 H7          3.4893  -17.4080    5.1591 H         1 873         0.0660
     30 H8          4.4569  -18.3745    3.2395 H         1 873         0.0624
     31 H9          3.5379  -17.9961    1.1376 H         1 873         0.2099
     32 H10         1.4508  -18.9383    3.2444 H         1 873         0.0347
     33 H11         2.7677  -19.9100    3.9850 H         1 873         0.0347
     34 H12         1.5314  -20.3487    1.5442 H         1 873         0.0877
     35 H13         4.2404  -19.3576    1.0232 H         1 873         0.2017
     36 H14         2.8708  -18.5077    0.6898 H         1 873         0.2017
     37 H15         4.0224  -19.9511   -1.1134 H         1 873         0.0814
     38 H16         2.2362  -19.7825   -1.0244 H         1 873         0.0814
     39 H17         2.5056  -22.1712    2.6228 H         1 873         0.0650
     40 H18         4.7253  -22.0973    3.3551 H         1 873         0.2100
     41 H19         3.8262  -23.1906    1.0144 H         1 873         0.0294
     42 H20         4.8698  -21.7448    0.7969 H         1 873         0.0294
     43 H21         3.3562  -22.2019   -1.1779 H         1 873         0.0318
     44 H22         1.9426  -21.9255   -0.1046 H         1 873         0.0318
@<TRIPOS>BOND
     1    1    2 ar 
     2    1    8 ar 
     3    1    9 1  
     4    2    3 ar 
     5    2    6 1  
     6    3    4 ar 
     7    4    7 ar 
     8    6    5 2  
     9    6   11 am 
    10    7    8 ar 
    11    9   10 2  
    12   10   11 1  
    13   11   12 1  
    14   12   13 1  
    15   13   14 1  
    16   13   15 1  
    17   15   16 1  
    18   16   17 1  
    19   16   19 1  
    20   17   18 1  
    21   18   22 1  
    22   19   20 1  
    23   19   21 1  
    24   21   22 1  
    25    3   23 1  
    26    4   24 1  
    27    7   25 1  
    28    8   26 1  
    29   10   27 1  
    30   12   28 1  
    31   12   29 1  
    32   13   30 1  
    33   14   31 1  
    34   15   32 1  
    35   15   33 1  
    36   16   34 1  
    37   17   35 1  
    38   17   36 1  
    39   18   37 1  
    40   18   38 1  
    41   19   39 1  
    42   20   40 1  
    43   21   41 1  
    44   21   42 1  
    45   22   43 1  
    46   22   44 1  
@<TRIPOS>SUBSTRUCTURE
     1 873         1

