### 
### Created by X-TOOL on Wed Jan  1 15:39:37 2020
### 

@<TRIPOS>MOLECULE
5xiw_ligand
   60    62     1     0     0
SMALL
GAST_HUCK


@<TRIPOS>ATOM
      1 O4        -15.5730   69.6110  -45.8450 O.2       1 LOC        -0.3974
      2 C12       -16.5890   69.9790  -46.2650 C.2       1 LOC         0.1731
      3 C13       -16.6050   70.9010  -47.4610 C.3       1 LOC         0.0257
      4 N1        -17.8840   69.5870  -45.6590 N.am      1 LOC        -0.2834
      5 C11       -17.9640   68.7460  -44.5630 C.3       1 LOC         0.0498
      6 C14       -17.4460   67.3110  -44.9080 C.3       1 LOC         0.0063
      7 C15       -18.0110   66.7640  -46.1730 C.3       1 LOC         0.0301
      8 C10       -19.3910   68.7740  -43.9860 C.3       1 LOC        -0.0223
      9 C9        -19.5630   67.8580  -42.7290 C.3       1 LOC        -0.0291
     10 C8        -18.2580   67.6390  -41.9160 C.ar      1 LOC        -0.0676
     11 C7        -18.2100   68.0250  -40.4870 C.ar      1 LOC        -0.0566
     12 C5        -17.0120   67.8470  -39.7450 C.ar      1 LOC         0.0981
     13 C3        -15.9010   67.3010  -40.3600 C.ar      1 LOC         0.1337
     14 C1        -15.9210   66.9130  -41.7690 C.ar      1 LOC         0.1069
     15 O1        -14.7020   66.3520  -42.3360 O.3       1 LOC        -0.3336
     16 C2        -13.7330   67.3220  -42.7430 C.3       1 LOC         0.0546
     17 O2        -14.7030   67.1210  -39.5890 O.3       1 LOC        -0.3356
     18 C4        -14.6430   65.8430  -38.9270 C.3       1 LOC         0.0525
     19 O3        -16.9350   68.2100  -38.3520 O.3       1 LOC        -0.3338
     20 C6        -17.7480   69.2500  -37.9520 C.3       1 LOC         0.0549
     21 C22       -17.1750   67.0880  -42.5150 C.ar      1 LOC        -0.0271
     22 C21       -16.9770   66.6750  -43.8830 C.3       1 LOC        -0.0118
     23 C20       -16.9720   65.3030  -43.7290 C.3       1 LOC        -0.0396
     24 C19       -16.7310   64.3470  -44.6990 C.3       1 LOC        -0.0087
     25 C17       -17.0780   64.3790  -46.0860 C.3       1 LOC         0.1308
     26 C16       -17.7600   65.4600  -46.8150 C.2       1 LOC         0.1341
     27 O5        -18.1360   65.2850  -47.9860 O.2       1 LOC        -0.3888
     28 O6        -16.3160   63.4860  -46.9200 O.3       1 LOC        -0.3605
     29 C18       -16.9190   62.2930  -47.1910 C.3       1 LOC         0.0399
     30 H1        -17.6453   71.1466  -47.7207 H         1 LOC         0.0467
     31 H2        -16.1219   70.4029  -48.3145 H         1 LOC         0.0467
     32 H3        -16.0596   71.8251  -47.2190 H         1 LOC         0.0467
     33 H4        -18.7298   69.9430  -46.0564 H         1 LOC         0.1854
     34 H5        -17.2948   69.1467  -43.7874 H         1 LOC         0.0563
     35 H6        -16.4667   67.5801  -45.3305 H         1 LOC         0.0366
     36 H7        -17.7332   67.5034  -46.9386 H         1 LOC         0.0500
     37 H8        -19.0998   66.7874  -46.0186 H         1 LOC         0.0500
     38 H9        -20.0902   68.4349  -44.7645 H         1 LOC         0.0306
     39 H10       -19.6332   69.8085  -43.7010 H         1 LOC         0.0306
     40 H11       -19.9285   66.8765  -43.0651 H         1 LOC         0.0389
     41 H12       -20.3091   68.3196  -42.0655 H         1 LOC         0.0389
     42 H13       -19.0880   68.4428  -40.0079 H         1 LOC         0.0349
     43 H14       -12.8519   66.8091  -43.1561 H         1 LOC         0.0569
     44 H15       -13.4318   67.9262  -41.8745 H         1 LOC         0.0569
     45 H16       -14.1699   67.9767  -43.5114 H         1 LOC         0.0569
     46 H17       -13.7054   65.7693  -38.3565 H         1 LOC         0.0565
     47 H18       -14.6799   65.0393  -39.6772 H         1 LOC         0.0565
     48 H19       -15.4978   65.7445  -38.2417 H         1 LOC         0.0565
     49 H20       -17.6041   69.4354  -36.8773 H         1 LOC         0.0570
     50 H21       -18.7993   68.9873  -38.1412 H         1 LOC         0.0570
     51 H22       -17.4889   70.1567  -38.5184 H         1 LOC         0.0570
     52 H23       -15.9113   66.8944  -44.0450 H         1 LOC         0.0406
     53 H24       -17.9713   65.0607  -43.3383 H         1 LOC         0.0286
     54 H25       -16.2178   65.1105  -42.9517 H         1 LOC         0.0286
     55 H26       -17.2136   63.4363  -44.3148 H         1 LOC         0.0317
     56 H27       -15.6390   64.2147  -44.6908 H         1 LOC         0.0317
     57 H28       -17.9745   63.7510  -45.9776 H         1 LOC         0.0831
     58 H29       -16.2609   61.6865  -47.8306 H         1 LOC         0.0526
     59 H30       -17.8713   62.4733  -47.7113 H         1 LOC         0.0526
     60 H31       -17.1111   61.7570  -46.2498 H         1 LOC         0.0526
@<TRIPOS>BOND
     1    1    2 2  
     2    2    3 1  
     3    2    4 am 
     4    4    5 1  
     5    5    6 1  
     6    5    8 1  
     7    6    7 1  
     8    6   22 1  
     9    7   26 1  
    10    8    9 1  
    11    9   10 1  
    12   10   11 ar 
    13   10   21 ar 
    14   11   12 ar 
    15   12   13 ar 
    16   12   19 1  
    17   13   14 ar 
    18   13   17 1  
    19   14   15 1  
    20   14   21 ar 
    21   15   16 1  
    22   17   18 1  
    23   19   20 1  
    24   21   22 1  
    25   22   23 1  
    26   23   24 1  
    27   24   25 1  
    28   25   26 1  
    29   25   28 1  
    30   26   27 2  
    31   28   29 1  
    32    3   30 1  
    33    3   31 1  
    34    3   32 1  
    35    4   33 1  
    36    5   34 1  
    37    6   35 1  
    38    7   36 1  
    39    7   37 1  
    40    8   38 1  
    41    8   39 1  
    42    9   40 1  
    43    9   41 1  
    44   11   42 1  
    45   16   43 1  
    46   16   44 1  
    47   16   45 1  
    48   18   46 1  
    49   18   47 1  
    50   18   48 1  
    51   20   49 1  
    52   20   50 1  
    53   20   51 1  
    54   22   52 1  
    55   23   53 1  
    56   23   54 1  
    57   24   55 1  
    58   24   56 1  
    59   25   57 1  
    60   29   58 1  
    61   29   59 1  
    62   29   60 1  
@<TRIPOS>SUBSTRUCTURE
     1 LOC         1

