### 
### Created by X-TOOL on Mon Sep 10 21:13:33 2018
### 

@<TRIPOS>MOLECULE
5xkm_ligand
   44    46     1     0     0
SMALL
GAST_HUCK


@<TRIPOS>ATOM
      1 C18         5.5100   -1.3270    6.7230 C.ar      1 87R        -0.0666
      2 C22         7.2000   -0.5920    8.2340 C.ar      1 87R        -0.0666
      3 C19         6.4690   -1.9230    5.9350 C.ar      1 87R        -0.0392
      4 C21         8.1700   -1.1820    7.4560 C.ar      1 87R        -0.0392
      5 C1          5.2040    4.7850    9.9390 C.2       1 87R         0.0017
      6 C2          5.4270    3.3890   10.0320 C.2       1 87R         0.0717
      7 C17         5.8700   -0.6590    7.8750 C.ar      1 87R        -0.0289
      8 C20         7.7950   -1.8400    6.3060 C.ar      1 87R         0.0934
      9 C3          6.1220    3.2210   11.2100 C.2       1 87R         0.1820
     10 C6          6.8850    4.8210   12.8940 C.2       1 87R         0.1144
     11 C8          7.1970    2.3680   12.9920 C.2       1 87R         0.0231
     12 C7          7.3480    3.5820   13.5340 C.2       1 87R         0.0253
     13 C11         5.0150    2.3800    9.0910 C.2       1 87R         0.1740
     14 C10         8.0290    3.7230   14.8420 C.3       1 87R        -0.0265
     15 C16         3.2140   -0.5250   10.5930 C.3       1 87R        -0.0616
     16 C15         4.2800   -1.0780    9.6770 C.3       1 87R        -0.0245
     17 C14         4.8190   -0.0230    8.7280 C.3       1 87R         0.0687
     18 C24         9.3280   -1.4950    4.6250 C.3       1 87R         0.5451
     19 N5          5.7130    5.4510   10.9770 N.2       1 87R        -0.2070
     20 N9          6.6160    2.1410   11.8540 N.2       1 87R        -0.2627
     21 N4          6.2610    4.4800   11.7220 N.pl3     1 87R        -0.1358
     22 N13         5.3380    1.1030    9.4650 N.am      1 87R        -0.2810
     23 O12         4.4300    2.6750    8.0590 O.2       1 87R        -0.4088
     24 O23         8.7590   -2.4460    5.5210 O.3       1 87R        -0.2304
     25 F25         9.9450   -0.4600    5.2550 F         1 87R        -0.1402
     26 F26         8.4030   -0.9850    3.7770 F         1 87R        -0.1402
     27 F27        10.2550   -2.1640    3.8970 F         1 87R        -0.1402
     28 H1          4.4661   -1.3830    6.4365 H         1 87R         0.0531
     29 H2          7.4847   -0.0685    9.1395 H         1 87R         0.0531
     30 H3          6.1849   -2.4519    5.0325 H         1 87R         0.0525
     31 H4          9.2137   -1.1295    7.7443 H         1 87R         0.0525
     32 H5          4.6767    5.2607    9.1135 H         1 87R         0.0682
     33 H6          7.0145    5.8304   13.2817 H         1 87R         0.1263
     34 H7          7.5877    1.5135   13.5425 H         1 87R         0.0983
     35 H8          8.0601    4.7851   15.1266 H         1 87R         0.0367
     36 H9          9.0550    3.3339   14.7651 H         1 87R         0.0367
     37 H10         7.4776    3.1548   15.6056 H         1 87R         0.0367
     38 H11         2.8543   -1.3222   11.2602 H         1 87R         0.0232
     39 H12         2.3754   -0.1440    9.9917 H         1 87R         0.0232
     40 H13         3.6359    0.2938   11.1943 H         1 87R         0.0232
     41 H14         3.8490   -1.8998    9.0863 H         1 87R         0.0304
     42 H15         5.1095   -1.4620   10.2889 H         1 87R         0.0304
     43 H16         4.0025    0.3316    8.0818 H         1 87R         0.0695
     44 H17         5.9359    0.9505   10.2520 H         1 87R         0.1855
@<TRIPOS>BOND
     1    1    3 ar 
     2    7    1 ar 
     3    2    4 ar 
     4    7    2 ar 
     5    3    8 ar 
     6    4    8 ar 
     7    6    5 1  
     8    5   19 2  
     9    6    9 2  
    10   13    6 1  
    11   17    7 1  
    12    8   24 1  
    13    9   20 1  
    14    9   21 1  
    15   10   12 2  
    16   21   10 1  
    17   11   12 1  
    18   20   11 2  
    19   12   14 1  
    20   22   13 am 
    21   13   23 2  
    22   16   15 1  
    23   17   16 1  
    24   17   22 1  
    25   24   18 1  
    26   18   25 1  
    27   18   26 1  
    28   18   27 1  
    29   19   21 1  
    30    1   28 1  
    31    2   29 1  
    32    3   30 1  
    33    4   31 1  
    34    5   32 1  
    35   10   33 1  
    36   11   34 1  
    37   14   35 1  
    38   14   36 1  
    39   14   37 1  
    40   15   38 1  
    41   15   39 1  
    42   15   40 1  
    43   16   41 1  
    44   16   42 1  
    45   17   43 1  
    46   22   44 1  
@<TRIPOS>SUBSTRUCTURE
     1 87R         1

