### 
### Created by X-TOOL on Mon Sep 10 21:13:34 2018
### 

@<TRIPOS>MOLECULE
5xmp_ligand
   67    70     1     0     0
SMALL
GAST_HUCK


@<TRIPOS>ATOM
      1 F67       141.2070    6.2680  326.2720 F         1 8A3        -0.1689
      2 C56       141.3190    7.1940  327.2200 C.3       1 8A3         0.4065
      3 F64       142.0410    6.7010  328.2190 F         1 8A3        -0.1689
      4 F65       141.9600    8.2530  326.7340 F         1 8A3        -0.1689
      5 C54       139.9200    7.5880  327.7390 C.3       1 8A3         0.1244
      6 N51       138.9950    7.8720  326.5970 N.am      1 8A3        -0.2285
      7 C55       138.0610    6.7460  326.3010 C.3       1 8A3         0.0185
      8 S44       138.2530    9.3380  326.6200 S.o2      1 8A3         0.0706
      9 O52       137.8690    9.5260  325.2420 O.2       1 8A3        -0.1501
     10 O53       139.2000   10.3450  327.0400 O.2       1 8A3        -0.1501
     11 C41       136.9930    9.4300  327.6050 C.ar      1 8A3         0.1084
     12 C40       137.2650    9.4860  328.9660 C.ar      1 8A3        -0.0345
     13 C39       136.2380    9.5500  329.8860 C.ar      1 8A3        -0.0515
     14 C42       135.6610    9.4520  327.1640 C.ar      1 8A3        -0.0345
     15 C43       134.6210    9.4990  328.1000 C.ar      1 8A3        -0.0515
     16 C32       134.9050    9.5630  329.4670 C.ar      1 8A3        -0.0091
     17 C19       133.8440    9.5910  330.5110 C.ar      1 8A3         0.0180
     18 C18       134.0740    8.7880  331.6230 C.ar      1 8A3        -0.0161
     19 C17       133.1880    8.7200  332.6740 C.ar      1 8A3         0.0570
     20 C33       133.5670    7.8100  333.8250 C.3       1 8A3         0.3796
     21 F49       134.8290    8.0230  334.2110 F         1 8A3        -0.2194
     22 F48       133.4730    6.5650  333.3470 F         1 8A3        -0.2194
     23 F47       132.7930    8.0150  334.8810 F         1 8A3        -0.2194
     24 C16       131.9970    9.4520  332.5980 C.ar      1 8A3        -0.0408
     25 C20       132.6640   10.3320  330.4300 C.ar      1 8A3        -0.0373
     26 C15       131.6960   10.2880  331.4790 C.ar      1 8A3        -0.0914
     27 C4        130.3750   11.1020  331.4410 C.3       1 8A3        -0.0470
     28 C13       129.1680   10.2960  331.9810 C.3       1 8A3        -0.1081
     29 C34       127.8010   10.9990  331.8520 C.3       1 8A3        -0.0808
     30 C14       129.0810    8.8770  331.4080 C.3       1 8A3        -0.0808
     31 C3        130.5740   12.3410  332.3530 C.2       1 8A3         0.0689
     32 C8        131.0380   12.1520  333.5220 C.1       1 8A3         0.0454
     33 N9        131.4630   11.9610  334.6030 N.1       1 8A3        -0.3661
     34 C2        130.2480   13.6010  331.9440 C.2       1 8A3         0.2858
     35 N7        130.3980   14.6880  332.7110 N.pl3     1 8A3        -0.2573
     36 C5        130.0270   11.5260  330.0260 C.2       1 8A3        -0.0321
     37 C10       129.8990   10.8550  328.6800 C.2       1 8A3         0.0030
     38 C12       130.1030    9.4090  328.2840 C.3       1 8A3        -0.0262
     39 N63       129.5660   11.8240  327.7890 N.2       1 8A3        -0.2215
     40 N11       129.4500   13.1020  328.3510 N.pl3     1 8A3        -0.1712
     41 C6        129.7080   12.9090  329.6550 C.2       1 8A3         0.2821
     42 O1        129.7030   13.8780  330.6170 O.3       1 8A3        -0.1128
     43 H1        140.0071    8.4877  328.3659 H         1 8A3         0.0567
     44 H2        139.5109    6.7615  328.3386 H         1 8A3         0.0567
     45 H3        138.6185    5.7977  326.3005 H         1 8A3         0.0442
     46 H4        137.6006    6.9012  325.3141 H         1 8A3         0.0442
     47 H5        137.2756    6.7091  327.0703 H         1 8A3         0.0442
     48 H6        138.2934    9.4794  329.3088 H         1 8A3         0.0637
     49 H7        136.4679    9.5906  330.9446 H         1 8A3         0.0624
     50 H8        135.4383    9.4327  326.1033 H         1 8A3         0.0637
     51 H9        133.5908    9.4857  327.7630 H         1 8A3         0.0624
     52 H10       134.9812    8.1960  331.6633 H         1 8A3         0.0922
     53 H11       131.2832    9.3826  333.4109 H         1 8A3         0.0929
     54 H12       132.4797   10.9497  329.5585 H         1 8A3         0.0914
     55 H13       129.3513   10.1842  333.0598 H         1 8A3         0.0060
     56 H14       127.0141   10.3485  332.2614 H         1 8A3         0.0214
     57 H15       127.5926   11.2037  330.7915 H         1 8A3         0.0214
     58 H16       127.8215   11.9460  332.4112 H         1 8A3         0.0214
     59 H17       130.0589    8.3824  331.5035 H         1 8A3         0.0214
     60 H18       128.7976    8.9270  330.3463 H         1 8A3         0.0214
     61 H19       128.3242    8.3032  331.9630 H         1 8A3         0.0214
     62 H20       130.1342   15.6150  332.3478 H         1 8A3         0.2065
     63 H21       130.7773   14.5973  333.6643 H         1 8A3         0.2065
     64 H22       129.9185    9.2947  327.2056 H         1 8A3         0.0388
     65 H23       129.4028    8.7728  328.8452 H         1 8A3         0.0388
     66 H24       131.1360    9.1083  328.5132 H         1 8A3         0.0388
     67 H25       129.2200   13.9856  327.8743 H         1 8A3         0.2576
@<TRIPOS>BOND
     1    1    2 1  
     2    2    3 1  
     3    2    4 1  
     4    2    5 1  
     5    5    6 1  
     6    6    7 1  
     7    6    8 am 
     8    8    9 2  
     9    8   10 2  
    10    8   11 1  
    11   11   12 ar 
    12   11   14 ar 
    13   12   13 ar 
    14   13   16 ar 
    15   14   15 ar 
    16   15   16 ar 
    17   16   17 1  
    18   17   18 ar 
    19   17   25 ar 
    20   18   19 ar 
    21   19   20 1  
    22   19   24 ar 
    23   20   21 1  
    24   20   22 1  
    25   20   23 1  
    26   24   26 ar 
    27   25   26 ar 
    28   26   27 1  
    29   27   28 1  
    30   27   31 1  
    31   27   36 1  
    32   28   29 1  
    33   28   30 1  
    34   31   32 1  
    35   31   34 2  
    36   32   33 3  
    37   34   35 1  
    38   34   42 1  
    39   36   37 1  
    40   36   41 2  
    41   37   38 1  
    42   37   39 2  
    43   39   40 1  
    44   40   41 1  
    45   41   42 1  
    46    5   43 1  
    47    5   44 1  
    48    7   45 1  
    49    7   46 1  
    50    7   47 1  
    51   12   48 1  
    52   13   49 1  
    53   14   50 1  
    54   15   51 1  
    55   18   52 1  
    56   24   53 1  
    57   25   54 1  
    58   28   55 1  
    59   29   56 1  
    60   29   57 1  
    61   29   58 1  
    62   30   59 1  
    63   30   60 1  
    64   30   61 1  
    65   35   62 1  
    66   35   63 1  
    67   38   64 1  
    68   38   65 1  
    69   38   66 1  
    70   40   67 1  
@<TRIPOS>SUBSTRUCTURE
     1 8A3         1

