### 
### Created by X-TOOL on Mon Sep 10 21:13:34 2018
### 

@<TRIPOS>MOLECULE
5xmr_ligand
   69    73     1     0     0
SMALL
GAST_HUCK


@<TRIPOS>ATOM
      1 C2         29.9600   35.8240   97.0790 C.2       1 8AO         0.2858
      2 C3         30.2900   34.5940   97.5450 C.2       1 8AO         0.0689
      3 C4         30.1330   33.3330   96.6990 C.3       1 8AO        -0.0470
      4 C5         29.8330   33.6730   95.2600 C.2       1 8AO        -0.0321
      5 C6         29.5070   35.0260   94.8010 C.2       1 8AO         0.2821
      6 C8         30.7250   34.4330   98.7460 C.1       1 8AO         0.0454
      7 C10        29.7660   32.9040   93.9720 C.2       1 8AO         0.0030
      8 C12        30.0190   31.4440   93.6780 C.3       1 8AO        -0.0262
      9 C13        28.9240   32.5520   97.2740 C.3       1 8AO        -0.1081
     10 C14        28.8870   31.1050   96.7970 C.3       1 8AO        -0.0808
     11 C15        31.4500   32.5500   96.8040 C.ar      1 8AO        -0.0914
     12 C16        31.7060   31.7660   97.9470 C.ar      1 8AO        -0.0408
     13 C17        32.8800   31.0400   98.0750 C.ar      1 8AO         0.0570
     14 C18        33.8350   31.0940   97.0790 C.ar      1 8AO        -0.0161
     15 C19        33.6250   31.8510   95.9350 C.ar      1 8AO         0.0180
     16 C20        32.4430   32.5770   95.7940 C.ar      1 8AO        -0.0373
     17 O52        39.0010   32.4420   92.2330 O.2       1 8AO        -0.1673
     18 S44        37.8360   31.7010   91.8270 S.o2      1 8AO         0.0065
     19 O51        37.3430   32.2730   90.6300 O.2       1 8AO        -0.1673
     20 C56        38.1880   30.1450   91.3260 C.3       1 8AO         0.1043
     21 C57        38.6780   29.1730   92.3890 C.ar      1 8AO        -0.0217
     22 C62        39.4530   29.5600   93.5030 C.ar      1 8AO        -0.0588
     23 C61        39.8660   28.6130   94.4450 C.ar      1 8AO        -0.0685
     24 C60        39.5190   27.2700   94.2810 C.ar      1 8AO        -0.0687
     25 C59        38.7530   26.8720   93.1790 C.ar      1 8AO        -0.0685
     26 C58        38.3350   27.8190   92.2360 C.ar      1 8AO        -0.0588
     27 C41        36.6900   31.7650   92.9420 C.ar      1 8AO         0.0904
     28 C40        35.3390   31.7000   92.5820 C.ar      1 8AO        -0.0361
     29 C39        34.3400   31.7200   93.5500 C.ar      1 8AO        -0.0515
     30 C42        37.0300   31.8740   94.2910 C.ar      1 8AO        -0.0361
     31 C43        36.0310   31.9060   95.2490 C.ar      1 8AO        -0.0515
     32 C32        34.6810   31.8420   94.8880 C.ar      1 8AO        -0.0091
     33 C33        33.1320   30.2290   99.3140 C.3       1 8AO         0.3796
     34 F49        32.0400   29.9820  100.0260 F         1 8AO        -0.2194
     35 F48        33.9320   30.9830  100.0340 F         1 8AO        -0.2194
     36 F47        33.7360   29.0960   98.9840 F         1 8AO        -0.2194
     37 C34        27.5460   33.2070   97.0710 C.3       1 8AO        -0.0808
     38 N9         31.1260   34.2970   99.8290 N.1       1 8AO        -0.3661
     39 N7         30.0820   36.9360   97.8240 N.pl3     1 8AO        -0.2573
     40 N54        29.4440   33.8050   93.0180 N.2       1 8AO        -0.2215
     41 N11        29.2710   35.1270   93.4740 N.pl3     1 8AO        -0.1712
     42 O1         29.4530   36.0350   95.7230 O.3       1 8AO        -0.1128
     43 H1         29.8689   31.2547   92.6049 H         1 8AO         0.0388
     44 H2         29.3199   30.8261   94.2606 H         1 8AO         0.0388
     45 H3         31.0525   31.1880   93.9544 H         1 8AO         0.0388
     46 H4         29.0859   32.5204   98.3616 H         1 8AO         0.0060
     47 H5         28.0134   30.5977   97.2323 H         1 8AO         0.0214
     48 H6         29.8058   30.5905   97.1149 H         1 8AO         0.0214
     49 H7         28.8150   31.0824   95.6996 H         1 8AO         0.0214
     50 H8         30.9700   31.7300   98.7420 H         1 8AO         0.0929
     51 H9         34.7591   30.5388   97.1920 H         1 8AO         0.0922
     52 H10        32.2819   33.1694   94.9006 H         1 8AO         0.0914
     53 H11        38.9681   30.2132   90.5535 H         1 8AO         0.0667
     54 H12        37.2725   29.7225   90.8863 H         1 8AO         0.0667
     55 H13        39.7304   30.6002   93.6294 H         1 8AO         0.0557
     56 H14        40.4548   28.9207   95.3016 H         1 8AO         0.0599
     57 H15        39.8434   26.5346   95.0084 H         1 8AO         0.0559
     58 H16        38.4831   25.8294   93.0555 H         1 8AO         0.0599
     59 H17        37.7435   27.5058   91.3833 H         1 8AO         0.0557
     60 H18        35.0674   31.6332   91.5347 H         1 8AO         0.0637
     61 H19        33.2988   31.6405   93.2590 H         1 8AO         0.0624
     62 H20        38.0710   31.9333   94.5873 H         1 8AO         0.0637
     63 H21        36.2995   31.9819   96.2965 H         1 8AO         0.0624
     64 H22        27.5814   34.2504   97.4176 H         1 8AO         0.0214
     65 H23        26.7890   32.6548   97.6472 H         1 8AO         0.0214
     66 H24        27.2828   33.1841   96.0032 H         1 8AO         0.0214
     67 H25        29.8196   37.8509   97.4304 H         1 8AO         0.2065
     68 H26        30.4379   36.8732   98.7885 H         1 8AO         0.2065
     69 H27        29.0248   35.9656   92.9291 H         1 8AO         0.2576
@<TRIPOS>BOND
     1    2    1 2  
     2    1   39 1  
     3    1   42 1  
     4    3    2 1  
     5    2    6 1  
     6    3    4 1  
     7    3    9 1  
     8   11    3 1  
     9    4    5 2  
    10    4    7 1  
    11    5   41 1  
    12    5   42 1  
    13    6   38 3  
    14    7    8 1  
    15    7   40 2  
    16    9   10 1  
    17    9   37 1  
    18   11   12 ar 
    19   16   11 ar 
    20   13   12 ar 
    21   14   13 ar 
    22   13   33 1  
    23   15   14 ar 
    24   15   16 ar 
    25   32   15 1  
    26   18   17 2  
    27   18   19 2  
    28   18   20 1  
    29   27   18 1  
    30   20   21 1  
    31   21   22 ar 
    32   21   26 ar 
    33   22   23 ar 
    34   23   24 ar 
    35   25   24 ar 
    36   26   25 ar 
    37   28   27 ar 
    38   27   30 ar 
    39   29   28 ar 
    40   29   32 ar 
    41   30   31 ar 
    42   31   32 ar 
    43   33   34 1  
    44   33   35 1  
    45   33   36 1  
    46   40   41 1  
    47    8   43 1  
    48    8   44 1  
    49    8   45 1  
    50    9   46 1  
    51   10   47 1  
    52   10   48 1  
    53   10   49 1  
    54   12   50 1  
    55   14   51 1  
    56   16   52 1  
    57   20   53 1  
    58   20   54 1  
    59   22   55 1  
    60   23   56 1  
    61   24   57 1  
    62   25   58 1  
    63   26   59 1  
    64   28   60 1  
    65   29   61 1  
    66   30   62 1  
    67   31   63 1  
    68   37   64 1  
    69   37   65 1  
    70   37   66 1  
    71   39   67 1  
    72   39   68 1  
    73   41   69 1  
@<TRIPOS>SUBSTRUCTURE
     1 8AO         1

