### 
### Created by X-TOOL on Mon Sep 10 21:13:34 2018
### 

@<TRIPOS>MOLECULE
5xms_ligand
   53    56     1     0     0
SMALL
GAST_HUCK


@<TRIPOS>ATOM
      1 C2         30.2100   41.0490   20.4700 C.2       1 8B3         0.2858
      2 C3         30.5000   42.2780   19.9870 C.2       1 8B3         0.0689
      3 C4         30.3310   43.5620   20.7920 C.3       1 8B3        -0.0472
      4 C5         29.9040   43.2550   22.1980 C.2       1 8B3        -0.0321
      5 C6         29.6270   41.9050   22.6780 C.2       1 8B3         0.2821
      6 N11        29.2740   41.8360   23.9590 N.pl3     1 8B3        -0.1712
      7 C12        29.7590   45.5360   23.6670 C.3       1 8B3        -0.0262
      8 C13        29.2010   44.3370   20.1000 C.3       1 8B3        -0.1081
      9 C14        28.9950   45.7640   20.6360 C.3       1 8B3        -0.0808
     10 C15        31.6480   44.3170   20.8020 C.ar      1 8B3        -0.0921
     11 C16        32.0120   45.1350   19.7150 C.ar      1 8B3        -0.0413
     12 C17        33.2140   45.8300   19.6780 C.ar      1 8B3         0.0563
     13 C18        34.0800   45.7290   20.7460 C.ar      1 8B3        -0.0171
     14 C19        33.7560   44.9480   21.8390 C.ar      1 8B3         0.0180
     15 C20        32.5550   44.2370   21.8690 C.ar      1 8B3        -0.0383
     16 F50        33.0160   45.2450   24.5330 F         1 8B3        -0.1815
     17 C39        34.3260   45.0500   24.2650 C.ar      1 8B3         0.1420
     18 C40        35.2430   44.9910   25.3020 C.ar      1 8B3        -0.0271
     19 C41        36.5850   44.7870   25.0290 C.ar      1 8B3        -0.0634
     20 C42        37.0020   44.6400   23.7130 C.ar      1 8B3        -0.0651
     21 C43        36.0830   44.6740   22.6700 C.ar      1 8B3        -0.0548
     22 C32        34.7410   44.8840   22.9540 C.ar      1 8B3         0.0250
     23 C33        33.5950   46.7110   18.5060 C.3       1 8B3         0.3794
     24 F48        34.5600   46.1550   17.8420 F         1 8B3        -0.2194
     25 F47        34.0840   47.8650   18.9530 F         1 8B3        -0.2194
     26 F46        32.6080   46.8650   17.6400 F         1 8B3        -0.2194
     27 C34        27.8510   43.5880   20.1010 C.3       1 8B3        -0.0808
     28 C8         30.8860   42.4540   18.8080 C.1       1 8B3         0.0454
     29 N9         31.2490   42.6260   17.7040 N.1       1 8B3        -0.3661
     30 N7         30.3460   39.9470   19.7470 N.pl3     1 8B3        -0.2573
     31 C10        29.6360   44.0540   23.4250 C.2       1 8B3         0.0030
     32 N51        29.2760   43.1750   24.3750 N.2       1 8B3        -0.2215
     33 O1         29.7470   40.8520   21.8240 O.3       1 8B3        -0.1128
     34 H1         29.0518   40.9972   24.5139 H         1 8B3         0.2576
     35 H2         29.4728   45.7631   24.7046 H         1 8B3         0.0388
     36 H3         29.0947   46.0766   22.9768 H         1 8B3         0.0388
     37 H4         30.7992   45.8503   23.4965 H         1 8B3         0.0388
     38 H5         29.5068   44.4375   19.0482 H         1 8B3         0.0060
     39 H6         28.1713   46.2458   20.0888 H         1 8B3         0.0214
     40 H7         29.9182   46.3454   20.4954 H         1 8B3         0.0214
     41 H8         28.7481   45.7213   21.7071 H         1 8B3         0.0214
     42 H9         31.3299   45.2255   18.8774 H         1 8B3         0.0925
     43 H10        35.0215   46.2659   20.7282 H         1 8B3         0.0915
     44 H11        32.3208   43.6163   22.7263 H         1 8B3         0.0908
     45 H12        34.9097   45.1046   26.3272 H         1 8B3         0.0604
     46 H13        37.3055   44.7424   25.8377 H         1 8B3         0.0608
     47 H14        38.0545   44.4973   23.4964 H         1 8B3         0.0584
     48 H15        36.4114   44.5379   21.6459 H         1 8B3         0.0613
     49 H16        27.9977   42.5674   19.7178 H         1 8B3         0.0214
     50 H17        27.1352   44.1215   19.4584 H         1 8B3         0.0214
     51 H18        27.4583   43.5413   21.1274 H         1 8B3         0.0214
     52 H19        30.1131   39.0308   20.1559 H         1 8B3         0.2065
     53 H20        30.6846   40.0066   18.7761 H         1 8B3         0.2065
@<TRIPOS>BOND
     1    2    1 2  
     2    1   30 1  
     3    1   33 1  
     4    3    2 1  
     5    2   28 1  
     6    3    4 1  
     7    3    8 1  
     8   10    3 1  
     9    4    5 2  
    10    4   31 1  
    11    5    6 1  
    12    5   33 1  
    13    6   32 1  
    14   31    7 1  
    15    8    9 1  
    16    8   27 1  
    17   10   11 ar 
    18   15   10 ar 
    19   12   11 ar 
    20   13   12 ar 
    21   12   23 1  
    22   14   13 ar 
    23   14   15 ar 
    24   22   14 1  
    25   17   16 1  
    26   17   18 ar 
    27   17   22 ar 
    28   18   19 ar 
    29   19   20 ar 
    30   20   21 ar 
    31   21   22 ar 
    32   23   24 1  
    33   23   25 1  
    34   23   26 1  
    35   28   29 3  
    36   31   32 2  
    37    6   34 1  
    38    7   35 1  
    39    7   36 1  
    40    7   37 1  
    41    8   38 1  
    42    9   39 1  
    43    9   40 1  
    44    9   41 1  
    45   11   42 1  
    46   13   43 1  
    47   15   44 1  
    48   18   45 1  
    49   19   46 1  
    50   20   47 1  
    51   21   48 1  
    52   27   49 1  
    53   27   50 1  
    54   27   51 1  
    55   30   52 1  
    56   30   53 1  
@<TRIPOS>SUBSTRUCTURE
     1 8B3         1

