### 
### Created by X-TOOL on Mon Sep 10 21:13:33 2018
### 

@<TRIPOS>MOLECULE
5xmt_ligand
   54    57     1     0     0
SMALL
GAST_HUCK


@<TRIPOS>ATOM
      1 C2        -26.9690   34.9460   60.0820 C.2       1 8B0         0.2858
      2 C3        -26.0770   34.0360   59.6020 C.2       1 8B0         0.0689
      3 C4        -24.8440   33.5760   60.3720 C.3       1 8B0        -0.0468
      4 C5        -24.8410   34.1730   61.7550 C.2       1 8B0        -0.0321
      5 C6        -25.8150   35.1620   62.2220 C.2       1 8B0         0.2821
      6 C10       -23.9800   34.0350   62.9830 C.2       1 8B0         0.0030
      7 C12       -22.7710   33.1700   63.2300 C.3       1 8B0        -0.0262
      8 C13       -23.6200   34.1490   59.6120 C.3       1 8B0        -0.1080
      9 C14       -22.2680   33.5540   60.0360 C.3       1 8B0        -0.0808
     10 C15       -24.8560   32.0350   60.4520 C.ar      1 8B0        -0.0901
     11 C16       -24.3870   31.2410   59.3870 C.ar      1 8B0        -0.0396
     12 C17       -24.3690   29.8450   59.4130 C.ar      1 8B0         0.0586
     13 C19       -25.3480   29.9250   61.6130 C.ar      1 8B0         0.0255
     14 N53       -27.7980   27.3580   60.8080 N.1       1 8B0        -0.3308
     15 C50       -27.3140   27.7560   61.7680 C.1       1 8B0         0.0984
     16 C39       -26.7790   28.2010   62.8300 C.ar      1 8B0         0.1021
     17 C40       -27.2000   27.5890   63.9970 C.ar      1 8B0        -0.0272
     18 C41       -26.6760   28.0020   65.2060 C.ar      1 8B0        -0.0510
     19 C42       -25.7400   29.0400   65.2390 C.ar      1 8B0        -0.0530
     20 C43       -25.3170   29.6490   64.0620 C.ar      1 8B0        -0.0428
     21 C32       -25.8420   29.2340   62.8380 C.ar      1 8B0         0.0245
     22 C18       -24.8550   29.1880   60.5400 C.ar      1 8B0        -0.0136
     23 C33       -23.8220   29.1140   58.1920 C.3       1 8B0         0.3800
     24 F48       -23.8010   27.7910   58.3170 F         1 8B0        -0.2193
     25 F47       -22.5920   29.5300   57.9420 F         1 8B0        -0.2193
     26 F46       -24.5520   29.4140   57.1290 F         1 8B0        -0.2193
     27 C20       -25.3460   31.3310   61.5700 C.ar      1 8B0        -0.0351
     28 C34       -23.5100   35.6890   59.6090 C.3       1 8B0        -0.0808
     29 C8        -26.2500   33.5600   58.4480 C.1       1 8B0         0.0454
     30 N9        -26.4130   33.1190   57.3830 N.1       1 8B0        -0.3661
     31 N7        -28.0440   35.3630   59.3970 N.pl3     1 8B0        -0.2573
     32 N51       -24.5200   34.8580   63.9120 N.2       1 8B0        -0.2215
     33 N11       -25.6540   35.5680   63.4970 N.pl3     1 8B0        -0.1712
     34 O1        -26.8130   35.5660   61.3860 O.3       1 8B0        -0.1128
     35 H1        -22.4032   33.3375   64.2531 H         1 8B0         0.0388
     36 H2        -21.9813   33.4292   62.5094 H         1 8B0         0.0388
     37 H3        -23.0460   32.1120   63.1079 H         1 8B0         0.0388
     38 H4        -23.7712   33.8521   58.5637 H         1 8B0         0.0060
     39 H5        -21.4627   34.0173   59.4471 H         1 8B0         0.0214
     40 H6        -22.2735   32.4683   59.8591 H         1 8B0         0.0214
     41 H7        -22.1000   33.7505   61.1052 H         1 8B0         0.0214
     42 H8        -24.0198   31.7414   58.4983 H         1 8B0         0.0938
     43 H9        -27.9345   26.7925   63.9627 H         1 8B0         0.0718
     44 H10       -26.9894   27.5229   66.1265 H         1 8B0         0.0639
     45 H11       -25.3404   29.3731   66.1900 H         1 8B0         0.0686
     46 H12       -24.5811   30.4442   64.0959 H         1 8B0         0.0647
     47 H13       -24.8495   28.1048   60.5819 H         1 8B0         0.0937
     48 H14       -25.7308   31.8865   62.4176 H         1 8B0         0.0926
     49 H15       -24.4736   36.1248   59.3065 H         1 8B0         0.0214
     50 H16       -22.7285   35.9994   58.8999 H         1 8B0         0.0214
     51 H17       -23.2496   36.0400   60.6184 H         1 8B0         0.0214
     52 H18       -28.6837   36.0545   59.8135 H         1 8B0         0.2065
     53 H19       -28.2299   34.9917   58.4544 H         1 8B0         0.2065
     54 H20       -26.2246   36.2362   64.0343 H         1 8B0         0.2576
@<TRIPOS>BOND
     1    2    1 2  
     2    1   31 1  
     3    1   34 1  
     4    3    2 1  
     5    2   29 1  
     6    3    4 1  
     7    3    8 1  
     8   10    3 1  
     9    4    5 2  
    10    4    6 1  
    11    5   33 1  
    12    5   34 1  
    13    6    7 1  
    14    6   32 2  
    15    8    9 1  
    16    8   28 1  
    17   10   11 ar 
    18   27   10 ar 
    19   12   11 ar 
    20   22   12 ar 
    21   12   23 1  
    22   21   13 1  
    23   13   22 ar 
    24   13   27 ar 
    25   15   14 3  
    26   16   15 1  
    27   16   17 ar 
    28   16   21 ar 
    29   17   18 ar 
    30   18   19 ar 
    31   19   20 ar 
    32   20   21 ar 
    33   23   24 1  
    34   23   25 1  
    35   23   26 1  
    36   29   30 3  
    37   32   33 1  
    38    7   35 1  
    39    7   36 1  
    40    7   37 1  
    41    8   38 1  
    42    9   39 1  
    43    9   40 1  
    44    9   41 1  
    45   11   42 1  
    46   17   43 1  
    47   18   44 1  
    48   19   45 1  
    49   20   46 1  
    50   22   47 1  
    51   27   48 1  
    52   28   49 1  
    53   28   50 1  
    54   28   51 1  
    55   31   52 1  
    56   31   53 1  
    57   33   54 1  
@<TRIPOS>SUBSTRUCTURE
     1 8B0         1

