### 
### Created by X-TOOL on Mon Sep 10 21:13:34 2018
### 

@<TRIPOS>MOLECULE
5xmv_ligand
   53    56     1     0     0
SMALL
GAST_HUCK


@<TRIPOS>ATOM
      1 C4         30.1600   43.4620   20.6970 C.3       1 8AU        -0.0470
      2 C6         29.6050   41.7340   22.5770 C.2       1 8AU         0.2821
      3 C8         30.8030   42.3400   18.6590 C.1       1 8AU         0.0454
      4 C15        28.6560   45.6020   20.5130 C.3       1 8AU        -0.0808
      5 C17        31.7680   45.1440   19.6120 C.ar      1 8AU        -0.0408
      6 C22        34.6120   44.8770   22.8110 C.ar      1 8AU         0.0045
      7 C2         30.1980   40.9510   20.3420 C.2       1 8AU         0.2858
      8 C3         30.4180   42.1930   19.8600 C.2       1 8AU         0.0689
      9 N9         31.1580   42.4850   17.5530 N.1       1 8AU        -0.3661
     10 C14        28.9310   44.1630   20.0470 C.3       1 8AU        -0.1081
     11 C18        32.9570   45.8880   19.5730 C.ar      1 8AU         0.0570
     12 CL3        32.5980   45.3350   24.7670 Cl        1 8AU        -0.0695
     13 C25        34.2760   45.0360   24.2460 C.ar      1 8AU         0.0489
     14 C26        35.2620   44.9660   25.2120 C.ar      1 8AU        -0.0473
     15 C27        36.5830   44.7390   24.8320 C.ar      1 8AU        -0.0613
     16 C28        36.9200   44.5890   23.4920 C.ar      1 8AU        -0.0611
     17 C29        35.9510   44.6460   22.4880 C.ar      1 8AU        -0.0529
     18 C20        33.5890   44.9520   21.7240 C.ar      1 8AU         0.0183
     19 C19        33.8530   45.7760   20.6340 C.ar      1 8AU        -0.0161
     20 C23        33.3030   46.8300   18.4230 C.3       1 8AU         0.3796
     21 F32        33.1510   48.0860   18.8230 F         1 8AU        -0.2194
     22 F31        32.5370   46.6250   17.3590 F         1 8AU        -0.2194
     23 F30        34.5870   46.6800   18.0780 F         1 8AU        -0.2194
     24 C21        32.4080   44.1900   21.7430 C.ar      1 8AU        -0.0373
     25 C16        31.4600   44.2800   20.6970 C.ar      1 8AU        -0.0914
     26 C24        27.6260   43.3530   20.1230 C.3       1 8AU        -0.0808
     27 N7         30.3740   39.8340   19.6500 N.pl3     1 8AU        -0.2573
     28 C5         29.7910   43.1060   22.1110 C.2       1 8AU        -0.0321
     29 C10        29.5490   43.8690   23.3710 C.2       1 8AU         0.0030
     30 C13        29.6020   45.3600   23.5970 C.3       1 8AU        -0.0262
     31 N11        29.2720   42.9520   24.3170 N.2       1 8AU        -0.2215
     32 N12        29.2980   41.6070   23.8800 N.pl3     1 8AU        -0.1712
     33 O1         29.7440   40.7280   21.6890 O.3       1 8AU        -0.1128
     34 H1         27.7707   45.9936   19.9907 H         1 8AU         0.0214
     35 H2         29.5264   46.2343   20.2838 H         1 8AU         0.0214
     36 H3         28.4741   45.6077   21.5978 H         1 8AU         0.0214
     37 H4         31.0649   45.2308   18.7915 H         1 8AU         0.0929
     38 H5         29.1824   44.2370   18.9787 H         1 8AU         0.0060
     39 H6         35.0090   45.0870   26.2591 H         1 8AU         0.0623
     40 H7         37.3561   44.6787   25.5894 H         1 8AU         0.0617
     41 H8         37.9565   44.4244   23.2206 H         1 8AU         0.0619
     42 H9         36.2398   44.5102   21.4520 H         1 8AU         0.0624
     43 H10        34.7764   46.3433   20.6100 H         1 8AU         0.0922
     44 H11        32.2202   43.5208   22.5749 H         1 8AU         0.0914
     45 H12        27.8149   42.3215   19.7909 H         1 8AU         0.0214
     46 H13        26.8692   43.8150   19.4720 H         1 8AU         0.0214
     47 H14        27.2605   43.3430   21.1604 H         1 8AU         0.0214
     48 H15        30.1844   38.9214   20.0883 H         1 8AU         0.2065
     49 H16        30.7003   39.8788   18.6741 H         1 8AU         0.2065
     50 H17        29.3701   45.5797   24.6496 H         1 8AU         0.0388
     51 H18        28.8650   45.8557   22.9480 H         1 8AU         0.0388
     52 H19        30.6095   45.7315   23.3583 H         1 8AU         0.0388
     53 H20        29.1256   40.7484   24.4222 H         1 8AU         0.2576
@<TRIPOS>BOND
     1    1    8 1  
     2    1   10 1  
     3   25    1 1  
     4    1   28 1  
     5   28    2 2  
     6    2   32 1  
     7    2   33 1  
     8    8    3 1  
     9    3    9 3  
    10   10    4 1  
    11   11    5 ar 
    12    5   25 ar 
    13    6   13 ar 
    14    6   17 ar 
    15   18    6 1  
    16    8    7 2  
    17    7   27 1  
    18    7   33 1  
    19   10   26 1  
    20   19   11 ar 
    21   11   20 1  
    22   13   12 1  
    23   13   14 ar 
    24   14   15 ar 
    25   16   15 ar 
    26   17   16 ar 
    27   18   19 ar 
    28   18   24 ar 
    29   20   21 1  
    30   20   22 1  
    31   20   23 1  
    32   24   25 ar 
    33   28   29 1  
    34   29   30 1  
    35   29   31 2  
    36   31   32 1  
    37    4   34 1  
    38    4   35 1  
    39    4   36 1  
    40    5   37 1  
    41   10   38 1  
    42   14   39 1  
    43   15   40 1  
    44   16   41 1  
    45   17   42 1  
    46   19   43 1  
    47   24   44 1  
    48   26   45 1  
    49   26   46 1  
    50   26   47 1  
    51   27   48 1  
    52   27   49 1  
    53   30   50 1  
    54   30   51 1  
    55   30   52 1  
    56   32   53 1  
@<TRIPOS>SUBSTRUCTURE
     1 8AU         1

