### 
### Created by X-TOOL on Wed Jan  1 15:39:38 2020
### 

@<TRIPOS>MOLECULE
5xmx_ligand
   58    60     1     0     0
SMALL
GAST_HUCK


@<TRIPOS>ATOM
      1 C4          4.6160   -3.0610   51.8430 C.ar      1 89L        -0.0456
      2 C5          4.2430   -3.2940   53.1690 C.ar      1 89L        -0.0507
      3 C6          4.7810   -2.4760   54.2010 C.ar      1 89L         0.0114
      4 C7          4.4090   -2.6920   55.6080 C.2       1 89L         0.1227
      5 C8          3.5450   -3.6890   56.0660 C.2       1 89L        -0.0535
      6 C10         4.3360   -2.6070   57.8180 C.2       1 89L         0.0833
      7 C13         5.9570   -1.1840   52.5910 C.ar      1 89L        -0.0456
      8 C15         5.7960   -1.2460   47.8880 C.3       1 89L         0.0239
      9 C17         3.0210   -2.7270   48.6660 C.ar      1 89L         0.0086
     10 C20         1.6250   -4.8190   47.4920 C.ar      1 89L        -0.0776
     11 C21         1.1030   -3.5010   47.5030 C.ar      1 89L        -0.0394
     12 C22         1.7840   -2.4820   48.1310 C.ar      1 89L         0.0964
     13 C24         0.0350   -0.8470   47.6920 C.3       1 89L         0.0759
     14 C26        -0.8730    1.2840   48.3490 C.2       1 89L        -0.0800
     15 C28        -1.0970    2.7540   48.2570 C.3       1 89L        -0.0169
     16 O1          7.1960   -1.7320   50.0860 O.2       1 89L        -0.3866
     17 C2          5.9510   -1.7140   50.2150 C.2       1 89L         0.2055
     18 C3          5.4580   -2.0010   51.5740 C.ar      1 89L         0.0458
     19 C9          3.4790   -3.5820   57.4080 C.2       1 89L        -0.0589
     20 O11         4.9540   -2.0500   56.7010 O.3       1 89L        -0.2600
     21 C12         5.6350   -1.4080   53.9020 C.ar      1 89L        -0.0507
     22 N14         5.1370   -1.4890   49.1990 N.am      1 89L        -0.2667
     23 C16         3.6880   -1.4990   49.3110 C.3       1 89L         0.0648
     24 C18         3.5610   -4.0270   48.6420 C.ar      1 89L        -0.0669
     25 C19         2.8680   -5.0870   48.0280 C.ar      1 89L        -0.0797
     26 O23         1.3000   -1.1700   48.2230 O.3       1 89L        -0.3169
     27 C25        -0.0970    0.6310   47.5070 C.2       1 89L        -0.0793
     28 C27        -1.5690    0.5580   49.4640 C.3       1 89L        -0.0402
     29 C29         0.0610    3.4920   47.6450 C.3       1 89L         0.0085
     30 C30        -0.1450    3.8710   46.2230 C.2       1 89L         0.0367
     31 O32         0.7770    4.6200   45.7890 O.co2     1 89L        -0.5688
     32 O31        -1.0990    3.4410   45.5120 O.co2     1 89L        -0.5688
     33 H1          4.2527   -3.6976   51.0444 H         1 89L         0.0657
     34 H2          3.5493   -4.0915   53.4095 H         1 89L         0.0604
     35 H3          3.0206   -4.4192   55.4514 H         1 89L         0.0396
     36 H4          4.5101   -2.3107   58.8514 H         1 89L         0.1017
     37 H5          6.6111   -0.3577   52.3372 H         1 89L         0.0657
     38 H6          5.0291   -1.0715   47.1189 H         1 89L         0.0487
     39 H7          6.3987   -2.1239   47.6122 H         1 89L         0.0487
     40 H8          6.4475   -0.3629   47.9632 H         1 89L         0.0487
     41 H9          1.0423   -5.6237   47.0585 H         1 89L         0.0531
     42 H10         0.1589   -3.2933   47.0125 H         1 89L         0.0521
     43 H11        -0.7467   -1.1960   48.3827 H         1 89L         0.0686
     44 H12        -0.0864   -1.3452   46.7189 H         1 89L         0.0686
     45 H13        -1.2651    3.1463   49.2708 H         1 89L         0.0428
     46 H14        -1.9907    2.9337   47.6414 H         1 89L         0.0428
     47 H15         2.8426   -4.1793   58.0593 H         1 89L         0.0362
     48 H16         6.0308   -0.7752   54.6881 H         1 89L         0.0604
     49 H17         3.4231   -1.4817   50.3785 H         1 89L         0.0661
     50 H18         3.2966   -0.5951   48.8213 H         1 89L         0.0661
     51 H19         4.5241   -4.2142   49.1029 H         1 89L         0.0526
     52 H20         3.2967   -6.0814   47.9778 H         1 89L         0.0505
     53 H21         0.4286    1.1488   46.7061 H         1 89L         0.0268
     54 H22        -1.3196   -0.5123   49.4165 H         1 89L         0.0375
     55 H23        -2.6568    0.6858   49.3621 H         1 89L         0.0375
     56 H24        -1.2405    0.9685   50.4302 H         1 89L         0.0375
     57 H25         0.9514    2.8490   47.7057 H         1 89L         0.0452
     58 H26         0.2315    4.4103   48.2261 H         1 89L         0.0452
@<TRIPOS>BOND
     1    1    2 ar 
     2   18    1 ar 
     3    2    3 ar 
     4    3    4 1  
     5   21    3 ar 
     6    4    5 2  
     7    4   20 1  
     8    5   19 1  
     9    6   19 2  
    10   20    6 1  
    11   18    7 ar 
    12    7   21 ar 
    13   22    8 1  
    14    9   12 ar 
    15   23    9 1  
    16    9   24 ar 
    17   11   10 ar 
    18   10   25 ar 
    19   12   11 ar 
    20   12   26 1  
    21   26   13 1  
    22   13   27 1  
    23   14   15 1  
    24   27   14 2  
    25   14   28 1  
    26   15   29 1  
    27   17   16 2  
    28   17   18 1  
    29   22   17 am 
    30   22   23 1  
    31   24   25 ar 
    32   29   30 1  
    33   30   31 ar 
    34   30   32 ar 
    35    1   33 1  
    36    2   34 1  
    37    5   35 1  
    38    6   36 1  
    39    7   37 1  
    40    8   38 1  
    41    8   39 1  
    42    8   40 1  
    43   10   41 1  
    44   11   42 1  
    45   13   43 1  
    46   13   44 1  
    47   15   45 1  
    48   15   46 1  
    49   19   47 1  
    50   21   48 1  
    51   23   49 1  
    52   23   50 1  
    53   24   51 1  
    54   25   52 1  
    55   27   53 1  
    56   28   54 1  
    57   28   55 1  
    58   28   56 1  
    59   29   57 1  
    60   29   58 1  
@<TRIPOS>SUBSTRUCTURE
     1 89L         1

