### 
### Created by X-TOOL on Mon Sep 10 21:13:32 2018
### 

@<TRIPOS>MOLECULE
5xn3_ligand
  119   120     1     0     0
SMALL
GAST_HUCK


@<TRIPOS>ATOM
      1 N           1.8250  -16.8150   33.9210 N.am      1 ARG        -0.1032
      2 CA          0.7980  -16.8320   34.8970 C.3       1 ARG         0.2884
      3 C           0.9090  -15.6200   35.7880 C.2       1 ARG         0.2592
      4 O           1.9720  -15.2450   36.2610 O.2       1 ARG        -0.3390
      5 CB          0.8480  -18.1300   35.7130 C.3       1 ARG         0.0139
      6 CG          0.0560  -18.0250   37.0190 C.3       1 ARG        -0.0158
      7 CD         -0.0510  -19.4110   37.6300 C.3       1 ARG         0.0625
      8 NE          1.1860  -19.8780   38.2580 N.pl3     1 ARG        -0.2723
      9 CZ          1.5770  -19.5960   39.5010 C.cat     1 ARG         0.2882
     10 NH1         0.8620  -18.7760   40.2840 N.pl3     1 ARG        -0.2849
     11 NH2         2.7050  -20.1300   39.9600 N.pl3     1 ARG        -0.2849
     12 N          -0.2240  -14.9760   35.9670 N.am      1 GLY        -0.2633
     13 CA         -0.3510  -13.8090   36.8040 C.3       1 GLY         0.1204
     14 C          -0.0990  -12.4300   36.1830 C.2       1 GLY         0.2010
     15 O          -0.2450  -11.4430   36.8330 O.2       1 GLY        -0.3947
     16 N           0.3830  -12.3860   34.9690 N.am      1 ASP        -0.2624
     17 CA          0.8220  -11.1370   34.3600 C.3       1 ASP         0.1423
     18 C          -0.3090  -10.5330   33.5120 C.2       1 ASP         0.2056
     19 O          -0.9660  -11.2630   32.7750 O.2       1 ASP        -0.3943
     20 CB          2.0380  -11.4590   33.4780 C.3       1 ASP         0.0406
     21 CG          2.4700  -10.2600   32.6180 C.2       1 ASP         0.0393
     22 OD1         3.1960   -9.3880   33.1440 O.co2     1 ASP        -0.5688
     23 OD2         2.1010  -10.3660   31.4290 O.co2     1 ASP        -0.5688
     24 N          -0.4100   -9.2090   33.5510 N.am      1 ILE        -0.2634
     25 CA         -1.4640   -8.4540   32.8600 C.3       1 ILE         0.1335
     26 C          -1.4200   -8.6190   31.3280 C.2       1 ILE         0.2043
     27 O          -2.4220   -8.3620   30.6420 O.2       1 ILE        -0.3944
     28 CB         -1.4150   -6.9650   33.3030 C.3       1 ILE        -0.0037
     29 CG1        -2.6800   -6.1730   32.8850 C.3       1 ILE        -0.0491
     30 CG2        -0.1620   -6.2470   32.8140 C.3       1 ILE        -0.0582
     31 CD1        -3.2710   -5.2650   33.9310 C.3       1 ILE        -0.0648
     32 N          -0.2280   -8.8820   30.7930 N.am      1 ASN        -0.2616
     33 CA          0.0280   -8.9260   29.3240 C.3       1 ASN         0.1476
     34 C           0.2890  -10.2970   28.7230 C.2       1 ASN         0.2064
     35 O           0.9180  -10.4840   27.6740 O.2       1 ASN        -0.3942
     36 CB          1.1550   -7.9490   28.9830 C.3       1 ASN         0.0773
     37 CG          0.6690   -6.4840   28.9220 C.2       1 ASN         0.1780
     38 OD1        -0.4190   -6.2140   28.3580 O.2       1 ASN        -0.3970
     39 ND2         1.4250   -5.5670   29.5010 N.am      1 ASN        -0.3007
     40 N          -0.2530  -11.3480   29.3960 N.am      1 ASN        -0.2615
     41 CA         -0.2540  -12.7120   28.8260 C.3       1 ASN         0.1476
     42 C           1.1680  -13.3020   28.7030 C.2       1 ASN         0.2064
     43 O           1.4260  -14.0500   27.8320 O.2       1 ASN        -0.3942
     44 CB         -1.0710  -12.8330   27.5030 C.3       1 ASN         0.0773
     45 CG         -1.2440  -14.2580   27.0460 C.2       1 ASN         0.1780
     46 OD1        -1.6630  -15.1790   27.8580 O.2       1 ASN        -0.3970
     47 ND2        -1.0800  -14.5180   25.8140 N.am      1 ASN        -0.3007
     48 N           2.0550  -12.8540   29.5640 N.am      1 ASN        -0.2615
     49 CA          3.4680  -13.2840   29.3770 C.3       1 ASN         0.1476
     50 C           3.8140  -14.4960   30.2280 C.2       1 ASN         0.2062
     51 O           4.7500  -15.1790   29.8760 O.2       1 ASN        -0.3942
     52 CB          4.4060  -12.0830   29.5950 C.3       1 ASN         0.0773
     53 CG          4.3270  -11.0900   28.4160 C.2       1 ASN         0.1780
     54 OD1         4.3870  -11.5370   27.3080 O.2       1 ASN        -0.3970
     55 ND2         3.9810   -9.8530   28.6820 N.am      1 ASN        -0.3007
     56 N           3.0680  -14.6670   31.3070 N.am      1 VAL        -0.2634
     57 CA          3.2120  -15.8020   32.2130 C.3       1 VAL         0.1350
     58 C           2.0540  -15.7100   33.2170 C.2       1 VAL         0.2292
     59 O           1.3140  -14.7120   33.3100 O.2       1 VAL        -0.3943
     60 CB          4.5710  -15.6910   32.8840 C.3       1 VAL        -0.0063
     61 CG1         4.6030  -14.4870   33.8020 C.3       1 VAL        -0.0584
     62 CG2         5.0140  -17.0340   33.5580 C.3       1 VAL        -0.0584
     63 OXT         1.7700  -16.6270   34.0120 O.3       1 VAL        -0.2122
     64 H1          1.8972  -18.3572   35.9527 H         1 ARG         0.0305
     65 H2          0.4254  -18.9453   35.1074 H         1 ARG         0.0305
     66 H3         -0.9503  -17.6320   36.8122 H         1 ARG         0.0299
     67 H4          0.5767  -17.3516   37.7157 H         1 ARG         0.0299
     68 H5         -0.3252  -20.1201   36.8350 H         1 ARG         0.0689
     69 H6         -0.8421  -19.3929   38.3940 H         1 ARG         0.0689
     70 H7          1.8064  -20.4745   37.6921 H         1 ARG         0.2642
     71 H8          1.1809  -18.5705   41.2416 H         1 ARG         0.2615
     72 H9         -0.0063  -18.3514   39.9281 H         1 ARG         0.2615
     73 H10         3.2572  -20.7606   39.3614 H         1 ARG         0.2615
     74 H11         3.0265  -19.9131   40.9142 H         1 ARG         0.2615
     75 H12        -1.0401  -15.3136   35.4979 H         1 GLY         0.1887
     76 H13         0.3614  -13.9260   37.6339 H         1 GLY         0.0765
     77 H14        -1.3773  -13.8038   37.1997 H         1 GLY         0.0765
     78 H15         0.4525  -13.2336   34.4430 H         1 ASP         0.1884
     79 H16         1.1095  -10.4206   35.1437 H         1 ASP         0.0819
     80 H17         1.7806  -12.2966   32.8130 H         1 ASP         0.0478
     81 H18         2.8778  -11.7500   34.1261 H         1 ASP         0.0478
     82 H19         0.2683   -8.6984   34.0794 H         1 ILE         0.1883
     83 H20        -2.4293   -8.8629   33.1931 H         1 ILE         0.0803
     84 H21        -1.3809   -6.9646   34.4025 H         1 ILE         0.0345
     85 H22        -3.4525   -6.9015   32.5976 H         1 ILE         0.0267
     86 H23        -2.4166   -5.5549   32.0140 H         1 ILE         0.0267
     87 H24         0.7288   -6.8174   33.1159 H         1 ILE         0.0235
     88 H25        -0.1201   -5.2405   33.2559 H         1 ILE         0.0235
     89 H26        -0.1906   -6.1652   31.7174 H         1 ILE         0.0235
     90 H27        -4.1580   -4.7608   33.5200 H         1 ILE         0.0230
     91 H28        -2.5254   -4.5122   34.2267 H         1 ILE         0.0230
     92 H29        -3.5613   -5.8587   34.8103 H         1 ILE         0.0230
     93 H30         0.5378   -9.0598   31.4110 H         1 ASN         0.1885
     94 H31        -0.8868   -8.5537   28.8397 H         1 ASN         0.0826
     95 H32         1.5748   -8.2225   28.0038 H         1 ASN         0.0551
     96 H33         1.9368   -8.0296   29.7526 H         1 ASN         0.0551
     97 H34         1.1469   -4.6066   29.4846 H         1 ASN         0.1814
     98 H35         2.2749   -5.8338   29.9554 H         1 ASN         0.1814
     99 H36        -0.6598  -11.1943   30.2965 H         1 ASN         0.1885
    100 H37        -0.7794  -13.3416   29.5592 H         1 ASN         0.0826
    101 H38        -0.5463  -12.2734   26.7146 H         1 ASN         0.0551
    102 H39        -2.0664  -12.3934   27.6643 H         1 ASN         0.0551
    103 H40        -1.1884  -15.4550   25.4820 H         1 ASN         0.1814
    104 H41        -0.8424  -13.7857   25.1758 H         1 ASN         0.1814
    105 H42         1.7910  -12.2484   30.3147 H         1 ASN         0.1885
    106 H43         3.5810  -13.5950   28.3279 H         1 ASN         0.0826
    107 H44         5.4396  -12.4476   29.6880 H         1 ASN         0.0551
    108 H45         4.1154  -11.5644   30.5205 H         1 ASN         0.0551
    109 H46         3.9191   -9.1813   27.9437 H         1 ASN         0.1814
    110 H47         3.7791   -9.5816   29.6231 H         1 ASN         0.1814
    111 H48         2.3686  -13.9825   31.5127 H         1 VAL         0.1883
    112 H49         3.1511  -16.7512   31.6605 H         1 VAL         0.0802
    113 H50         5.3046  -15.4949   32.0881 H         1 VAL         0.0342
    114 H51         5.5907  -14.4175   34.2813 H         1 VAL         0.0234
    115 H52         3.8273  -14.5942   34.5746 H         1 VAL         0.0234
    116 H53         4.4143  -13.5747   33.2170 H         1 VAL         0.0234
    117 H54         4.9599  -17.8492   32.8214 H         1 VAL         0.0234
    118 H55         4.3460  -17.2582   34.4027 H         1 VAL         0.0234
    119 H56         6.0472  -16.9377   33.9231 H         1 VAL         0.0234
@<TRIPOS>BOND
     1    1    2 1  
     2    1   58 am 
     3    1   63 1  
     4    2    3 1  
     5    2    5 1  
     6    2   63 1  
     7    3    4 2  
     8    3   12 am 
     9    5    6 1  
    10    6    7 1  
    11    7    8 1  
    12    8    9 ar 
    13    9   10 ar 
    14    9   11 ar 
    15   12   13 1  
    16   13   14 1  
    17   14   15 2  
    18   14   16 am 
    19   16   17 1  
    20   17   18 1  
    21   17   20 1  
    22   18   19 2  
    23   18   24 am 
    24   20   21 1  
    25   21   22 ar 
    26   21   23 ar 
    27   24   25 1  
    28   25   26 1  
    29   25   28 1  
    30   26   27 2  
    31   26   32 am 
    32   28   29 1  
    33   28   30 1  
    34   29   31 1  
    35   32   33 1  
    36   33   34 1  
    37   33   36 1  
    38   34   35 2  
    39   34   40 am 
    40   36   37 1  
    41   37   38 2  
    42   37   39 am 
    43   40   41 1  
    44   41   42 1  
    45   41   44 1  
    46   42   43 2  
    47   42   48 am 
    48   44   45 1  
    49   45   46 2  
    50   45   47 am 
    51   48   49 1  
    52   49   50 1  
    53   49   52 1  
    54   50   51 2  
    55   50   56 am 
    56   52   53 1  
    57   53   54 2  
    58   53   55 am 
    59   56   57 1  
    60   57   58 1  
    61   57   60 1  
    62   58   59 2  
    63   60   61 1  
    64   60   62 1  
    65    5   64 1  
    66    5   65 1  
    67    6   66 1  
    68    6   67 1  
    69    7   68 1  
    70    7   69 1  
    71    8   70 1  
    72   10   71 1  
    73   10   72 1  
    74   11   73 1  
    75   11   74 1  
    76   12   75 1  
    77   13   76 1  
    78   13   77 1  
    79   16   78 1  
    80   17   79 1  
    81   20   80 1  
    82   20   81 1  
    83   24   82 1  
    84   25   83 1  
    85   28   84 1  
    86   29   85 1  
    87   29   86 1  
    88   30   87 1  
    89   30   88 1  
    90   30   89 1  
    91   31   90 1  
    92   31   91 1  
    93   31   92 1  
    94   32   93 1  
    95   33   94 1  
    96   36   95 1  
    97   36   96 1  
    98   39   97 1  
    99   39   98 1  
   100   40   99 1  
   101   41  100 1  
   102   44  101 1  
   103   44  102 1  
   104   47  103 1  
   105   47  104 1  
   106   48  105 1  
   107   49  106 1  
   108   52  107 1  
   109   52  108 1  
   110   55  109 1  
   111   55  110 1  
   112   56  111 1  
   113   57  112 1  
   114   60  113 1  
   115   61  114 1  
   116   61  115 1  
   117   61  116 1  
   118   62  117 1  
   119   62  118 1  
   120   62  119 1  
@<TRIPOS>SUBSTRUCTURE
     1 ARG         1

