### 
### Created by X-TOOL on Wed Jan  1 15:39:35 2020
### 

@<TRIPOS>MOLECULE
5xo7_ligand
   47    48     1     0     0
SMALL
GAST_HUCK


@<TRIPOS>ATOM
      1 CAO        -7.7820   -3.4480   -5.1690 C.3       1 36J        -0.0268
      2 CAL        -7.5890   -1.8180   -5.3410 C.3       1 36J        -0.0481
      3 CAM        -8.9410   -1.1590   -5.8270 C.3       1 36J        -0.0225
      4 CAV        -9.0900    0.3600   -5.6470 C.3       1 36J         0.0831
      5 CAA        -7.7770    1.1320   -5.8970 C.3       1 36J        -0.0344
      6 OAP        -9.5300    0.6430   -4.1810 O.3       1 36J        -0.2789
      7 CAQ        -9.9160    1.8030   -3.6670 C.2       1 36J         0.2447
      8 OAB        -9.9900    2.8070   -4.3480 O.2       1 36J        -0.3723
      9 CAU        -9.8020    1.8660   -2.2170 C.ar      1 36J         0.0770
     10 CAS        -9.3860    3.0880   -1.6870 C.ar      1 36J         0.0976
     11 OAD        -9.2310    4.1290   -2.5480 O.3       1 36J        -0.3313
     12 CAH        -9.1930    3.3230   -0.2710 C.ar      1 36J        -0.0032
     13 CAR        -9.4340    2.2470    0.5830 C.ar      1 36J         0.0800
     14 OAC        -9.2430    2.4030    1.9550 O.3       1 36J        -0.3337
     15 CAI        -9.8860    1.0320    0.0470 C.ar      1 36J        -0.0390
     16 CAT       -10.0460    0.7860   -1.3180 C.ar      1 36J        -0.0374
     17 CAG       -10.5090   -0.5170   -1.7280 C.2       1 36J        -0.0669
     18 CAF       -10.5260   -1.6980   -1.0040 C.2       1 36J        -0.0708
     19 CAJ       -11.0580   -2.9490   -1.4580 C.3       1 36J        -0.0187
     20 CAK        -9.7820   -3.7460   -1.7600 C.3       1 36J        -0.0383
     21 CAN        -9.5700   -3.4220   -3.2990 C.3       1 36J        -0.0244
     22 CAW        -8.0860   -3.8670   -3.8140 C.3       1 36J         0.0555
     23 OAE        -8.1090   -5.3560   -3.9420 O.3       1 36J        -0.3918
     24 H1         -6.8503   -3.9415   -5.4827 H         1 36J         0.0290
     25 H2         -8.6056   -3.7696   -5.8233 H         1 36J         0.0290
     26 H3         -6.8011   -1.6212   -6.0830 H         1 36J         0.0267
     27 H4         -7.2989   -1.3819   -4.3737 H         1 36J         0.0267
     28 H5         -9.7606   -1.6393   -5.2724 H         1 36J         0.0293
     29 H6         -9.0475   -1.3764   -6.9000 H         1 36J         0.0293
     30 H7         -9.8576    0.7254   -6.3450 H         1 36J         0.0644
     31 H8         -7.9514    2.2084   -5.7525 H         1 36J         0.0258
     32 H9         -7.4355    0.9509   -6.9268 H         1 36J         0.0258
     33 H10        -7.0084    0.7870   -5.1898 H         1 36J         0.0258
     34 H11       -10.0594    4.3106   -2.9760 H         1 36J         0.2505
     35 H12        -8.8765    4.2885    0.1068 H         1 36J         0.0445
     36 H13        -9.4472    1.5871    2.3968 H         1 36J         0.2495
     37 H14       -10.1268    0.2319    0.7376 H         1 36J         0.0426
     38 H15       -10.8975   -0.5811   -2.7433 H         1 36J         0.0434
     39 H16       -10.0979   -1.6737   -0.0029 H         1 36J         0.0767
     40 H17       -11.6712   -2.8184   -2.3618 H         1 36J         0.0475
     41 H18       -11.6578   -3.4362   -0.6752 H         1 36J         0.0475
     42 H19        -9.9306   -4.8229   -1.5920 H         1 36J         0.0296
     43 H20        -8.9343   -3.3938   -1.1539 H         1 36J         0.0296
     44 H21        -9.6912   -2.3399   -3.4550 H         1 36J         0.0292
     45 H22       -10.3273   -3.9640   -3.8845 H         1 36J         0.0292
     46 H23        -7.3179   -3.5147   -3.1098 H         1 36J         0.0593
     47 H24        -7.2601   -5.6602   -4.2411 H         1 36J         0.2098
@<TRIPOS>BOND
     1    1    2 1  
     2    1   22 1  
     3    2    3 1  
     4    3    4 1  
     5    4    5 1  
     6    4    6 1  
     7    6    7 1  
     8    7    8 2  
     9    7    9 1  
    10    9   10 ar 
    11    9   16 ar 
    12   10   11 1  
    13   10   12 ar 
    14   12   13 ar 
    15   13   14 1  
    16   13   15 ar 
    17   15   16 ar 
    18   16   17 1  
    19   17   18 2  
    20   18   19 1  
    21   19   20 1  
    22   20   21 1  
    23   21   22 1  
    24   22   23 1  
    25    1   24 1  
    26    1   25 1  
    27    2   26 1  
    28    2   27 1  
    29    3   28 1  
    30    3   29 1  
    31    4   30 1  
    32    5   31 1  
    33    5   32 1  
    34    5   33 1  
    35   11   34 1  
    36   12   35 1  
    37   14   36 1  
    38   15   37 1  
    39   17   38 1  
    40   18   39 1  
    41   19   40 1  
    42   19   41 1  
    43   20   42 1  
    44   20   43 1  
    45   21   44 1  
    46   21   45 1  
    47   22   46 1  
    48   23   47 1  
@<TRIPOS>SUBSTRUCTURE
     1 36J         1

