### 
### Created by X-TOOL on Wed Jan  1 15:39:37 2020
### 

@<TRIPOS>MOLECULE
5xpi_ligand
   52    54     1     0     0
SMALL
GAST_HUCK


@<TRIPOS>ATOM
      1 C1        -35.3550   -2.7670    5.8320 C.2       1 8C3         0.1427
      2 C2        -35.1890   -2.6490    7.3370 C.2       1 8C3         0.2485
      3 C3        -37.6080   -3.8360    6.2920 C.2       1 8C3         0.1516
      4 O1        -34.1570   -2.1220    7.7770 O.2       1 8C3        -0.3956
      5 O2        -34.8900   -4.9650   10.1370 O.2       1 8C3        -0.3942
      6 C11       -38.8610   -4.4910    5.8500 C.3       1 8C3         0.0132
      7 C12       -33.5610   -4.6270   12.9650 C.3       1 8C3         0.0077
      8 C13       -33.3800   -3.3400   12.1090 C.3       1 8C3         0.0358
      9 C14       -34.7860   -4.5970   13.9150 C.3       1 8C3        -0.0301
     10 C15       -34.0790   -2.8490   15.5670 C.3       1 8C3        -0.0348
     11 C16       -35.4710   -4.8200   16.2960 C.3       1 8C3        -0.0348
     12 C17       -32.5800   -2.5110   15.3990 C.3       1 8C3        -0.0245
     13 C18       -36.8090   -4.0600   16.2010 C.3       1 8C3        -0.0245
     14 N1        -36.5690   -3.3530    5.3320 N.pl3     1 8C3        -0.2130
     15 C4        -34.5290   -2.4000    4.7580 C.2       1 8C3        -0.0415
     16 N2        -36.2640   -3.1410    8.1170 N.am      1 8C3        -0.1607
     17 C5        -36.4340   -3.3090    3.9930 C.2       1 8C3         0.0734
     18 N3        -37.4350   -3.7220    7.5740 N.2       1 8C3        -0.1849
     19 C6        -35.2390   -2.7530    3.6370 C.2       1 8C3         0.0278
     20 C7        -36.3210   -3.0910    9.6030 C.3       1 8C3         0.1522
     21 C8        -37.1700   -3.6630    2.8270 C.2       1 8C3        -0.0468
     22 S1        -34.8740   -2.6210    1.9700 S.3       1 8C3        -0.0678
     23 C9        -35.1680   -3.7720   10.3570 C.2       1 8C3         0.2053
     24 C10       -36.4670   -3.3450    1.6960 C.2       1 8C3        -0.0168
     25 N4        -34.5210   -2.9790   11.2450 N.am      1 8C3        -0.2846
     26 N5        -34.4440   -4.2910   15.3420 N.4       1 8C3         0.2349
     27 H1        -39.4654   -4.7574    6.7296 H         1 8C3         0.0445
     28 H2        -38.6184   -5.4015    5.2824 H         1 8C3         0.0445
     29 H3        -39.4297   -3.8005    5.2099 H         1 8C3         0.0445
     30 H4        -32.6560   -4.7648   13.5749 H         1 8C3         0.0336
     31 H5        -33.6763   -5.4813   12.2818 H         1 8C3         0.0336
     32 H6        -32.5005   -3.4841   11.4643 H         1 8C3         0.0522
     33 H7        -33.1976   -2.5004   12.7958 H         1 8C3         0.0522
     34 H8        -35.2749   -5.5818   13.8801 H         1 8C3         0.0815
     35 H9        -35.4846   -3.8278   13.5543 H         1 8C3         0.0815
     36 H10       -34.6471   -2.2391   14.8491 H         1 8C3         0.0812
     37 H11       -34.3749   -2.5799   16.5917 H         1 8C3         0.0812
     38 H12       -35.6507   -5.8811   16.0687 H         1 8C3         0.0812
     39 H13       -35.0829   -4.7251   17.3209 H         1 8C3         0.0812
     40 H14       -32.4231   -1.4381   15.5843 H         1 8C3         0.0281
     41 H15       -32.2612   -2.7567   14.3753 H         1 8C3         0.0281
     42 H16       -31.9890   -3.0975   16.1179 H         1 8C3         0.0281
     43 H17       -37.5247   -4.4865   16.9192 H         1 8C3         0.0281
     44 H18       -37.2124   -4.1537   15.1819 H         1 8C3         0.0281
     45 H19       -36.6446   -2.9976   16.4341 H         1 8C3         0.0281
     46 H20       -33.5439   -1.9380    4.8037 H         1 8C3         0.0342
     47 H21       -37.2576   -3.5742    9.9179 H         1 8C3         0.0841
     48 H22       -36.3362   -2.0324    9.9014 H         1 8C3         0.0841
     49 H23       -38.1568   -4.1236    2.8337 H         1 8C3         0.0412
     50 H24       -36.8603   -3.5249    0.6966 H         1 8C3         0.0680
     51 H25       -34.8554   -2.0399   11.3242 H         1 8C3         0.1851
     52 H26       -33.6030   -4.8111   15.5375 H         1 8C3         0.2033
@<TRIPOS>BOND
     1    2    1 1  
     2    1   14 1  
     3    1   15 2  
     4    2    4 2  
     5   16    2 am 
     6    3    6 1  
     7    3   14 1  
     8   18    3 2  
     9   23    5 2  
    10    8    7 1  
    11    7    9 1  
    12   25    8 1  
    13    9   26 1  
    14   10   12 1  
    15   26   10 1  
    16   11   13 1  
    17   26   11 1  
    18   14   17 1  
    19   15   19 1  
    20   16   18 1  
    21   20   16 1  
    22   17   19 2  
    23   17   21 1  
    24   19   22 1  
    25   23   20 1  
    26   21   24 2  
    27   22   24 1  
    28   23   25 am 
    29    6   27 1  
    30    6   28 1  
    31    6   29 1  
    32    7   30 1  
    33    7   31 1  
    34    8   32 1  
    35    8   33 1  
    36    9   34 1  
    37    9   35 1  
    38   10   36 1  
    39   10   37 1  
    40   11   38 1  
    41   11   39 1  
    42   12   40 1  
    43   12   41 1  
    44   12   42 1  
    45   13   43 1  
    46   13   44 1  
    47   13   45 1  
    48   15   46 1  
    49   20   47 1  
    50   20   48 1  
    51   21   49 1  
    52   24   50 1  
    53   25   51 1  
    54   26   52 1  
@<TRIPOS>SUBSTRUCTURE
     1 8C3         1

