### 
### Created by X-TOOL on Wed Jan  1 15:39:36 2020
### 

@<TRIPOS>MOLECULE
5xpl_ligand
   89    92     1     0     0
SMALL
GAST_HUCK


@<TRIPOS>ATOM
      1 O3          6.1780   -2.8160   13.2830 O.2       1 8C9        -0.3840
      2 C22         7.1790   -2.9820   14.0090 C.2       1 8C9         0.1247
      3 C23         7.6990   -4.3870   14.2640 C.ar      1 8C9         0.0213
      4 C28         7.0480   -5.4660   13.6570 C.ar      1 8C9        -0.0515
      5 C27         7.5220   -6.7740   13.8270 C.ar      1 8C9        -0.0268
      6 C26         8.6390   -7.0050   14.6260 C.ar      1 8C9         0.0935
      7 O4          9.0710   -8.2810   14.7700 O.3       1 8C9        -0.3293
      8 C25         9.2980   -5.9410   15.2500 C.ar      1 8C9        -0.0268
      9 C24         8.8310   -4.6390   15.0670 C.ar      1 8C9        -0.0515
     10 C21         7.9360   -1.8050   14.6290 C.3       1 8C9         0.0210
     11 C20         7.7640   -0.5230   13.8460 C.3       1 8C9        -0.0348
     12 C19         8.4630    0.6610   14.5640 C.3       1 8C9        -0.0362
     13 C31         7.8410    0.9430   15.9460 C.3       1 8C9        -0.0498
     14 C32         8.7890    0.5010   17.0450 C.3       1 8C9        -0.0530
     15 C33         7.9880   -0.2710   18.0600 C.3       1 8C9        -0.0559
     16 C34         7.3600    0.5700   19.1480 C.3       1 8C9        -0.0653
     17 C18         8.4470    1.9100   13.7060 C.3       1 8C9        -0.0374
     18 C30         7.0090    2.4430   13.5130 C.3       1 8C9        -0.0619
     19 C17         9.4730    2.9610   14.1800 C.3       1 8C9        -0.0304
     20 C13         9.4510    4.2810   13.4470 C.3       1 8C9        -0.0161
     21 C29         9.3330    4.1170   11.9080 C.3       1 8C9        -0.0570
     22 C12         8.4510    5.3150   13.9660 C.3       1 8C9        -0.0431
     23 C11         8.7340    6.7200   13.3770 C.3       1 8C9        -0.0423
     24 C10        10.1990    7.2570   13.4940 C.3       1 8C9        -0.0234
     25 C16        10.9390    2.4800   14.1690 C.3       1 8C9        -0.0470
     26 C15        11.8210    3.6410   13.7500 C.3       1 8C9        -0.0393
     27 C14        10.8290    4.8030   13.8220 C.3       1 8C9        -0.0062
     28 C9         11.1400    6.1130   13.1200 C.2       1 8C9        -0.0718
     29 C8         12.1810    6.1960   12.2450 C.2       1 8C9        -0.1089
     30 C7         12.4600    7.3790   11.4520 C.2       1 8C9        -0.1086
     31 C5         13.0180    7.3680   10.2260 C.2       1 8C9        -0.0657
     32 C6         13.4510    6.0790    9.5450 C.3       1 8C9         0.0150
     33 C1         14.7040    6.2570    8.6700 C.3       1 8C9         0.1023
     34 O1         14.8230    5.1320    7.7850 O.3       1 8C9        -0.3742
     35 C4         13.1220    8.7030    9.4950 C.3       1 8C9         0.0150
     36 C3         14.4550    8.8430    8.7620 C.3       1 8C9         0.1023
     37 O2         15.5950    8.9210    9.6730 O.3       1 8C9        -0.3742
     38 C2         14.6740    7.5880    7.9210 C.2       1 8C9        -0.0127
     39 C35        14.8010    7.6660    6.6120 C.2       1 8C9        -0.1238
     40 H1          6.1682   -5.2888   13.0491 H         1 8C9         0.0645
     41 H2          7.0213   -7.6022   13.3387 H         1 8C9         0.0557
     42 H3          9.3008   -8.6343   13.9186 H         1 8C9         0.2502
     43 H4         10.1662   -6.1266   15.8720 H         1 8C9         0.0557
     44 H5          9.3432   -3.8128   15.5467 H         1 8C9         0.0645
     45 H6          9.0067   -2.0547   14.6645 H         1 8C9         0.0483
     46 H7          7.5625   -1.6457   15.6513 H         1 8C9         0.0483
     47 H8          6.6909   -0.3019   13.7478 H         1 8C9         0.0292
     48 H9          8.2053   -0.6493   12.8464 H         1 8C9         0.0292
     49 H10         9.5137    0.3773   14.7235 H         1 8C9         0.0305
     50 H11         6.8943    0.3906   16.0384 H         1 8C9         0.0268
     51 H12         7.6474    2.0213   16.0446 H         1 8C9         0.0268
     52 H13         9.2471    1.3808   17.5204 H         1 8C9         0.0265
     53 H14         9.5772   -0.1404   16.6239 H         1 8C9         0.0265
     54 H15         8.6558   -1.0035   18.5369 H         1 8C9         0.0263
     55 H16         7.1827   -0.8000   17.5293 H         1 8C9         0.0263
     56 H17         6.7995   -0.0798   19.8362 H         1 8C9         0.0230
     57 H18         6.6752    1.3026   18.6960 H         1 8C9         0.0230
     58 H19         8.1483    1.0990   19.7036 H         1 8C9         0.0230
     59 H20         8.7853    1.5996   12.7064 H         1 8C9         0.0304
     60 H21         7.0341    3.3474   12.8873 H         1 8C9         0.0233
     61 H22         6.5738    2.6873   14.4933 H         1 8C9         0.0233
     62 H23         6.3957    1.6737   13.0210 H         1 8C9         0.0233
     63 H24         9.2094    3.1726   15.2268 H         1 8C9         0.0311
     64 H25         9.3221    5.1092   11.4333 H         1 8C9         0.0237
     65 H26         8.4012    3.5847   11.6663 H         1 8C9         0.0237
     66 H27        10.1921    3.5409   11.5337 H         1 8C9         0.0237
     67 H28         8.5244    5.3651   15.0624 H         1 8C9         0.0274
     68 H29         7.4349    5.0052   13.6803 H         1 8C9         0.0274
     69 H30         8.0763    7.4349   13.8931 H         1 8C9         0.0290
     70 H31         8.4759    6.6900   12.3081 H         1 8C9         0.0290
     71 H32        10.3976    7.5844   14.5252 H         1 8C9         0.0437
     72 H33        10.3448    8.1030   12.8062 H         1 8C9         0.0437
     73 H34        11.0526    1.6508   13.4552 H         1 8C9         0.0270
     74 H35        11.2259    2.1398   15.1749 H         1 8C9         0.0270
     75 H36        12.2102    3.5050   12.7302 H         1 8C9         0.0293
     76 H37        12.6602    3.7827   14.4469 H         1 8C9         0.0293
     77 H38        10.7841    5.0704   14.8880 H         1 8C9         0.0478
     78 H39        12.8356    5.3326   12.1353 H         1 8C9         0.0219
     79 H40        12.1992    8.3462   11.8793 H         1 8C9         0.0219
     80 H41        12.6266    5.7235    8.9095 H         1 8C9         0.0490
     81 H42        13.6672    5.3282   10.3193 H         1 8C9         0.0490
     82 H43        15.5851    6.2664    9.3284 H         1 8C9         0.0819
     83 H44        14.0515    5.0818    7.2329 H         1 8C9         0.2139
     84 H45        13.0305    9.5186   10.2274 H         1 8C9         0.0490
     85 H46        12.3037    8.7736    8.7633 H         1 8C9         0.0490
     86 H47        14.4269    9.7383    8.1236 H         1 8C9         0.0819
     87 H48        15.4941    9.6759   10.2408 H         1 8C9         0.2139
     88 H49        14.9568    6.7619    6.0252 H         1 8C9         0.0077
     89 H50        14.7502    8.6345    6.1168 H         1 8C9         0.0077
@<TRIPOS>BOND
     1    1    2 2  
     2    2    3 1  
     3    2   10 1  
     4    3    4 ar 
     5    3    9 ar 
     6    4    5 ar 
     7    5    6 ar 
     8    6    7 1  
     9    6    8 ar 
    10    8    9 ar 
    11   10   11 1  
    12   11   12 1  
    13   12   13 1  
    14   12   17 1  
    15   13   14 1  
    16   14   15 1  
    17   15   16 1  
    18   17   18 1  
    19   17   19 1  
    20   19   20 1  
    21   19   25 1  
    22   20   21 1  
    23   20   22 1  
    24   20   27 1  
    25   22   23 1  
    26   23   24 1  
    27   24   28 1  
    28   25   26 1  
    29   26   27 1  
    30   27   28 1  
    31   28   29 2  
    32   29   30 1  
    33   30   31 2  
    34   31   32 1  
    35   31   35 1  
    36   32   33 1  
    37   33   34 1  
    38   33   38 1  
    39   35   36 1  
    40   36   37 1  
    41   36   38 1  
    42   38   39 2  
    43    4   40 1  
    44    5   41 1  
    45    7   42 1  
    46    8   43 1  
    47    9   44 1  
    48   10   45 1  
    49   10   46 1  
    50   11   47 1  
    51   11   48 1  
    52   12   49 1  
    53   13   50 1  
    54   13   51 1  
    55   14   52 1  
    56   14   53 1  
    57   15   54 1  
    58   15   55 1  
    59   16   56 1  
    60   16   57 1  
    61   16   58 1  
    62   17   59 1  
    63   18   60 1  
    64   18   61 1  
    65   18   62 1  
    66   19   63 1  
    67   21   64 1  
    68   21   65 1  
    69   21   66 1  
    70   22   67 1  
    71   22   68 1  
    72   23   69 1  
    73   23   70 1  
    74   24   71 1  
    75   24   72 1  
    76   25   73 1  
    77   25   74 1  
    78   26   75 1  
    79   26   76 1  
    80   27   77 1  
    81   29   78 1  
    82   30   79 1  
    83   32   80 1  
    84   32   81 1  
    85   33   82 1  
    86   34   83 1  
    87   35   84 1  
    88   35   85 1  
    89   36   86 1  
    90   37   87 1  
    91   39   88 1  
    92   39   89 1  
@<TRIPOS>SUBSTRUCTURE
     1 8C9         1

