### 
### Created by X-TOOL on Wed Jan  1 15:39:37 2020
### 

@<TRIPOS>MOLECULE
5xpm_ligand
   94    97     1     0     0
SMALL
GAST_HUCK


@<TRIPOS>ATOM
      1 O38         7.0400   -1.0990   32.3310 O.3       1 8C0        -0.3376
      2 C32         7.6480   -1.1720   31.0780 C.ar      1 8C0         0.0805
      3 C31         8.5690   -2.1980   30.7190 C.ar      1 8C0        -0.0397
      4 C30         9.1480   -2.2130   29.4410 C.ar      1 8C0        -0.0663
      5 C33         7.3520   -0.1810   30.1490 C.ar      1 8C0        -0.0397
      6 C34         7.9670   -0.1700   28.8810 C.ar      1 8C0        -0.0663
      7 C29         8.8440   -1.1920   28.4960 C.ar      1 8C0        -0.0253
      8 C21         9.4980   -1.2010   27.1310 C.3       1 8C0         0.0872
      9 O39         8.5060   -1.3670   26.1230 O.3       1 8C0        -0.3691
     10 C40         7.7350   -0.2180   25.8280 C.3       1 8C0         0.0391
     11 C20        10.4270   -0.0110   26.8910 C.3       1 8C0        -0.0178
     12 C19        11.5680   -0.0600   27.9220 C.3       1 8C0        -0.0460
     13 C18        12.6840    0.9340   27.6580 C.3       1 8C0        -0.0380
     14 C25        13.6780    1.0350   28.8550 C.3       1 8C0        -0.0500
     15 C26        14.2050   -0.3590   29.2160 C.3       1 8C0        -0.0530
     16 C27        15.6310   -0.2820   29.7540 C.3       1 8C0        -0.0559
     17 C28        16.3470   -1.5980   29.5810 C.3       1 8C0        -0.0653
     18 C17        12.1580    2.3210   27.3250 C.3       1 8C0        -0.0375
     19 C41        11.3390    2.9040   28.5050 C.3       1 8C0        -0.0619
     20 C16        13.3340    3.2400   26.8970 C.3       1 8C0        -0.0304
     21 C15        14.2980    2.5900   25.8920 C.3       1 8C0        -0.0470
     22 C23        13.0020    4.6280   26.3470 C.3       1 8C0        -0.0161
     23 C24        11.8480    4.6390   25.3280 C.3       1 8C0        -0.0570
     24 C12        12.7640    5.7460   27.3560 C.3       1 8C0        -0.0431
     25 C11        12.6810    7.0790   26.5930 C.3       1 8C0        -0.0423
     26 C10        13.9780    7.3720   25.7940 C.3       1 8C0        -0.0234
     27 C22        14.3380    4.9560   25.6760 C.3       1 8C0        -0.0062
     28 C14        14.8320    3.6890   24.9810 C.3       1 8C0        -0.0393
     29 C9         14.2580    6.2110   24.9000 C.2       1 8C0        -0.0718
     30 C8         14.3940    6.2410   23.5670 C.2       1 8C0        -0.1089
     31 C7         14.2610    7.4770   22.8170 C.2       1 8C0        -0.1086
     32 C6         14.0700    7.4880   21.4820 C.2       1 8C0        -0.0657
     33 C1         13.8730    8.8440   20.8740 C.3       1 8C0         0.0150
     34 C5         14.0180    6.2530   20.6380 C.3       1 8C0         0.0150
     35 C4         14.5060    6.4750   19.1970 C.3       1 8C0         0.1023
     36 O37        14.0670    5.3170   18.4580 O.3       1 8C0        -0.3742
     37 C3         14.0760    7.8190   18.6590 C.2       1 8C0        -0.0127
     38 C36        13.4210    8.0500   17.5230 C.2       1 8C0        -0.1238
     39 C2         14.4700    8.9930   19.4790 C.3       1 8C0         0.1023
     40 O35        15.8920    9.1340   19.5380 O.3       1 8C0        -0.3742
     41 H1          6.4656   -0.3428   32.3595 H         1 8C0         0.2458
     42 H2          8.8234   -2.9701   31.4360 H         1 8C0         0.0525
     43 H3          9.8327   -3.0087   29.1707 H         1 8C0         0.0531
     44 H4          6.6382    0.5941   30.4035 H         1 8C0         0.0525
     45 H5          7.7582    0.6416   28.1934 H         1 8C0         0.0531
     46 H6         10.1378   -2.0950   27.0934 H         1 8C0         0.0738
     47 H7          7.0050   -0.4584   25.0410 H         1 8C0         0.0526
     48 H8          8.3971    0.5885   25.4799 H         1 8C0         0.0526
     49 H9          7.2033    0.1093   26.7336 H         1 8C0         0.0526
     50 H10         9.8642    0.9271   27.0062 H         1 8C0         0.0310
     51 H11        10.8440   -0.0660   25.8746 H         1 8C0         0.0310
     52 H12        11.9980   -1.0724   27.9137 H         1 8C0         0.0270
     53 H13        11.1454    0.1508   28.9154 H         1 8C0         0.0270
     54 H14        13.2447    0.5691   26.7848 H         1 8C0         0.0303
     55 H15        13.1592    1.4650   29.7244 H         1 8C0         0.0268
     56 H16        14.5219    1.6824   28.5745 H         1 8C0         0.0268
     57 H17        14.1936   -0.9920   28.3165 H         1 8C0         0.0265
     58 H18        13.5541   -0.8018   29.9843 H         1 8C0         0.0265
     59 H19        15.5984   -0.0285   30.8239 H         1 8C0         0.0263
     60 H20        16.1794    0.5000   29.2084 H         1 8C0         0.0263
     61 H21        17.3700   -1.5136   29.9765 H         1 8C0         0.0230
     62 H22        16.3872   -1.8559   28.5124 H         1 8C0         0.0230
     63 H23        15.8062   -2.3844   30.1279 H         1 8C0         0.0230
     64 H24        11.4772    2.2290   26.4659 H         1 8C0         0.0304
     65 H25        10.9717    3.9056   28.2369 H         1 8C0         0.0233
     66 H26        11.9797    2.9749   29.3964 H         1 8C0         0.0233
     67 H27        10.4845    2.2453   28.7191 H         1 8C0         0.0233
     68 H28        13.9044    3.4094   27.8222 H         1 8C0         0.0311
     69 H29        13.7640    1.8359   25.2952 H         1 8C0         0.0270
     70 H30        15.1305    2.1110   26.4281 H         1 8C0         0.0270
     71 H31        11.6733    5.6688   24.9830 H         1 8C0         0.0237
     72 H32        10.9349    4.2519   25.8038 H         1 8C0         0.0237
     73 H33        12.1112    4.0043   24.4690 H         1 8C0         0.0237
     74 H34        13.5957    5.7808   28.0751 H         1 8C0         0.0274
     75 H35        11.8214    5.5666   27.8939 H         1 8C0         0.0274
     76 H36        12.5174    7.8923   27.3153 H         1 8C0         0.0290
     77 H37        11.8343    7.0351   25.8922 H         1 8C0         0.0290
     78 H38        14.8178    7.5149   26.4899 H         1 8C0         0.0437
     79 H39        13.8437    8.2812   25.1897 H         1 8C0         0.0437
     80 H40        15.0643    5.1605   26.4765 H         1 8C0         0.0478
     81 H41        14.4156    3.6029   23.9665 H         1 8C0         0.0293
     82 H42        15.9305    3.6653   24.9297 H         1 8C0         0.0293
     83 H43        14.6094    5.3162   23.0337 H         1 8C0         0.0219
     84 H44        14.3173    8.4254   23.3494 H         1 8C0         0.0219
     85 H45        14.3430    9.5895   21.5323 H         1 8C0         0.0490
     86 H46        12.7926    9.0404   20.8102 H         1 8C0         0.0490
     87 H47        12.9772    5.8988   20.6026 H         1 8C0         0.0490
     88 H48        14.6511    5.4846   21.1056 H         1 8C0         0.0490
     89 H49        15.6060    6.4755   19.1947 H         1 8C0         0.0819
     90 H50        13.1197    5.2573   18.4985 H         1 8C0         0.2139
     91 H51        13.1645    9.0698   17.2401 H         1 8C0         0.0077
     92 H52        13.1418    7.2191   16.8768 H         1 8C0         0.0077
     93 H53        14.0552    9.8998   19.0146 H         1 8C0         0.0819
     94 H54        16.2343    9.2504   18.6595 H         1 8C0         0.2139
@<TRIPOS>BOND
     1    1    2 1  
     2    2    3 ar 
     3    2    5 ar 
     4    3    4 ar 
     5    4    7 ar 
     6    5    6 ar 
     7    6    7 ar 
     8    7    8 1  
     9    8    9 1  
    10    8   11 1  
    11    9   10 1  
    12   11   12 1  
    13   12   13 1  
    14   13   14 1  
    15   13   18 1  
    16   14   15 1  
    17   15   16 1  
    18   16   17 1  
    19   18   19 1  
    20   18   20 1  
    21   20   21 1  
    22   20   22 1  
    23   21   28 1  
    24   22   23 1  
    25   22   24 1  
    26   22   27 1  
    27   24   25 1  
    28   25   26 1  
    29   26   29 1  
    30   27   28 1  
    31   27   29 1  
    32   29   30 2  
    33   30   31 1  
    34   31   32 2  
    35   32   33 1  
    36   32   34 1  
    37   33   39 1  
    38   34   35 1  
    39   35   36 1  
    40   35   37 1  
    41   37   38 2  
    42   37   39 1  
    43   39   40 1  
    44    1   41 1  
    45    3   42 1  
    46    4   43 1  
    47    5   44 1  
    48    6   45 1  
    49    8   46 1  
    50   10   47 1  
    51   10   48 1  
    52   10   49 1  
    53   11   50 1  
    54   11   51 1  
    55   12   52 1  
    56   12   53 1  
    57   13   54 1  
    58   14   55 1  
    59   14   56 1  
    60   15   57 1  
    61   15   58 1  
    62   16   59 1  
    63   16   60 1  
    64   17   61 1  
    65   17   62 1  
    66   17   63 1  
    67   18   64 1  
    68   19   65 1  
    69   19   66 1  
    70   19   67 1  
    71   20   68 1  
    72   21   69 1  
    73   21   70 1  
    74   23   71 1  
    75   23   72 1  
    76   23   73 1  
    77   24   74 1  
    78   24   75 1  
    79   25   76 1  
    80   25   77 1  
    81   26   78 1  
    82   26   79 1  
    83   27   80 1  
    84   28   81 1  
    85   28   82 1  
    86   30   83 1  
    87   31   84 1  
    88   33   85 1  
    89   33   86 1  
    90   34   87 1  
    91   34   88 1  
    92   35   89 1  
    93   36   90 1  
    94   38   91 1  
    95   38   92 1  
    96   39   93 1  
    97   40   94 1  
@<TRIPOS>SUBSTRUCTURE
     1 8C0         1

