### 
### Created by X-TOOL on Wed Jan  1 15:39:37 2020
### 

@<TRIPOS>MOLECULE
5xpn_ligand
   82    85     1     0     0
SMALL
GAST_HUCK


@<TRIPOS>ATOM
      1 O36         8.1640   -2.1600   32.0470 O.3       1 8BO        -0.3376
      2 C33         8.3940   -1.6080   30.8140 C.ar      1 8BO         0.0805
      3 C32         9.0580   -2.3190   29.8050 C.ar      1 8BO        -0.0397
      4 C31         9.2620   -1.7220   28.5590 C.ar      1 8BO        -0.0663
      5 C34         7.9430   -0.3150   30.5580 C.ar      1 8BO        -0.0397
      6 C35         8.1450    0.2810   29.3180 C.ar      1 8BO        -0.0663
      7 C30         8.8140   -0.4230   28.3230 C.ar      1 8BO        -0.0253
      8 C27         9.0130    0.2450   27.0180 C.3       1 8BO         0.0872
      9 O28         7.7670    0.1540   26.3430 O.3       1 8BO        -0.3691
     10 C29         7.8230   -0.7350   25.2300 C.3       1 8BO         0.0391
     11 C26         9.3470    1.7330   27.1940 C.3       1 8BO        -0.0181
     12 C25        10.6700    2.0230   27.9050 C.3       1 8BO        -0.0488
     13 C24        11.9110    1.9280   27.0070 C.3       1 8BO        -0.0500
     14 C21        13.1130    2.4950   27.7740 C.3       1 8BO        -0.0404
     15 C22        13.7960    1.4670   28.6630 C.3       1 8BO        -0.0621
     16 C20        14.2160    3.1890   26.9650 C.3       1 8BO        -0.0306
     17 C16        13.8100    4.5110   26.3280 C.3       1 8BO        -0.0161
     18 C23        12.7210    4.3260   25.2660 C.3       1 8BO        -0.0570
     19 C15        13.4160    5.6610   27.2600 C.3       1 8BO        -0.0431
     20 C14        13.4650    7.0120   26.5180 C.3       1 8BO        -0.0423
     21 C13        14.8100    7.2610   25.8120 C.3       1 8BO        -0.0234
     22 C19        14.9280    2.4270   25.8370 C.3       1 8BO        -0.0470
     23 C18        15.6890    3.5290   25.0900 C.3       1 8BO        -0.0393
     24 C17        15.1680    4.8160   25.7310 C.3       1 8BO        -0.0062
     25 C12        15.0400    6.0620   24.9140 C.2       1 8BO        -0.0718
     26 C11        15.1030    6.0760   23.5630 C.2       1 8BO        -0.1089
     27 C10        14.9290    7.2970   22.7780 C.2       1 8BO        -0.1086
     28 C4         14.7610    7.3510   21.4340 C.2       1 8BO        -0.0657
     29 C3         14.5310    8.7230   20.8270 C.3       1 8BO         0.0150
     30 C2         15.1610    8.8530   19.4380 C.3       1 8BO         0.1023
     31 O9         16.5990    8.8390   19.4800 O.3       1 8BO        -0.3742
     32 C5         14.7400    6.1140   20.5630 C.3       1 8BO         0.0150
     33 C6         15.1050    6.3340   19.0890 C.3       1 8BO         0.1023
     34 O8         14.4640    5.3190   18.3220 O.3       1 8BO        -0.3742
     35 C1         14.7000    7.6920   18.5950 C.2       1 8BO        -0.0127
     36 C7         13.9860    7.8560   17.4910 C.2       1 8BO        -0.1238
     37 H1          7.7053   -1.5325   32.5931 H         1 8BO         0.2458
     38 H2          9.4113   -3.3268   29.9907 H         1 8BO         0.0525
     39 H3          9.7699   -2.2699   27.7735 H         1 8BO         0.0531
     40 H4          7.4270    0.2346   31.3369 H         1 8BO         0.0525
     41 H5          7.7841    1.2855   29.1288 H         1 8BO         0.0531
     42 H6          9.8104   -0.2549   26.4485 H         1 8BO         0.0738
     43 H7          6.8385   -0.7724   24.7408 H         1 8BO         0.0526
     44 H8          8.0979   -1.7416   25.5781 H         1 8BO         0.0526
     45 H9          8.5757   -0.3770   24.5122 H         1 8BO         0.0526
     46 H10         8.5381    2.1968   27.7776 H         1 8BO         0.0310
     47 H11         9.3891    2.1929   26.1957 H         1 8BO         0.0310
     48 H12        10.7842    1.2999   28.7260 H         1 8BO         0.0268
     49 H13        10.6220    3.0416   28.3175 H         1 8BO         0.0268
     50 H14        11.7493    2.5105   26.0880 H         1 8BO         0.0268
     51 H15        12.1003    0.8763   26.7460 H         1 8BO         0.0268
     52 H16        12.6896    3.2644   28.4364 H         1 8BO         0.0301
     53 H17        14.6449    1.9368   29.1814 H         1 8BO         0.0233
     54 H18        14.1598    0.6323   28.0458 H         1 8BO         0.0233
     55 H19        13.0774    1.0885   29.4048 H         1 8BO         0.0233
     56 H20        14.9904    3.4170   27.7121 H         1 8BO         0.0311
     57 H21        12.4600    5.3035   24.8344 H         1 8BO         0.0237
     58 H22        11.8288    3.8799   25.7295 H         1 8BO         0.0237
     59 H23        13.0925    3.6619   24.4717 H         1 8BO         0.0237
     60 H24        14.1139    5.6913   28.1097 H         1 8BO         0.0274
     61 H25        12.3944    5.4905   27.6305 H         1 8BO         0.0274
     62 H26        13.2969    7.8187   27.2467 H         1 8BO         0.0290
     63 H27        12.6648    7.0269   25.7634 H         1 8BO         0.0290
     64 H28        15.6199    7.3452   26.5516 H         1 8BO         0.0437
     65 H29        14.7625    8.1828   25.2137 H         1 8BO         0.0437
     66 H30        14.2010    1.9329   25.1757 H         1 8BO         0.0270
     67 H31        15.6214    1.6769   26.2451 H         1 8BO         0.0270
     68 H32        15.4612    3.5049   24.0141 H         1 8BO         0.0293
     69 H33        16.7743    3.4272   25.2374 H         1 8BO         0.0293
     70 H34        15.8654    5.0561   26.5471 H         1 8BO         0.0478
     71 H35        15.2909    5.1401   23.0389 H         1 8BO         0.0219
     72 H36        14.9348    8.2425   23.3183 H         1 8BO         0.0219
     73 H37        14.9731    9.4821   21.4890 H         1 8BO         0.0490
     74 H38        13.4480    8.8961   20.7425 H         1 8BO         0.0490
     75 H39        14.8274    9.7973   18.9832 H         1 8BO         0.0819
     76 H40        16.9063    9.5653   20.0097 H         1 8BO         0.2139
     77 H41        13.7254    5.6909   20.6007 H         1 8BO         0.0490
     78 H42        15.4545    5.3915   20.9842 H         1 8BO         0.0490
     79 H43        16.1950    6.2372   18.9769 H         1 8BO         0.0819
     80 H44        13.5234    5.3803   18.4408 H         1 8BO         0.2139
     81 H45        13.7111    8.8578   17.1641 H         1 8BO         0.0077
     82 H46        13.6740    6.9890   16.9105 H         1 8BO         0.0077
@<TRIPOS>BOND
     1    1    2 1  
     2    2    3 ar 
     3    2    5 ar 
     4    3    4 ar 
     5    4    7 ar 
     6    5    6 ar 
     7    6    7 ar 
     8    7    8 1  
     9    8    9 1  
    10    8   11 1  
    11    9   10 1  
    12   11   12 1  
    13   12   13 1  
    14   13   14 1  
    15   14   15 1  
    16   14   16 1  
    17   16   17 1  
    18   16   22 1  
    19   17   18 1  
    20   17   19 1  
    21   17   24 1  
    22   19   20 1  
    23   20   21 1  
    24   21   25 1  
    25   22   23 1  
    26   23   24 1  
    27   24   25 1  
    28   25   26 2  
    29   26   27 1  
    30   27   28 2  
    31   28   29 1  
    32   28   32 1  
    33   29   30 1  
    34   30   31 1  
    35   30   35 1  
    36   32   33 1  
    37   33   34 1  
    38   33   35 1  
    39   35   36 2  
    40    1   37 1  
    41    3   38 1  
    42    4   39 1  
    43    5   40 1  
    44    6   41 1  
    45    8   42 1  
    46   10   43 1  
    47   10   44 1  
    48   10   45 1  
    49   11   46 1  
    50   11   47 1  
    51   12   48 1  
    52   12   49 1  
    53   13   50 1  
    54   13   51 1  
    55   14   52 1  
    56   15   53 1  
    57   15   54 1  
    58   15   55 1  
    59   16   56 1  
    60   18   57 1  
    61   18   58 1  
    62   18   59 1  
    63   19   60 1  
    64   19   61 1  
    65   20   62 1  
    66   20   63 1  
    67   21   64 1  
    68   21   65 1  
    69   22   66 1  
    70   22   67 1  
    71   23   68 1  
    72   23   69 1  
    73   24   70 1  
    74   26   71 1  
    75   27   72 1  
    76   29   73 1  
    77   29   74 1  
    78   30   75 1  
    79   31   76 1  
    80   32   77 1  
    81   32   78 1  
    82   33   79 1  
    83   34   80 1  
    84   36   81 1  
    85   36   82 1  
@<TRIPOS>SUBSTRUCTURE
     1 8BO         1

