### 
### Created by X-TOOL on Wed Jan  1 15:39:38 2020
### 

@<TRIPOS>MOLECULE
5xpo_ligand
   77    80     1     0     0
SMALL
GAST_HUCK


@<TRIPOS>ATOM
      1 O25         9.0490    0.0250   26.4350 O.2       1 8BL        -0.3840
      2 C24         8.4500    0.5220   27.3880 C.2       1 8BL         0.1247
      3 C25         7.6340   -0.4130   28.2410 C.ar      1 8BL         0.0213
      4 C30         7.6560   -1.8070   27.9560 C.ar      1 8BL        -0.0515
      5 C29         6.8640   -2.6920   28.6900 C.ar      1 8BL        -0.0268
      6 C28         6.0260   -2.2140   29.7200 C.ar      1 8BL         0.0935
      7 O29         5.2050   -3.0810   30.4500 O.3       1 8BL        -0.3293
      8 C27         6.0000   -0.8400   29.9680 C.ar      1 8BL        -0.0268
      9 C26         6.8100    0.0500   29.2350 C.ar      1 8BL        -0.0515
     10 C23         8.5590    2.0160   27.5520 C.3       1 8BL         0.0207
     11 C20         9.9200    2.3180   28.1770 C.3       1 8BL        -0.0376
     12 C19        11.1050    2.1410   27.2310 C.3       1 8BL        -0.0482
     13 C18        12.3340    2.7440   27.9050 C.3       1 8BL        -0.0402
     14 C22        12.8650    1.8280   28.9940 C.3       1 8BL        -0.0621
     15 C17        13.5350    3.1240   27.0590 C.3       1 8BL        -0.0306
     16 C13        13.4670    4.5270   26.4310 C.3       1 8BL        -0.0161
     17 C21        12.3600    4.7230   25.3720 C.3       1 8BL        -0.0570
     18 C12        13.4100    5.6560   27.4210 C.3       1 8BL        -0.0431
     19 C11        13.8150    6.9830   26.7670 C.3       1 8BL        -0.0423
     20 C10        15.0130    6.9070   25.8060 C.3       1 8BL        -0.0234
     21 C16        13.9910    2.2070   25.9250 C.3       1 8BL        -0.0470
     22 C15        14.9310    3.0880   25.1010 C.3       1 8BL        -0.0393
     23 C14        14.8210    4.4800   25.7470 C.3       1 8BL        -0.0062
     24 C9         14.8880    5.7190   24.9190 C.2       1 8BL        -0.0718
     25 C8         14.8420    5.7470   23.5690 C.2       1 8BL        -0.1089
     26 C7         14.8820    7.0130   22.8520 C.2       1 8BL        -0.1086
     27 C6         14.6940    7.1780   21.5290 C.2       1 8BL        -0.0657
     28 C1         14.7740    8.6270   21.0440 C.3       1 8BL         0.0150
     29 C5         14.4100    6.0420   20.5820 C.3       1 8BL         0.0150
     30 C4         15.0990    6.2900   19.2500 C.3       1 8BL         0.1023
     31 O2         14.5890    5.2850   18.3700 O.3       1 8BL        -0.3742
     32 C3         14.7520    7.6320   18.7520 C.2       1 8BL        -0.0127
     33 C33        14.0100    7.7970   17.6550 C.2       1 8BL        -0.1238
     34 C2         15.1630    8.8300   19.5690 C.3       1 8BL         0.1023
     35 O1         16.5360    9.1380   19.3890 O.3       1 8BL        -0.3742
     36 H1          8.2921   -2.1844   27.1635 H         1 8BL         0.0645
     37 H2          6.8929   -3.7525   28.4674 H         1 8BL         0.0557
     38 H3          4.7167   -2.5842   31.0958 H         1 8BL         0.2502
     39 H4          5.3445   -0.4509   30.7387 H         1 8BL         0.0557
     40 H5          6.7817    1.1103   29.4587 H         1 8BL         0.0645
     41 H6          7.7560    2.3800   28.2097 H         1 8BL         0.0483
     42 H7          8.4804    2.5071   26.5709 H         1 8BL         0.0483
     43 H8         10.0614    1.6437   29.0345 H         1 8BL         0.0289
     44 H9          9.9132    3.3606   28.5276 H         1 8BL         0.0289
     45 H10        10.9066    2.6598   26.2815 H         1 8BL         0.0269
     46 H11        11.2720    1.0713   27.0365 H         1 8BL         0.0269
     47 H12        11.9822    3.6717   28.3800 H         1 8BL         0.0301
     48 H13        13.7486    2.2875   29.4610 H         1 8BL         0.0233
     49 H14        13.1447    0.8593   28.5542 H         1 8BL         0.0233
     50 H15        12.0863    1.6739   29.7555 H         1 8BL         0.0233
     51 H16        14.3668    3.1408   27.7786 H         1 8BL         0.0311
     52 H17        12.3978    5.7533   24.9885 H         1 8BL         0.0237
     53 H18        11.3773    4.5382   25.8303 H         1 8BL         0.0237
     54 H19        12.5165    4.0172   24.5429 H         1 8BL         0.0237
     55 H20        14.0974    5.4404   28.2522 H         1 8BL         0.0274
     56 H21        12.3838    5.7440   27.8072 H         1 8BL         0.0274
     57 H22        14.0675    7.6930   27.5683 H         1 8BL         0.0290
     58 H23        12.9502    7.3605   26.2017 H         1 8BL         0.0290
     59 H24        15.9421    6.8281   26.3896 H         1 8BL         0.0437
     60 H25        15.0429    7.8181   25.1904 H         1 8BL         0.0437
     61 H26        13.1341    1.8752   25.3204 H         1 8BL         0.0270
     62 H27        14.5227    1.3290   26.3204 H         1 8BL         0.0270
     63 H28        14.6103    3.1212   24.0493 H         1 8BL         0.0293
     64 H29        15.9638    2.7138   25.1578 H         1 8BL         0.0293
     65 H30        15.6243    4.5487   26.4953 H         1 8BL         0.0478
     66 H31        14.7744    4.8136   23.0121 H         1 8BL         0.0219
     67 H32        15.0822    7.9082   23.4390 H         1 8BL         0.0219
     68 H33        15.5204    9.1470   21.6624 H         1 8BL         0.0490
     69 H34        13.7865    9.0869   21.1968 H         1 8BL         0.0490
     70 H35        13.3245    5.9644   20.4216 H         1 8BL         0.0490
     71 H36        14.7845    5.1034   21.0165 H         1 8BL         0.0490
     72 H37        16.1907    6.2007   19.3514 H         1 8BL         0.0819
     73 H38        13.6463    5.3774   18.2981 H         1 8BL         0.2139
     74 H39        13.7674    8.8002   17.3076 H         1 8BL         0.0077
     75 H40        13.6472    6.9285   17.1073 H         1 8BL         0.0077
     76 H41        14.5911    9.6937   19.1991 H         1 8BL         0.0819
     77 H42        16.6991    9.3287   18.4727 H         1 8BL         0.2139
@<TRIPOS>BOND
     1    1    2 2  
     2    2    3 1  
     3    2   10 1  
     4    3    4 ar 
     5    3    9 ar 
     6    4    5 ar 
     7    5    6 ar 
     8    6    7 1  
     9    6    8 ar 
    10    8    9 ar 
    11   10   11 1  
    12   11   12 1  
    13   12   13 1  
    14   13   14 1  
    15   13   15 1  
    16   15   16 1  
    17   15   21 1  
    18   16   17 1  
    19   16   18 1  
    20   16   23 1  
    21   18   19 1  
    22   19   20 1  
    23   20   24 1  
    24   21   22 1  
    25   22   23 1  
    26   23   24 1  
    27   24   25 2  
    28   25   26 1  
    29   26   27 2  
    30   27   28 1  
    31   27   29 1  
    32   28   34 1  
    33   29   30 1  
    34   30   31 1  
    35   30   32 1  
    36   32   33 2  
    37   32   34 1  
    38   34   35 1  
    39    4   36 1  
    40    5   37 1  
    41    7   38 1  
    42    8   39 1  
    43    9   40 1  
    44   10   41 1  
    45   10   42 1  
    46   11   43 1  
    47   11   44 1  
    48   12   45 1  
    49   12   46 1  
    50   13   47 1  
    51   14   48 1  
    52   14   49 1  
    53   14   50 1  
    54   15   51 1  
    55   17   52 1  
    56   17   53 1  
    57   17   54 1  
    58   18   55 1  
    59   18   56 1  
    60   19   57 1  
    61   19   58 1  
    62   20   59 1  
    63   20   60 1  
    64   21   61 1  
    65   21   62 1  
    66   22   63 1  
    67   22   64 1  
    68   23   65 1  
    69   25   66 1  
    70   26   67 1  
    71   28   68 1  
    72   28   69 1  
    73   29   70 1  
    74   29   71 1  
    75   30   72 1  
    76   31   73 1  
    77   33   74 1  
    78   33   75 1  
    79   34   76 1  
    80   35   77 1  
@<TRIPOS>SUBSTRUCTURE
     1 8BL         1

