### 
### Created by X-TOOL on Wed Jan  1 15:39:38 2020
### 

@<TRIPOS>MOLECULE
5xpp_ligand
   79    82     1     0     0
SMALL
GAST_HUCK


@<TRIPOS>ATOM
      1 O35         6.1100    2.2730   29.0310 O.3       1 8BF        -0.3376
      2 C26         7.0300    1.4610   28.4630 C.ar      1 8BF         0.0805
      3 C25         8.1020    1.9760   27.7500 C.ar      1 8BF        -0.0397
      4 C24         9.0090    1.1050   27.1770 C.ar      1 8BF        -0.0663
      5 C27         6.8510    0.1050   28.6100 C.ar      1 8BF        -0.0397
      6 C28         7.7510   -0.7790   28.0400 C.ar      1 8BF        -0.0663
      7 C23         8.8400   -0.2870   27.3170 C.ar      1 8BF        -0.0255
      8 C22         9.7730   -1.2970   26.7290 C.3       1 8BF         0.0842
      9 O34        10.1060   -2.2520   27.7670 O.3       1 8BF        -0.3811
     10 C21        11.0070   -0.6460   26.0660 C.3       1 8BF        -0.0183
     11 C20        11.9660    0.0110   27.0830 C.3       1 8BF        -0.0489
     12 C19        12.9600    0.9740   26.4140 C.3       1 8BF        -0.0500
     13 C18        13.3090    2.1660   27.3020 C.3       1 8BF        -0.0404
     14 C33        13.7630    1.6390   28.6700 C.3       1 8BF        -0.0621
     15 C17        14.3860    3.0930   26.7200 C.3       1 8BF        -0.0306
     16 C13        13.9290    4.4320   26.1580 C.3       1 8BF        -0.0161
     17 C32        12.8390    4.2890   25.0910 C.3       1 8BF        -0.0570
     18 C12        13.4930    5.4810   27.1660 C.3       1 8BF        -0.0431
     19 C11        13.4450    6.8720   26.5290 C.3       1 8BF        -0.0423
     20 C10        14.7320    7.2680   25.7770 C.3       1 8BF        -0.0234
     21 C16        15.2670    2.5110   25.6100 C.3       1 8BF        -0.0470
     22 C15        15.8670    3.6890   24.8570 C.3       1 8BF        -0.0393
     23 C14        15.2530    4.8720   25.5750 C.3       1 8BF        -0.0062
     24 C9         15.0670    6.1420   24.8320 C.2       1 8BF        -0.0718
     25 C8         15.2140    6.2090   23.5070 C.2       1 8BF        -0.1089
     26 C7         14.9900    7.4390   22.7530 C.2       1 8BF        -0.1086
     27 C6         14.8540    7.4680   21.4090 C.2       1 8BF        -0.0657
     28 C1         14.9750    6.2010   20.5780 C.3       1 8BF         0.0150
     29 C5         14.5720    8.8160   20.7610 C.3       1 8BF         0.0150
     30 C4         15.2230    8.8900   19.3740 C.3       1 8BF         0.1023
     31 O30        16.6610    8.8900   19.4270 O.3       1 8BF        -0.3742
     32 C3         14.8050    7.6790   18.5940 C.2       1 8BF        -0.0127
     33 C31        14.0250    7.8040   17.5300 C.2       1 8BF        -0.1238
     34 C2         15.3240    6.3720   19.1090 C.3       1 8BF         0.1023
     35 O29        14.7540    5.2320   18.4650 O.3       1 8BF        -0.3742
     36 H1          6.5374    2.8433   29.6592 H         1 8BF         0.2458
     37 H2          8.2269    3.0475   27.6435 H         1 8BF         0.0525
     38 H3          9.8528    1.4936   26.6183 H         1 8BF         0.0531
     39 H4          6.0045   -0.2716   29.1727 H         1 8BF         0.0525
     40 H5          7.6112   -1.8479   28.1542 H         1 8BF         0.0531
     41 H6          9.2335   -1.8372   25.9371 H         1 8BF         0.0736
     42 H7         10.6995   -2.9054   27.4160 H         1 8BF         0.2127
     43 H8         10.6603    0.1257   25.3630 H         1 8BF         0.0310
     44 H9         11.5589   -1.4222   25.5156 H         1 8BF         0.0310
     45 H10        12.5320   -0.7800   27.5968 H         1 8BF         0.0268
     46 H11        11.3707    0.5724   27.8181 H         1 8BF         0.0268
     47 H12        12.5143    1.3483   25.4806 H         1 8BF         0.0268
     48 H13        13.8840    0.4233   26.1841 H         1 8BF         0.0268
     49 H14        12.3952    2.7629   27.4388 H         1 8BF         0.0301
     50 H15        14.0186    2.4865   29.3230 H         1 8BF         0.0233
     51 H16        14.6463    0.9964   28.5407 H         1 8BF         0.0233
     52 H17        12.9495    1.0565   29.1269 H         1 8BF         0.0233
     53 H18        15.0462    3.3137   27.5717 H         1 8BF         0.0311
     54 H19        12.5515    5.2856   24.7248 H         1 8BF         0.0237
     55 H20        11.9607    3.7917   25.5283 H         1 8BF         0.0237
     56 H21        13.2221    3.6872   24.2537 H         1 8BF         0.0237
     57 H22        14.2069    5.4937   28.0027 H         1 8BF         0.0274
     58 H23        12.4919    5.2235   27.5420 H         1 8BF         0.0274
     59 H24        13.2699    7.6103   27.3254 H         1 8BF         0.0290
     60 H25        12.6077    6.8962   25.8160 H         1 8BF         0.0290
     61 H26        15.5547    7.4160   26.4920 H         1 8BF         0.0437
     62 H27        14.5662    8.1967   25.2113 H         1 8BF         0.0437
     63 H28        14.6602    1.8964   24.9288 H         1 8BF         0.0270
     64 H29        16.0666    1.8943   26.0462 H         1 8BF         0.0270
     65 H30        15.5786    3.6729   23.7956 H         1 8BF         0.0293
     66 H31        16.9639    3.6980   24.9388 H         1 8BF         0.0293
     67 H32        15.9303    5.1080   26.4090 H         1 8BF         0.0478
     68 H33        15.5126    5.3114   22.9675 H         1 8BF         0.0219
     69 H34        14.9296    8.3785   23.3003 H         1 8BF         0.0219
     70 H35        14.0101    5.6755   20.6311 H         1 8BF         0.0490
     71 H36        15.7577    5.5776   21.0349 H         1 8BF         0.0490
     72 H37        14.9805    9.6159   21.3961 H         1 8BF         0.0490
     73 H38        13.4848    8.9484   20.6584 H         1 8BF         0.0490
     74 H39        14.8805    9.8038   18.8664 H         1 8BF         0.0819
     75 H40        16.9584    9.6415   19.9264 H         1 8BF         0.2139
     76 H41        13.7251    6.9208   16.9680 H         1 8BF         0.0077
     77 H42        13.6840    8.7899   17.2177 H         1 8BF         0.0077
     78 H43        16.4159    6.3583   18.9765 H         1 8BF         0.0819
     79 H44        13.8130    5.2336   18.5953 H         1 8BF         0.2139
@<TRIPOS>BOND
     1    1    2 1  
     2    2    3 ar 
     3    2    5 ar 
     4    3    4 ar 
     5    4    7 ar 
     6    5    6 ar 
     7    6    7 ar 
     8    7    8 1  
     9    8    9 1  
    10    8   10 1  
    11   10   11 1  
    12   11   12 1  
    13   12   13 1  
    14   13   14 1  
    15   13   15 1  
    16   15   16 1  
    17   15   21 1  
    18   16   17 1  
    19   16   18 1  
    20   16   23 1  
    21   18   19 1  
    22   19   20 1  
    23   20   24 1  
    24   21   22 1  
    25   22   23 1  
    26   23   24 1  
    27   24   25 2  
    28   25   26 1  
    29   26   27 2  
    30   27   28 1  
    31   27   29 1  
    32   28   34 1  
    33   29   30 1  
    34   30   31 1  
    35   30   32 1  
    36   32   33 2  
    37   32   34 1  
    38   34   35 1  
    39    1   36 1  
    40    3   37 1  
    41    4   38 1  
    42    5   39 1  
    43    6   40 1  
    44    8   41 1  
    45    9   42 1  
    46   10   43 1  
    47   10   44 1  
    48   11   45 1  
    49   11   46 1  
    50   12   47 1  
    51   12   48 1  
    52   13   49 1  
    53   14   50 1  
    54   14   51 1  
    55   14   52 1  
    56   15   53 1  
    57   17   54 1  
    58   17   55 1  
    59   17   56 1  
    60   18   57 1  
    61   18   58 1  
    62   19   59 1  
    63   19   60 1  
    64   20   61 1  
    65   20   62 1  
    66   21   63 1  
    67   21   64 1  
    68   22   65 1  
    69   22   66 1  
    70   23   67 1  
    71   25   68 1  
    72   26   69 1  
    73   28   70 1  
    74   28   71 1  
    75   29   72 1  
    76   29   73 1  
    77   30   74 1  
    78   31   75 1  
    79   33   76 1  
    80   33   77 1  
    81   34   78 1  
    82   35   79 1  
@<TRIPOS>SUBSTRUCTURE
     1 8BF         1

