### 
### Created by X-TOOL on Mon Sep 10 21:13:32 2018
### 

@<TRIPOS>MOLECULE
5xqx_ligand
   26    27     1     0     0
SMALL
GAST_HUCK


@<TRIPOS>ATOM
      1 C10        -8.2890  -10.9830   11.0210 C.ar      1 8CC        -0.0197
      2 C15        -9.0950   -9.9660   11.6290 C.ar      1 8CC        -0.0358
      3 C01        -3.3490  -15.8340   11.9360 C.3       1 8CC         0.0186
      4 N02        -4.4110  -14.8500   11.8450 N.am      1 8CC        -0.2901
      5 C03        -5.3390  -14.6260   12.9250 C.2       1 8CC         0.2176
      6 O04        -5.3220  -15.2220   13.9840 O.2       1 8CC        -0.3913
      7 C05        -6.3780  -13.5800   12.7420 C.2       1 8CC         0.1285
      8 C06        -6.6290  -12.8470   11.5750 C.2       1 8CC        -0.0475
      9 C07        -7.6980  -12.0050   11.8830 C.2       1 8CC        -0.0143
     10 C08        -8.0380  -12.2070   13.2500 C.2       1 8CC         0.0417
     11 N09        -7.2220  -13.1920   13.7470 N.pl3     1 8CC        -0.2713
     12 C11        -7.9630  -10.8720    9.6650 C.ar      1 8CC        -0.0358
     13 C12        -8.5230   -9.7740    8.9530 C.ar      1 8CC         0.0035
     14 N13        -9.3420   -8.8490    9.5640 N.ar      1 8CC        -0.3060
     15 C14        -9.6240   -8.9070   10.8860 C.ar      1 8CC         0.0035
     16 H1         -9.2996  -10.0194   12.6922 H         1 8CC         0.0664
     17 H2         -2.7676  -15.8333   11.0022 H         1 8CC         0.0482
     18 H3         -3.7855  -16.8310   12.0954 H         1 8CC         0.0482
     19 H4         -2.6885  -15.5838   12.7793 H         1 8CC         0.0482
     20 H5         -4.5020  -14.3108   11.0077 H         1 8CC         0.1834
     21 H6         -6.1002  -12.9193   10.6257 H         1 8CC         0.0399
     22 H7         -8.8095  -11.6741   13.8038 H         1 8CC         0.0977
     23 H8         -7.2413  -13.5712   14.7045 H         1 8CC         0.2393
     24 H9         -7.3130  -11.5901    9.1783 H         1 8CC         0.0664
     25 H10        -8.2986   -9.6619    7.8984 H         1 8CC         0.0802
     26 H11       -10.2437   -8.1522   11.3564 H         1 8CC         0.0802
@<TRIPOS>BOND
     1    1    2 ar 
     2    9    1 1  
     3    1   12 ar 
     4    2   15 ar 
     5    4    3 1  
     6    5    4 am 
     7    5    6 2  
     8    7    5 1  
     9    8    7 2  
    10    7   11 1  
    11    8    9 1  
    12    9   10 2  
    13   10   11 1  
    14   12   13 ar 
    15   13   14 ar 
    16   14   15 ar 
    17    2   16 1  
    18    3   17 1  
    19    3   18 1  
    20    3   19 1  
    21    4   20 1  
    22    8   21 1  
    23   10   22 1  
    24   11   23 1  
    25   12   24 1  
    26   13   25 1  
    27   15   26 1  
@<TRIPOS>SUBSTRUCTURE
     1 8CC         1

