### 
### Created by X-TOOL on Mon Sep 10 21:13:33 2018
### 

@<TRIPOS>MOLECULE
5xs2_ligand
   23    24     1     0     0
SMALL
GAST_HUCK


@<TRIPOS>ATOM
      1 C10         8.3130   26.7100  -10.1040 C.ar      1 8D6        -0.0194
      2 C15         8.3330   27.1110   -8.7570 C.ar      1 8D6        -0.0358
      3 N01         4.7520   22.1760  -12.3600 N.am      1 8D6        -0.3009
      4 C02         5.8120   23.0630  -12.7020 C.2       1 8D6         0.2163
      5 O03         6.3340   22.9840  -13.8020 O.2       1 8D6        -0.3912
      6 C04         6.2140   24.0920  -11.7010 C.2       1 8D6         0.1429
      7 C05         7.3860   24.8370  -11.6760 C.2       1 8D6         0.0535
      8 CL06        8.6640   24.6880  -12.8400 Cl        1 8D6        -0.0934
      9 C07         7.3540   25.6550  -10.5620 C.2       1 8D6        -0.0005
     10 C08         6.1310   25.4170   -9.9390 C.2       1 8D6         0.0425
     11 N09         5.4620   24.4600  -10.6280 N.pl3     1 8D6        -0.2702
     12 C11         9.1080   27.4190  -11.0220 C.ar      1 8D6        -0.0358
     13 C12         9.9340   28.4470  -10.5640 C.ar      1 8D6         0.0034
     14 N13         9.9440   28.7800   -9.2490 N.ar      1 8D6        -0.3060
     15 C14         9.1820   28.1350   -8.3370 C.ar      1 8D6         0.0034
     16 H1          7.6843   26.6212   -8.0398 H         1 8D6         0.0664
     17 H2          4.3204   22.2362  -11.4599 H         1 8D6         0.1801
     18 H3          4.4391   21.4929  -13.0199 H         1 8D6         0.1801
     19 H4          5.7702   25.9190   -9.0425 H         1 8D6         0.0979
     20 H5          4.5389   24.0757  -10.3807 H         1 8D6         0.2398
     21 H6          9.0797   27.1694  -12.0765 H         1 8D6         0.0664
     22 H7         10.5694   28.9808  -11.2614 H         1 8D6         0.0802
     23 H8          9.2304   28.4110   -7.2898 H         1 8D6         0.0802
@<TRIPOS>BOND
     1    1    2 ar 
     2    9    1 1  
     3    1   12 ar 
     4    2   15 ar 
     5    4    3 am 
     6    4    5 2  
     7    6    4 1  
     8    7    6 2  
     9    6   11 1  
    10    7    8 1  
    11    7    9 1  
    12    9   10 2  
    13   10   11 1  
    14   12   13 ar 
    15   13   14 ar 
    16   14   15 ar 
    17    2   16 1  
    18    3   17 1  
    19    3   18 1  
    20   10   19 1  
    21   11   20 1  
    22   12   21 1  
    23   13   22 1  
    24   15   23 1  
@<TRIPOS>SUBSTRUCTURE
     1 8D6         1

