### 
### Created by X-TOOL on Wed Jan  1 15:39:35 2020
### 

@<TRIPOS>MOLECULE
5xs8_ligand
   52    53     1     0     0
SMALL
GAST_HUCK


@<TRIPOS>ATOM
      1 C1         -4.0920   -0.6570    4.3610 C.3       1 GCD         0.2075
      2 C2         -4.6280    0.2470    5.4830 C.3       1 GCD         0.1417
      3 C3         -4.1280   -0.2680    6.8350 C.3       1 GCD         0.1056
      4 C4         -4.3150   -1.7870    6.9350 C.2       1 GCD        -0.0271
      5 C5         -4.4900   -2.5260    5.8370 C.2       1 GCD         0.1115
      6 C6         -4.5700   -4.0010    5.9360 C.2       1 GCD         0.0810
      7 O2         -4.2740    1.6310    5.2570 O.3       1 GCD        -0.3820
      8 O3         -4.9500    0.3810    7.8000 O.3       1 GCD        -0.3804
      9 O5         -4.5440   -2.0030    4.4980 O.3       1 GCD        -0.2949
     10 O6A        -4.7160   -4.5990    4.8560 O.co2     1 GCD        -0.5623
     11 O6B        -4.4220   -4.5360    7.0470 O.co2     1 GCD        -0.5623
     12 C1         -2.6070    0.5430    0.0780 C.3       1 8EX         0.1823
     13 C2         -3.6260    0.7790    1.1880 C.3       1 8EX         0.1212
     14 C3         -3.5200   -0.3360    2.1280 C.3       1 8EX         0.1204
     15 C4         -3.7980   -1.6470    1.3580 C.3       1 8EX         0.1413
     16 C5         -2.9080   -1.7360    0.1200 C.3       1 8EX         0.1179
     17 C6         -3.2770   -2.9960   -0.6640 C.3       1 8EX         0.1025
     18 C7         -4.0920    3.0940    1.8870 C.2       1 8EX         0.1733
     19 C8         -3.5320    4.3600    2.5820 C.3       1 8EX         0.0257
     20 N          -3.2660    2.0810    1.7910 N.am      1 8EX        -0.2766
     21 O1         -3.1580    1.5730   -0.7130 O.3       1 8EX        -0.3651
     22 O3         -4.5530   -0.1610    3.1140 O.3       1 8EX        -0.3368
     23 O4         -5.1540   -1.5980    0.9470 O.3       1 8EX        -0.2571
     24 O5         -3.1100   -0.5410   -0.7300 O.3       1 8EX        -0.3408
     25 O6         -2.5510   -3.0020   -1.8410 O.3       1 8EX        -0.2631
     26 O7         -5.2720    3.0460    1.5530 O.2       1 8EX        -0.3974
     27 O1S        -1.2570   -4.1820   -3.4350 O.co2     1 8EX        -0.4611
     28 O2S        -0.3410   -3.5850   -0.9440 O.co2     1 8EX        -0.4611
     29 O3S        -2.0220   -5.5960   -1.6900 O.co2     1 8EX        -0.4611
     30 S1         -1.5170   -4.1060   -1.9490 S.o2      1 8EX        -0.0736
     31 S2         -6.1350   -2.8080    0.9200 S.o2      1 8EX        -0.0733
     32 O5S        -6.4720   -2.9840   -0.4790 O.co2     1 8EX        -0.4611
     33 O6S        -5.4260   -4.0470    1.2970 O.co2     1 8EX        -0.4611
     34 O4S        -7.2930   -2.4640    1.7510 O.co2     1 8EX        -0.4611
     35 H1         -2.9923   -0.6420    4.3837 H         1 GCD         0.0990
     36 H2         -5.7260    0.1808    5.4807 H         1 GCD         0.0694
     37 H3         -3.0687   -0.0114    6.9834 H         1 GCD         0.0743
     38 H4         -4.3049   -2.2679    7.9120 H         1 GCD         0.0480
     39 H5         -4.6033    1.9066    4.4096 H         1 GCD         0.2103
     40 H6         -5.8602    0.1637    7.6365 H         1 GCD         0.2127
     41 H7         -1.5384    0.5352    0.3388 H         1 GCD         0.0932
     42 H8         -4.6479    0.8234    0.7833 H         1 GCD         0.0633
     43 H9         -2.5261   -0.3627    2.5986 H         1 GCD         0.0650
     44 H10        -3.6218   -2.5165    2.0083 H         1 GCD         0.0673
     45 H11        -1.8535   -1.7900    0.4282 H         1 GCD         0.0648
     46 H12        -4.3534   -2.9914   -0.8907 H         1 GCD         0.0610
     47 H13        -3.0311   -3.8889   -0.0706 H         1 GCD         0.0610
     48 H14        -4.3081    5.1392    2.6050 H         1 GCD         0.0467
     49 H15        -2.6587    4.7287    2.0240 H         1 GCD         0.0467
     50 H16        -3.2316    4.1112    3.6105 H         1 GCD         0.0467
     51 H17        -2.3381    2.1949    2.1461 H         1 GCD         0.1857
     52 H18        -2.8081    1.5156   -1.5943 H         1 GCD         0.2126
@<TRIPOS>BOND
     1    1    2 1  
     2    1    9 1  
     3   22    1 1  
     4    2    3 1  
     5    2    7 1  
     6    3    4 1  
     7    3    8 1  
     8    5    4 2  
     9    5    6 1  
    10    9    5 1  
    11    6   10 ar 
    12    6   11 ar 
    13   13   12 1  
    14   12   21 1  
    15   12   24 1  
    16   13   14 1  
    17   20   13 1  
    18   14   15 1  
    19   14   22 1  
    20   15   16 1  
    21   15   23 1  
    22   16   17 1  
    23   24   16 1  
    24   17   25 1  
    25   18   19 1  
    26   18   20 am 
    27   18   26 2  
    28   23   31 1  
    29   25   30 1  
    30   30   27 ar 
    31   30   28 ar 
    32   30   29 ar 
    33   31   32 ar 
    34   31   33 ar 
    35   31   34 ar 
    36    1   35 1  
    37    2   36 1  
    38    3   37 1  
    39    4   38 1  
    40    7   39 1  
    41    8   40 1  
    42   12   41 1  
    43   13   42 1  
    44   14   43 1  
    45   15   44 1  
    46   16   45 1  
    47   17   46 1  
    48   17   47 1  
    49   19   48 1  
    50   19   49 1  
    51   19   50 1  
    52   20   51 1  
    53   21   52 1  
@<TRIPOS>SUBSTRUCTURE
     1 GCD         1

