### 
### Created by X-TOOL on Wed Jan  1 15:39:38 2020
### 

@<TRIPOS>MOLECULE
5xsr_ligand
   36    39     1     0     0
SMALL
GAST_HUCK


@<TRIPOS>ATOM
      1 C02        23.4250  -15.2440  -19.6280 C.2       1 8EC         0.1953
      2 C04        22.6440  -14.8430  -20.9090 C.ar      1 8EC         0.0688
      3 C05        21.2790  -14.9670  -20.9310 C.ar      1 8EC        -0.0214
      4 C06        20.5910  -14.6590  -22.0950 C.ar      1 8EC         0.1216
      5 C08        21.2830  -14.2020  -23.2620 C.ar      1 8EC        -0.0260
      6 C09        22.6860  -14.1100  -23.2340 C.ar      1 8EC         0.0285
      7 C11        24.8170  -13.7760  -23.5640 C.2       1 8EC         0.1326
      8 C12        26.1410  -13.4400  -24.3000 C.2       1 8EC         0.0731
      9 C13        27.2730  -13.4420  -23.7600 C.2       1 8EC        -0.0601
     10 C14        28.3640  -13.1260  -24.6780 C.2       1 8EC        -0.0355
     11 C15        29.8250  -12.9670  -24.6290 C.3       1 8EC         0.0072
     12 C16        30.5360  -12.3250  -26.0050 C.3       1 8EC        -0.0274
     13 C18        28.4470  -12.5600  -27.1680 C.3       1 8EC         0.0134
     14 C19        27.8380  -12.8860  -26.0090 C.2       1 8EC         0.0678
     15 C22        23.3400  -14.4410  -22.0390 C.ar      1 8EC         0.0948
     16 F07        19.2200  -14.8140  -22.0100 F         1 8EC        -0.1922
     17 N01        24.8410  -15.0840  -19.6320 N.am      1 8EC        -0.3019
     18 N10        23.6520  -13.7610  -23.9830 N.2       1 8EC        -0.3192
     19 N17        29.8370  -12.7210  -27.3240 N.4       1 8EC         0.2424
     20 N21        24.7460  -14.2120  -22.2880 N.pl3     1 8EC        -0.2529
     21 O03        22.8380  -15.7200  -18.6890 O.2       1 8EC        -0.3904
     22 S20        25.9380  -13.1120  -25.8940 S.3       1 8EC        -0.0267
     23 H1         20.7441  -15.3016  -20.0496 H         1 8EC         0.0584
     24 H2         20.7327  -13.9304  -24.1556 H         1 8EC         0.0558
     25 H3         27.4280  -13.6593  -22.7042 H         1 8EC         0.0491
     26 H4         30.2667  -13.9588  -24.4525 H         1 8EC         0.0406
     27 H5         30.0641  -12.3036  -23.7848 H         1 8EC         0.0406
     28 H6         31.5783  -12.6737  -26.0491 H         1 8EC         0.0829
     29 H7         30.5194  -11.2283  -25.9219 H         1 8EC         0.0829
     30 H8         28.2330  -11.4958  -27.3459 H         1 8EC         0.1012
     31 H9         27.9714  -13.1660  -27.9532 H         1 8EC         0.1012
     32 H10        25.3745  -15.3325  -18.8236 H         1 8EC         0.1804
     33 H11        25.3011  -14.7232  -20.4432 H         1 8EC         0.1804
     34 H12        30.0441  -13.6832  -27.5414 H         1 8EC         0.2031
     35 H13        30.1645  -12.1296  -28.0717 H         1 8EC         0.2031
     36 H14        25.5273  -14.3518  -21.6315 H         1 8EC         0.2281
@<TRIPOS>BOND
     1    2    1 1  
     2    1   17 am 
     3    1   21 2  
     4    2    3 ar 
     5   15    2 ar 
     6    4    3 ar 
     7    5    4 ar 
     8    4   16 1  
     9    6    5 ar 
    10    6   15 ar 
    11   18    6 1  
    12    7    8 1  
    13    7   18 2  
    14    7   20 1  
    15    8    9 2  
    16    8   22 1  
    17    9   10 1  
    18   10   11 1  
    19   10   14 2  
    20   11   12 1  
    21   12   19 1  
    22   14   13 1  
    23   13   19 1  
    24   14   22 1  
    25   15   20 1  
    26    3   23 1  
    27    5   24 1  
    28    9   25 1  
    29   11   26 1  
    30   11   27 1  
    31   12   28 1  
    32   12   29 1  
    33   13   30 1  
    34   13   31 1  
    35   17   32 1  
    36   17   33 1  
    37   19   34 1  
    38   19   35 1  
    39   20   36 1  
@<TRIPOS>SUBSTRUCTURE
     1 8EC         1

