### 
### Created by X-TOOL on Wed Jan  1 15:39:37 2020
### 

@<TRIPOS>MOLECULE
5xst_ligand
   36    39     1     0     0
SMALL
GAST_HUCK


@<TRIPOS>ATOM
      1 C02        23.1790  -15.1800  -19.7050 C.2       1 8E6         0.1940
      2 C04        22.4800  -14.7750  -21.0090 C.ar      1 8E6         0.0458
      3 C05        21.1240  -14.8870  -21.1050 C.ar      1 8E6        -0.0235
      4 C06        20.4660  -14.5410  -22.3290 C.ar      1 8E6         0.1243
      5 C08        21.2010  -14.0760  -23.4400 C.ar      1 8E6        -0.0034
      6 C09        22.6120  -13.9650  -23.3480 C.ar      1 8E6         0.0816
      7 C11        24.7790  -13.6130  -23.5640 C.2       1 8E6         0.1326
      8 C12        26.0620  -13.3780  -24.1150 C.2       1 8E6         0.0733
      9 C13        26.3840  -13.1200  -25.4490 C.2       1 8E6        -0.0553
     10 C14        27.7670  -13.0410  -25.7260 C.2       1 8E6        -0.0011
     11 C15        28.5780  -13.2620  -24.6620 C.2       1 8E6         0.0337
     12 C17        30.0750  -13.2010  -24.7350 C.3       1 8E6         0.0347
     13 C18        30.5630  -12.5150  -26.0390 C.3       1 8E6        -0.0212
     14 C20        28.3590  -12.7390  -27.0940 C.3       1 8E6        -0.0131
     15 C22        23.2490  -14.3110  -22.1340 C.ar      1 8E6         0.0403
     16 F07        19.0780  -14.6770  -22.3930 F         1 8E6        -0.1902
     17 N01        24.6330  -15.0250  -19.5660 N.am      1 8E6        -0.3017
     18 N10        23.5770  -13.5610  -24.2060 N.pl3     1 8E6        -0.2546
     19 N19        29.8070  -12.9050  -27.1970 N.4       1 8E6         0.2358
     20 N21        24.5790  -14.0970  -22.3260 N.2       1 8E6        -0.3172
     21 O03        22.5480  -15.6730  -18.7980 O.2       1 8E6        -0.3895
     22 S16        27.5540  -13.5750  -23.3060 S.3       1 8E6        -0.0315
     23 H1         20.5461  -15.2369  -20.2573 H         1 8E6         0.0571
     24 H2         20.6909  -13.8055  -24.3574 H         1 8E6         0.0561
     25 H3         25.6251  -12.9893  -26.2190 H         1 8E6         0.0494
     26 H4         30.4748  -14.2252  -24.7008 H         1 8E6         0.0511
     27 H5         30.4503  -12.6318  -23.8718 H         1 8E6         0.0511
     28 H6         31.6172  -12.7831  -26.2024 H         1 8E6         0.0842
     29 H7         30.4767  -11.4254  -25.9150 H         1 8E6         0.0842
     30 H8         28.1176  -11.6959  -27.3463 H         1 8E6         0.0903
     31 H9         27.8868  -13.4118  -27.8250 H         1 8E6         0.0903
     32 H10        25.0849  -15.2902  -18.7143 H         1 8E6         0.1804
     33 H11        25.1710  -14.6543  -20.3231 H         1 8E6         0.1804
     34 H12        23.4286  -13.2639  -25.1810 H         1 8E6         0.2270
     35 H13        29.9950  -13.8790  -27.3760 H         1 8E6         0.2023
     36 H14        30.1273  -12.3521  -27.9766 H         1 8E6         0.2023
@<TRIPOS>BOND
     1    2    1 1  
     2    1   17 am 
     3    1   21 2  
     4    2    3 ar 
     5   15    2 ar 
     6    4    3 ar 
     7    5    4 ar 
     8    4   16 1  
     9    6    5 ar 
    10    6   15 ar 
    11   18    6 1  
    12    7    8 1  
    13    7   18 1  
    14    7   20 2  
    15    8    9 2  
    16    8   22 1  
    17    9   10 1  
    18   10   11 2  
    19   10   14 1  
    20   11   12 1  
    21   11   22 1  
    22   12   13 1  
    23   13   19 1  
    24   14   19 1  
    25   15   20 1  
    26    3   23 1  
    27    5   24 1  
    28    9   25 1  
    29   12   26 1  
    30   12   27 1  
    31   13   28 1  
    32   13   29 1  
    33   14   30 1  
    34   14   31 1  
    35   17   32 1  
    36   17   33 1  
    37   18   34 1  
    38   19   35 1  
    39   19   36 1  
@<TRIPOS>SUBSTRUCTURE
     1 8E6         1

