### 
### Created by X-TOOL on Wed Jan  1 15:39:38 2020
### 

@<TRIPOS>MOLECULE
5xsu_ligand
   36    39     1     0     0
SMALL
GAST_HUCK


@<TRIPOS>ATOM
      1 C02       -31.3330   18.8470  -25.4550 C.2       1 8E3         0.1953
      2 C04       -32.3860   19.2050  -24.3890 C.ar      1 8E3         0.0685
      3 C05       -32.3940   18.5770  -23.1440 C.ar      1 8E3        -0.0217
      4 C06       -33.3550   18.9130  -22.1770 C.ar      1 8E3         0.1213
      5 C08       -34.3200   19.8720  -22.4770 C.ar      1 8E3        -0.0265
      6 C09       -34.3170   20.5110  -23.7440 C.ar      1 8E3         0.0274
      7 C11       -34.6680   21.7270  -25.5080 C.2       1 8E3         0.1542
      8 C12       -35.2560   22.6590  -26.3660 C.2       1 8E3         0.1580
      9 C13       -34.9200   22.8740  -27.6810 C.2       1 8E3        -0.0475
     10 C14       -35.7760   23.9080  -28.1680 C.2       1 8E3        -0.0227
     11 C15       -36.5860   24.2700  -27.1460 C.2       1 8E3         0.1526
     12 C17       -37.6380   25.3590  -27.3250 C.3       1 8E3         0.0331
     13 C19       -36.8710   25.7740  -29.6030 C.3       1 8E3        -0.0283
     14 C20       -35.8650   24.5720  -29.5620 C.3       1 8E3         0.0048
     15 C22       -33.3650   20.1890  -24.6910 C.ar      1 8E3         0.0944
     16 F07       -33.3800   18.3040  -20.9490 F         1 8E3        -0.1923
     17 N01       -31.2880   19.5690  -26.7210 N.am      1 8E3        -0.3019
     18 N10       -35.1160   21.4750  -24.2810 N.2       1 8E3        -0.3191
     19 N18       -38.0350   25.6020  -28.7070 N.4       1 8E3         0.2429
     20 N21       -33.5970   20.9680  -25.7870 N.pl3     1 8E3        -0.2515
     21 O03       -30.5520   17.9830  -25.2600 O.2       1 8E3        -0.3904
     22 O16       -36.2560   23.4930  -26.0420 O.3       1 8E3        -0.2486
     23 H1        -31.6500   17.8210  -22.9202 H         1 8E3         0.0582
     24 H2        -35.0737   20.1302  -21.7420 H         1 8E3         0.0556
     25 H3        -34.1470   22.3541  -28.2451 H         1 8E3         0.0410
     26 H4        -37.2340   26.2963  -26.9148 H         1 8E3         0.1020
     27 H5        -38.5339   25.0665  -26.7577 H         1 8E3         0.1020
     28 H6        -37.2389   25.8848  -30.6337 H         1 8E3         0.0828
     29 H7        -36.3346   26.6869  -29.3050 H         1 8E3         0.0828
     30 H8        -36.1922   23.8157  -30.2906 H         1 8E3         0.0393
     31 H9        -34.8665   24.9407  -29.8394 H         1 8E3         0.0393
     32 H10       -30.6016   19.3310  -27.4082 H         1 8E3         0.1804
     33 H11       -31.9435   20.3022  -26.9021 H         1 8E3         0.1804
     34 H12       -38.5965   26.4384  -28.7408 H         1 8E3         0.2031
     35 H13       -38.5800   24.8181  -29.0304 H         1 8E3         0.2031
     36 H14       -33.0535   20.9726  -26.6620 H         1 8E3         0.2281
@<TRIPOS>BOND
     1    2    1 1  
     2    1   17 am 
     3    1   21 2  
     4    2    3 ar 
     5   15    2 ar 
     6    4    3 ar 
     7    5    4 ar 
     8    4   16 1  
     9    6    5 ar 
    10    6   15 ar 
    11   18    6 1  
    12    7    8 1  
    13    7   18 2  
    14    7   20 1  
    15    8    9 2  
    16    8   22 1  
    17    9   10 1  
    18   10   11 2  
    19   10   14 1  
    20   11   12 1  
    21   11   22 1  
    22   12   19 1  
    23   14   13 1  
    24   13   19 1  
    25   15   20 1  
    26    3   23 1  
    27    5   24 1  
    28    9   25 1  
    29   12   26 1  
    30   12   27 1  
    31   13   28 1  
    32   13   29 1  
    33   14   30 1  
    34   14   31 1  
    35   17   32 1  
    36   17   33 1  
    37   19   34 1  
    38   19   35 1  
    39   20   36 1  
@<TRIPOS>SUBSTRUCTURE
     1 8E3         1

