### 
### Created by X-TOOL on Wed Jan  1 15:39:35 2020
### 

@<TRIPOS>MOLECULE
5xva_ligand
   48    51     1     0     0
SMALL
GAST_HUCK


@<TRIPOS>ATOM
      1 C4         -6.9720  -12.2070   18.9590 C.ar      1 8FU         0.1693
      2 C5         -7.0290  -13.6030   18.5490 C.ar      1 8FU         0.0614
      3 C6         -6.2570  -14.0590   17.4110 C.ar      1 8FU         0.0509
      4 N1         -5.4450  -13.1660   16.7230 N.ar      1 8FU        -0.2731
      5 N3         -6.2110  -11.3730   18.2990 N.ar      1 8FU        -0.2331
      6 C2         -5.4150  -11.8650   17.1460 C.ar      1 8FU         0.1742
      7 CAA        -7.8330  -14.4560   19.2290 C.ar      1 8FU        -0.0245
      8 CAB        -7.8720  -15.8830   18.7700 C.ar      1 8FU         0.0487
      9 CAC        -7.1650  -16.3110   17.7490 C.ar      1 8FU        -0.0403
     10 CAD        -6.2880  -15.3640   16.9960 C.ar      1 8FU        -0.0376
     11 CAM        -7.6120  -10.4540   20.6260 C.2       1 8FU         0.1781
     12 CAN        -6.9190   -9.3070   20.1640 C.2       1 8FU        -0.0253
     13 CAO        -7.1470   -8.3040   21.0860 C.2       1 8FU        -0.0137
     14 CAR        -6.6270   -6.8580   21.0700 C.3       1 8FU        -0.0324
     15 CAS        -4.5330  -10.8530   16.4570 C.2       1 8FU         0.2453
     16 CAU        -4.2030   -8.8470   15.0910 C.3       1 8FU         0.0766
     17 CAV        -4.7850   -7.4310   15.1570 C.3       1 8FU        -0.0046
     18 CAX        -6.9700   -8.2280   15.5410 C.3       1 8FU        -0.0125
     19 CAY        -6.5630   -9.6860   15.5520 C.3       1 8FU         0.0740
     20 CAZ        -3.9400   -6.5480   14.3030 C.3       1 8FU        -0.0197
     21 NAL        -7.7380  -11.7690   20.0650 N.pl3     1 8FU        -0.2185
     22 NAP        -7.9540   -8.8200   22.0870 N.2       1 8FU        -0.2508
     23 NAQ        -8.2340  -10.1400   21.7960 N.pl3     1 8FU        -0.2093
     24 NAT        -5.1250   -9.7900   15.6990 N.am      1 8FU        -0.2570
     25 NAW        -6.1250   -7.4840   14.6540 N.4       1 8FU         0.2318
     26 OBA        -3.3280  -10.9350   16.5970 O.2       1 8FU        -0.3704
     27 CL         -8.8770  -16.9970   19.6250 Cl        1 8FU        -0.0684
     28 H1         -8.4252  -14.1197   20.0724 H         1 8FU         0.0692
     29 H2         -7.2178  -17.3523   17.4524 H         1 8FU         0.0682
     30 H3         -5.6970  -15.6981   16.1509 H         1 8FU         0.0637
     31 H4         -6.3217   -9.2311   19.2566 H         1 8FU         0.0190
     32 H5         -6.9988   -6.3248   21.9574 H         1 8FU         0.0373
     33 H6         -6.9829   -6.3504   20.1614 H         1 8FU         0.0373
     34 H7         -5.5271   -6.8637   21.0799 H         1 8FU         0.0373
     35 H8         -3.2454   -8.8732   15.6317 H         1 8FU         0.0579
     36 H9         -4.0381   -9.1248   14.0395 H         1 8FU         0.0579
     37 H10        -4.7865   -7.0622   16.1933 H         1 8FU         0.0868
     38 H11        -6.8797   -7.8180   16.5577 H         1 8FU         0.0834
     39 H12        -8.0136   -8.1448   15.2034 H         1 8FU         0.0834
     40 H13        -6.8691  -10.1584   14.6069 H         1 8FU         0.0576
     41 H14        -7.0545  -10.1966   16.3932 H         1 8FU         0.0576
     42 H15        -4.3360   -5.5221   14.3318 H         1 8FU         0.0285
     43 H16        -3.9540   -6.9174   13.2670 H         1 8FU         0.0285
     44 H17        -2.9067   -6.5529   14.6802 H         1 8FU         0.0285
     45 H18        -8.4149  -12.4217   20.4854 H         1 8FU         0.2287
     46 H19        -8.8119  -10.7758   22.3641 H         1 8FU         0.2470
     47 H20        -6.1216   -7.9289   13.7495 H         1 8FU         0.2017
     48 H21        -6.4827   -6.5457   14.5657 H         1 8FU         0.2017
@<TRIPOS>BOND
     1    1    2 ar 
     2    5    1 ar 
     3    1   21 1  
     4    3    2 ar 
     5    2    7 ar 
     6    4    3 ar 
     7    3   10 ar 
     8    6    4 ar 
     9    6    5 ar 
    10   15    6 1  
    11    7    8 ar 
    12    9    8 ar 
    13    8   27 1  
    14   10    9 ar 
    15   11   12 2  
    16   21   11 1  
    17   11   23 1  
    18   12   13 1  
    19   13   14 1  
    20   13   22 2  
    21   24   15 am 
    22   15   26 2  
    23   17   16 1  
    24   16   24 1  
    25   17   20 1  
    26   25   17 1  
    27   18   19 1  
    28   18   25 1  
    29   19   24 1  
    30   22   23 1  
    31    7   28 1  
    32    9   29 1  
    33   10   30 1  
    34   12   31 1  
    35   14   32 1  
    36   14   33 1  
    37   14   34 1  
    38   16   35 1  
    39   16   36 1  
    40   17   37 1  
    41   18   38 1  
    42   18   39 1  
    43   19   40 1  
    44   19   41 1  
    45   20   42 1  
    46   20   43 1  
    47   20   44 1  
    48   21   45 1  
    49   23   46 1  
    50   25   47 1  
    51   25   48 1  
@<TRIPOS>SUBSTRUCTURE
     1 8FU         1

