### 
### Created by X-TOOL on Wed Jan  1 15:39:37 2020
### 

@<TRIPOS>MOLECULE
5xvf_ligand
   46    49     1     0     0
SMALL
GAST_HUCK


@<TRIPOS>ATOM
      1 C4         77.9940   25.5310  193.5300 C.ar      1 8FR         0.0255
      2 C5         77.1090   25.7880  194.5590 C.ar      1 8FR         0.0473
      3 C6         76.9190   27.1110  194.9470 C.ar      1 8FR         0.1488
      4 N1         77.5660   28.1320  194.3230 N.ar      1 8FR        -0.2371
      5 N3         78.6310   26.5810  192.9420 N.ar      1 8FR        -0.2934
      6 C2         78.4360   27.8720  193.3510 C.ar      1 8FR         0.1631
      7 CAA        76.4260   24.7490  195.2080 C.ar      1 8FR        -0.0316
      8 CAB        76.6690   23.4140  194.7850 C.ar      1 8FR         0.0426
      9 CAC        77.5590   23.1310  193.7560 C.ar      1 8FR        -0.0468
     10 CAD        78.2290   24.2020  193.1200 C.ar      1 8FR        -0.0478
     11 CAM        75.8570   28.5650  196.7260 C.2       1 8FR         0.1080
     12 CAN        76.6310   29.7230  196.5830 C.2       1 8FR         0.0539
     13 CAP        75.0680   30.1200  198.1540 C.2       1 8FR         0.0929
     14 CAR        76.6210   32.0100  197.6470 C.3       1 8FR         0.0433
     15 CAT        80.3400   29.5720  193.0330 C.3       1 8FR         0.0389
     16 CAU        81.2310   29.9180  191.8240 C.3       1 8FR         0.0111
     17 CAV        80.4960   30.3170  190.5450 C.3       1 8FR        -0.0205
     18 CAW        79.0530   30.6140  190.7720 C.3       1 8FR         0.0111
     19 CAX        78.4080   29.4330  191.4860 C.3       1 8FR         0.0389
     20 NAL        76.0030   27.3070  196.0060 N.pl3     1 8FR        -0.2564
     21 NAO        76.1290   30.6900  197.4660 N.pl3     1 8FR        -0.2654
     22 NAQ        74.8990   28.8000  197.7050 N.2       1 8FR        -0.2992
     23 NAS        79.1040   28.9660  192.6470 N.pl3     1 8FR        -0.2795
     24 NAY        81.0580   31.5140  189.9600 N.4       1 8FR         0.2208
     25 CL         75.8130   22.1280  195.5680 Cl        1 8FR        -0.0738
     26 H1         75.7301   24.9589  196.0122 H         1 8FR         0.0680
     27 H2         77.7366   22.1075  193.4462 H         1 8FR         0.0665
     28 H3         78.9258   24.0007  192.3144 H         1 8FR         0.0586
     29 H4         77.4741   29.8503  195.9056 H         1 8FR         0.0696
     30 H5         74.4662   30.6138  198.9155 H         1 8FR         0.1200
     31 H6         77.4667   32.1827  196.9652 H         1 8FR         0.0581
     32 H7         76.9565   32.1369  198.6869 H         1 8FR         0.0581
     33 H8         75.8209   32.7327  197.4291 H         1 8FR         0.0581
     34 H9         80.1215   30.4972  193.5864 H         1 8FR         0.0530
     35 H10        80.8860   28.8747  193.6855 H         1 8FR         0.0530
     36 H11        81.8480   29.0361  191.5968 H         1 8FR         0.0340
     37 H12        81.8818   30.7561  192.1139 H         1 8FR         0.0340
     38 H13        80.5839   29.4858  189.8299 H         1 8FR         0.0851
     39 H14        78.5539   30.7774  189.8055 H         1 8FR         0.0340
     40 H15        78.9558   31.5172  191.3922 H         1 8FR         0.0340
     41 H16        78.3410   28.5992  190.7716 H         1 8FR         0.0530
     42 H17        77.3959   29.7338  191.7945 H         1 8FR         0.0530
     43 H18        75.4052   26.5157  196.2841 H         1 8FR         0.2162
     44 H19        82.0401   31.3721  189.7827 H         1 8FR         0.1997
     45 H20        80.9397   32.2866  190.5965 H         1 8FR         0.1997
     46 H21        80.5861   31.7177  189.0929 H         1 8FR         0.1997
@<TRIPOS>BOND
     1    1    2 ar 
     2    5    1 ar 
     3    1   10 ar 
     4    3    2 ar 
     5    2    7 ar 
     6    4    3 ar 
     7    3   20 1  
     8    6    4 ar 
     9    6    5 ar 
    10   23    6 1  
    11    7    8 ar 
    12    9    8 ar 
    13    8   25 1  
    14   10    9 ar 
    15   11   12 2  
    16   20   11 1  
    17   11   22 1  
    18   12   21 1  
    19   13   21 1  
    20   22   13 2  
    21   21   14 1  
    22   15   16 1  
    23   15   23 1  
    24   16   17 1  
    25   17   18 1  
    26   17   24 1  
    27   18   19 1  
    28   19   23 1  
    29    7   26 1  
    30    9   27 1  
    31   10   28 1  
    32   12   29 1  
    33   13   30 1  
    34   14   31 1  
    35   14   32 1  
    36   14   33 1  
    37   15   34 1  
    38   15   35 1  
    39   16   36 1  
    40   16   37 1  
    41   17   38 1  
    42   18   39 1  
    43   18   40 1  
    44   19   41 1  
    45   19   42 1  
    46   20   43 1  
    47   24   44 1  
    48   24   45 1  
    49   24   46 1  
@<TRIPOS>SUBSTRUCTURE
     1 8FR         1

