### 
### Created by X-TOOL on Wed Jan  1 15:39:36 2020
### 

@<TRIPOS>MOLECULE
5xvg_ligand
   54    57     1     0     0
SMALL
GAST_HUCK


@<TRIPOS>ATOM
      1 C4         -7.0130  -12.2510   18.9350 C.ar      1 8FX         0.1693
      2 C5         -7.0720  -13.6400   18.4720 C.ar      1 8FX         0.0614
      3 C6         -6.2710  -14.0760   17.3320 C.ar      1 8FX         0.0509
      4 N1         -5.4440  -13.1590   16.6890 N.ar      1 8FX        -0.2731
      5 N3         -6.2290  -11.3950   18.3100 N.ar      1 8FX        -0.2331
      6 C2         -5.4140  -11.8640   17.1370 C.ar      1 8FX         0.1742
      7 CAA        -7.8840  -14.5390   19.0910 C.ar      1 8FX        -0.0245
      8 CAB        -7.9180  -15.9580   18.5990 C.ar      1 8FX         0.0487
      9 CAC        -7.1950  -16.3610   17.5590 C.ar      1 8FX        -0.0403
     10 CAD        -6.3060  -15.3640   16.8720 C.ar      1 8FX        -0.0376
     11 CAL        -7.6670  -10.4750   20.6300 C.2       1 8FX         0.1781
     12 CAM        -6.9510   -9.3240   20.1800 C.2       1 8FX        -0.0248
     13 CAN        -7.1710   -8.3010   21.0890 C.2       1 8FX        -0.0081
     14 CAQ        -6.5690   -6.7370   21.0710 C.3       1 8FX        -0.0142
     15 CAR        -4.5030  -10.8850   16.4490 C.2       1 8FX         0.2453
     16 CAT        -4.1360   -8.9020   15.0590 C.3       1 8FX         0.0766
     17 CAU        -4.5990   -7.4680   15.2330 C.3       1 8FX        -0.0046
     18 CAW        -6.7980   -8.1610   15.7840 C.3       1 8FX        -0.0125
     19 CAX        -6.4800   -9.6440   15.5820 C.3       1 8FX         0.0740
     20 CAY        -3.7630   -6.5890   14.3220 C.3       1 8FX        -0.0197
     21 CBB        -6.4790   -6.2110   19.8410 C.3       1 8FX        -0.0539
     22 CBC        -5.2540   -6.7160   21.3300 C.3       1 8FX        -0.0539
     23 NAK        -7.7900  -11.7960   20.0450 N.pl3     1 8FX        -0.2185
     24 NAO        -8.0170   -8.7970   22.0800 N.2       1 8FX        -0.2503
     25 NAP        -8.3080  -10.1320   21.7920 N.pl3     1 8FX        -0.2093
     26 NAS        -5.0520   -9.8100   15.6910 N.am      1 8FX        -0.2570
     27 NAV        -5.9870   -7.3440   14.9070 N.4       1 8FX         0.2318
     28 OAZ        -3.3040  -11.0350   16.5530 O.2       1 8FX        -0.3704
     29 CL         -8.9530  -17.0720   19.4190 Cl        1 8FX        -0.0684
     30 H1         -8.4996  -14.2348   19.9298 H         1 8FX         0.0692
     31 H2         -7.2458  -17.3874   17.2139 H         1 8FX         0.0682
     32 H3         -5.7005  -15.6610   16.0234 H         1 8FX         0.0637
     33 H4         -6.3398   -9.2612   19.2809 H         1 8FX         0.0190
     34 H5         -7.1539   -6.1079   21.7580 H         1 8FX         0.0438
     35 H6         -3.1409   -9.0181   15.5133 H         1 8FX         0.0579
     36 H7         -4.0786   -9.1355   13.9856 H         1 8FX         0.0579
     37 H8         -4.4487   -7.1599   16.2782 H         1 8FX         0.0868
     38 H9         -6.5913   -7.8856   16.8287 H         1 8FX         0.0834
     39 H10        -7.8609   -7.9853   15.5618 H         1 8FX         0.0834
     40 H11        -6.8188   -9.9666   14.5865 H         1 8FX         0.0576
     41 H12        -6.9858  -10.2431   16.3535 H         1 8FX         0.0576
     42 H13        -4.0808   -5.5415   14.4305 H         1 8FX         0.0285
     43 H14        -3.9003   -6.9075   13.2781 H         1 8FX         0.0285
     44 H15        -2.7018   -6.6806   14.5968 H         1 8FX         0.0285
     45 H16        -6.0783   -5.1888   19.9078 H         1 8FX         0.0252
     46 H17        -7.4772   -6.1841   19.3798 H         1 8FX         0.0252
     47 H18        -5.8076   -6.8285   19.2263 H         1 8FX         0.0252
     48 H19        -5.0720   -7.1211   22.3364 H         1 8FX         0.0252
     49 H20        -4.8869   -5.6803   21.2798 H         1 8FX         0.0252
     50 H21        -4.7240   -7.3294   20.5865 H         1 8FX         0.0252
     51 H22        -8.4779  -12.4448   20.4534 H         1 8FX         0.2287
     52 H23        -8.9036  -10.7538   22.3572 H         1 8FX         0.2470
     53 H24        -6.1301   -7.6402   13.9542 H         1 8FX         0.2017
     54 H25        -6.2641   -6.3798   15.0044 H         1 8FX         0.2017
@<TRIPOS>BOND
     1    1    2 ar 
     2    5    1 ar 
     3    1   23 1  
     4    3    2 ar 
     5    2    7 ar 
     6    4    3 ar 
     7    3   10 ar 
     8    6    4 ar 
     9    6    5 ar 
    10   15    6 1  
    11    7    8 ar 
    12    9    8 ar 
    13    8   29 1  
    14   10    9 ar 
    15   11   12 2  
    16   23   11 1  
    17   11   25 1  
    18   12   13 1  
    19   13   14 1  
    20   13   24 2  
    21   14   21 1  
    22   14   22 1  
    23   26   15 am 
    24   15   28 2  
    25   17   16 1  
    26   16   26 1  
    27   17   20 1  
    28   27   17 1  
    29   18   19 1  
    30   18   27 1  
    31   19   26 1  
    32   24   25 1  
    33    7   30 1  
    34    9   31 1  
    35   10   32 1  
    36   12   33 1  
    37   14   34 1  
    38   16   35 1  
    39   16   36 1  
    40   17   37 1  
    41   18   38 1  
    42   18   39 1  
    43   19   40 1  
    44   19   41 1  
    45   20   42 1  
    46   20   43 1  
    47   20   44 1  
    48   21   45 1  
    49   21   46 1  
    50   21   47 1  
    51   22   48 1  
    52   22   49 1  
    53   22   50 1  
    54   23   51 1  
    55   25   52 1  
    56   27   53 1  
    57   27   54 1  
@<TRIPOS>SUBSTRUCTURE
     1 8FX         1

