### 
### Created by X-TOOL on Mon Sep 10 21:13:32 2018
### 

@<TRIPOS>MOLECULE
5xvk_ligand
   19    19     1     0     0
SMALL
GAST_HUCK


@<TRIPOS>ATOM
      1 C2         14.9590   19.6060   16.1810 C.2       1 8GC         0.3690
      2 C4         14.9460   18.5900   15.1130 C.ar      1 8GC         0.1586
      3 C5         13.8500   18.5140   14.2810 C.ar      1 8GC         0.0203
      4 C6         13.8250   17.5750   13.2730 C.ar      1 8GC         0.0099
      5 C7         14.9030   16.7300   13.1240 C.ar      1 8GC         0.0400
      6 C9         17.0580   15.9300   13.7600 C.3       1 8GC         0.0070
      7 C10        16.0070   17.7300   14.9330 C.ar      1 8GC         0.0640
      8 N8         15.9430   16.8360   13.9480 N.ar      1 8GC        -0.3265
      9 N3         13.6930   20.0810   16.4280 N.am      1 8GC        -0.2274
     10 O1         15.9790   19.9940   16.7180 O.2       1 8GC        -0.2307
     11 H1         13.0128   19.1887   14.4187 H         1 8GC         0.0911
     12 H2         12.9717   17.5023   12.6085 H         1 8GC         0.0924
     13 H3         14.9042   15.9822   12.3392 H         1 8GC         0.1186
     14 H4         17.8325   16.1408   14.5121 H         1 8GC         0.0408
     15 H5         17.4776   16.0690   12.7528 H         1 8GC         0.0408
     16 H6         16.7104   14.8924   13.8725 H         1 8GC         0.0408
     17 H7         16.8757   17.7799   15.5795 H         1 8GC         0.1161
     18 H8         13.5487   20.7781   17.1303 H         1 8GC         0.2875
     19 H9         12.9163   19.7295   15.9054 H         1 8GC         0.2875
@<TRIPOS>BOND
     1    1    2 1  
     2    1    9 am 
     3    1   10 2  
     4    2    3 ar 
     5    2    7 ar 
     6    3    4 ar 
     7    4    5 ar 
     8    5    8 ar 
     9    8    6 1  
    10    7    8 ar 
    11    3   11 1  
    12    4   12 1  
    13    5   13 1  
    14    6   14 1  
    15    6   15 1  
    16    6   16 1  
    17    7   17 1  
    18    9   18 1  
    19    9   19 1  
@<TRIPOS>SUBSTRUCTURE
     1 8GC         1

