### 
### Created by X-TOOL on Mon Sep 10 21:13:33 2018
### 

@<TRIPOS>MOLECULE
5xvq_ligand
   19    19     1     0     0
SMALL
GAST_HUCK


@<TRIPOS>ATOM
      1 C2         23.6300   -0.7910   13.1500 C.2       1 8GC         0.3690
      2 C4         23.2070    0.2750   12.2290 C.ar      1 8GC         0.1586
      3 C5         23.9640    0.5540   11.1140 C.ar      1 8GC         0.0203
      4 C6         23.5550    1.5600   10.2620 C.ar      1 8GC         0.0099
      5 C7         22.4060    2.2590   10.5400 C.ar      1 8GC         0.0400
      6 C9         20.4970    2.6810   11.9200 C.3       1 8GC         0.0070
      7 C10        22.0600    0.9900   12.4850 C.ar      1 8GC         0.0640
      8 N8         21.7070    1.9470   11.6290 N.ar      1 8GC        -0.3265
      9 N3         22.6210   -1.2810   13.9330 N.am      1 8GC        -0.2274
     10 O1         24.7920   -1.1710   13.1610 O.2       1 8GC        -0.2307
     11 H1         24.8679   -0.0079   10.9080 H         1 8GC         0.0911
     12 H2         24.1372    1.7969    9.3788 H         1 8GC         0.0924
     13 H3         22.0731    3.0535    9.8820 H         1 8GC         0.1186
     14 H4         20.0493    2.2966   12.8484 H         1 8GC         0.0408
     15 H5         19.7847    2.5574   11.0909 H         1 8GC         0.0408
     16 H6         20.7357    3.7478   12.0424 H         1 8GC         0.0408
     17 H7         21.4584    0.7796   13.3619 H         1 8GC         0.1161
     18 H8         22.8084   -2.0091   14.5924 H         1 8GC         0.2875
     19 H9         21.6960   -0.9111   13.8460 H         1 8GC         0.2875
@<TRIPOS>BOND
     1    1    2 1  
     2    1    9 am 
     3    1   10 2  
     4    2    3 ar 
     5    2    7 ar 
     6    3    4 ar 
     7    4    5 ar 
     8    5    8 ar 
     9    8    6 1  
    10    7    8 ar 
    11    3   11 1  
    12    4   12 1  
    13    5   13 1  
    14    6   14 1  
    15    6   15 1  
    16    6   16 1  
    17    7   17 1  
    18    9   18 1  
    19    9   19 1  
@<TRIPOS>SUBSTRUCTURE
     1 8GC         1

