### 
### Created by X-TOOL on Wed Jan  1 15:39:38 2020
### 

@<TRIPOS>MOLECULE
5xyx_ligand
   30    32     1     0     0
SMALL
GAST_HUCK


@<TRIPOS>ATOM
      1 C24        -2.5160  -35.2370  -30.5630 C.2       1 FTZ        -0.0493
      2 C25        -3.7870  -34.8320  -30.4890 C.2       1 FTZ        -0.0584
      3 C26        -3.8310  -33.5390  -30.1600 C.2       1 FTZ         0.0835
      4 O27        -2.5370  -33.1230  -30.0220 O.3       1 FTZ        -0.2563
      5 C7         -1.7280  -34.2070  -30.2740 C.2       1 FTZ         0.1621
      6 C5         -0.3220  -34.1580  -30.2420 C.2       1 FTZ         0.1707
      7 N6          0.4430  -33.0640  -30.3570 N.pl3     1 FTZ        -0.2121
      8 N4          0.5090  -35.1960  -30.1120 N.2       1 FTZ        -0.2828
      9 N3          1.6750  -34.7920  -30.1320 N.2       1 FTZ        -0.2687
     10 C2          1.7010  -33.4700  -30.2800 C.2       1 FTZ         0.2246
     11 N1          2.8210  -32.7160  -30.3370 N.pl3     1 FTZ        -0.2672
     12 C9          2.8740  -31.2610  -30.6150 C.3       1 FTZ         0.0667
     13 C11         4.3310  -30.6850  -30.5570 C.ar      1 FTZ         0.0269
     14 C15         5.3220  -30.9380  -31.5390 C.ar      1 FTZ         0.0416
     15 CL1         4.9920  -31.9300  -32.9100 Cl        1 FTZ        -0.0783
     16 C23         6.6140  -30.4070  -31.4560 C.ar      1 FTZ        -0.0585
     17 C16         6.9670  -29.6060  -30.3800 C.ar      1 FTZ        -0.0700
     18 C17         6.0160  -29.3440  -29.3990 C.ar      1 FTZ        -0.0346
     19 C14         4.7250  -29.8720  -29.4850 C.ar      1 FTZ         0.1356
     20 F18         3.8450  -29.5930  -28.5100 F         1 FTZ        -0.1890
     21 H1         -2.1821  -36.2419  -30.8173 H         1 FTZ         0.0403
     22 H2         -4.6566  -35.4621  -30.6699 H         1 FTZ         0.0363
     23 H3         -4.7258  -32.9327  -30.0272 H         1 FTZ         0.1019
     24 H4          0.1160  -32.0952  -30.4812 H         1 FTZ         0.2395
     25 H5          3.7179  -33.1951  -30.1726 H         1 FTZ         0.1890
     26 H6          2.2591  -30.7377  -29.8680 H         1 FTZ         0.0679
     27 H7          2.4640  -31.0798  -31.6195 H         1 FTZ         0.0679
     28 H8          7.3391  -30.6217  -32.2327 H         1 FTZ         0.0571
     29 H9          7.9659  -29.1916  -30.3048 H         1 FTZ         0.0549
     30 H10         6.2810  -28.7196  -28.5534 H         1 FTZ         0.0587
@<TRIPOS>BOND
     1    1    2 1  
     2    1    5 2  
     3    2    3 2  
     4    3    4 1  
     5    4    5 1  
     6    5    6 1  
     7    6    7 1  
     8    6    8 2  
     9    7   10 1  
    10    8    9 1  
    11    9   10 2  
    12   10   11 1  
    13   11   12 1  
    14   12   13 1  
    15   13   14 ar 
    16   13   19 ar 
    17   14   15 1  
    18   14   16 ar 
    19   16   17 ar 
    20   17   18 ar 
    21   18   19 ar 
    22   19   20 1  
    23    1   21 1  
    24    2   22 1  
    25    3   23 1  
    26    7   24 1  
    27   11   25 1  
    28   12   26 1  
    29   12   27 1  
    30   16   28 1  
    31   17   29 1  
    32   18   30 1  
@<TRIPOS>SUBSTRUCTURE
     1 FTZ         1

