### 
### Created by X-TOOL on Wed Jan  1 15:39:38 2020
### 

@<TRIPOS>MOLECULE
5xyy_ligand
   34    36     1     0     0
SMALL
GAST_HUCK


@<TRIPOS>ATOM
      1 CL          5.0990  -32.4240  -32.6800 Cl        1 P0F        -0.0783
      2 CAR         5.3830  -31.5690  -31.3820 C.ar      1 P0F         0.0416
      3 CAH         6.6660  -31.0480  -31.3060 C.ar      1 P0F        -0.0585
      4 CAE         6.9730  -30.3160  -30.1970 C.ar      1 P0F        -0.0700
      5 CAG         6.0730  -30.0790  -29.1640 C.ar      1 P0F        -0.0346
      6 CAQ         4.7460  -30.6060  -29.2660 C.ar      1 P0F         0.1356
      7 F           3.8170  -30.4120  -28.2690 F         1 P0F        -0.1890
      8 CAV         4.4030  -31.3800  -30.3970 C.ar      1 P0F         0.0269
      9 CAK         3.0870  -31.9040  -30.5180 C.3       1 P0F         0.0670
     10 NAN         3.0230  -33.3460  -30.2360 N.pl3     1 P0F        -0.2663
     11 CAU         1.8360  -33.9840  -30.1850 C.2       1 P0F         0.2277
     12 NAM         0.6420  -33.4220  -30.4790 N.pl3     1 P0F        -0.2110
     13 NAO         1.6530  -35.2760  -29.8690 N.2       1 P0F        -0.2626
     14 NAL         0.3530  -35.5020  -29.9600 N.2       1 P0F        -0.2749
     15 CAT        -0.2730  -34.3970  -30.3130 C.2       1 P0F         0.1445
     16 CAS        -1.6370  -34.2890  -30.4600 C.ar      1 P0F         0.0172
     17 CAJ        -2.2090  -33.0170  -30.2330 C.ar      1 P0F        -0.0208
     18 CAP        -3.5900  -32.8530  -30.3620 C.ar      1 P0F         0.0891
     19 OAA        -4.0600  -31.5980  -30.1540 O.3       1 P0F        -0.3331
     20 CAF        -4.3770  -33.9840  -30.6370 C.ar      1 P0F        -0.0322
     21 CAD        -3.8200  -35.2480  -30.8470 C.ar      1 P0F        -0.0684
     22 CAI        -2.4310  -35.3810  -30.7420 C.ar      1 P0F        -0.0595
     23 H1          7.3925  -31.2151  -32.0930 H         1 P0F         0.0571
     24 H2          7.9697  -29.8975  -30.1168 H         1 P0F         0.0549
     25 H3          6.3716  -29.5041  -28.2949 H         1 P0F         0.0587
     26 H4          2.7317  -31.7299  -31.5444 H         1 P0F         0.0680
     27 H5          2.4317  -31.3772  -29.8088 H         1 P0F         0.0680
     28 H6          3.8930  -33.8736  -30.0759 H         1 P0F         0.1894
     29 H7          0.4678  -32.4494  -30.7698 H         1 P0F         0.2413
     30 H8         -1.5815  -32.1759  -29.9611 H         1 P0F         0.0555
     31 H9         -5.0036  -31.5921  -30.2644 H         1 P0F         0.2479
     32 H10        -5.4540  -33.8720  -30.6880 H         1 P0F         0.0553
     33 H11        -4.4456  -36.1008  -31.0844 H         1 P0F         0.0593
     34 H12        -1.9737  -36.3535  -30.8839 H         1 P0F         0.0545
@<TRIPOS>BOND
     1    1    2 1  
     2    2    3 ar 
     3    2    8 ar 
     4    3    4 ar 
     5    4    5 ar 
     6    5    6 ar 
     7    6    7 1  
     8    6    8 ar 
     9    8    9 1  
    10    9   10 1  
    11   10   11 1  
    12   11   12 1  
    13   11   13 2  
    14   12   15 1  
    15   13   14 1  
    16   14   15 2  
    17   15   16 1  
    18   16   17 ar 
    19   16   22 ar 
    20   17   18 ar 
    21   18   19 1  
    22   18   20 ar 
    23   20   21 ar 
    24   21   22 ar 
    25    3   23 1  
    26    4   24 1  
    27    5   25 1  
    28    9   26 1  
    29    9   27 1  
    30   10   28 1  
    31   12   29 1  
    32   17   30 1  
    33   19   31 1  
    34   20   32 1  
    35   21   33 1  
    36   22   34 1  
@<TRIPOS>SUBSTRUCTURE
     1 P0F         1

