### 
### Created by X-TOOL on Wed Jan  1 15:39:38 2020
### 

@<TRIPOS>MOLECULE
5xyz_ligand
   43    45     1     0     0
SMALL
GAST_HUCK


@<TRIPOS>ATOM
      1 C1         -9.5550   -9.3720  -37.4850 C.ar      1 GYL         0.0416
      2 C2         -9.3520  -10.0860  -36.2970 C.ar      1 GYL         0.0269
      3 C3         -9.6340   -9.4370  -35.0940 C.ar      1 GYL         0.1356
      4 C4        -10.0930   -8.1250  -35.0890 C.ar      1 GYL        -0.0346
      5 C5        -10.2880   -7.4310  -36.2700 C.ar      1 GYL        -0.0700
      6 C6        -10.0170   -8.0580  -37.4740 C.ar      1 GYL        -0.0585
      7 C37        -9.6110  -20.4570  -34.1830 C.3       1 GYL        -0.0477
      8 C38        -9.4870  -20.6640  -35.7000 C.3       1 GYL         0.0403
      9 C33        -8.1700  -19.9910  -36.0410 C.2       1 GYL         0.2032
     10 O35        -7.1190  -20.5090  -35.6460 O.2       1 GYL        -0.3850
     11 N34        -8.2750  -18.8280  -36.7670 N.am      1 GYL        -0.2339
     12 C24        -7.1800  -18.0860  -37.1240 C.ar      1 GYL         0.0677
     13 C25        -7.2250  -16.6730  -37.0080 C.ar      1 GYL        -0.0287
     14 C23        -6.0210  -18.6750  -37.6370 C.ar      1 GYL        -0.0400
     15 C28        -4.9490  -17.8700  -37.9890 C.ar      1 GYL        -0.0732
     16 C27        -4.9960  -16.4930  -37.8550 C.ar      1 GYL        -0.0638
     17 C26        -6.1340  -15.8480  -37.3540 C.ar      1 GYL         0.0124
     18 C19        -6.1680  -14.4920  -37.2580 C.2       1 GYL         0.1435
     19 N18        -7.2240  -13.7460  -36.9230 N.pl3     1 GYL        -0.2111
     20 N20        -5.1600  -13.6430  -37.5480 N.2       1 GYL        -0.2749
     21 N21        -5.5030  -12.4860  -37.4010 N.2       1 GYL        -0.2626
     22 C17        -6.7810  -12.4860  -37.0160 C.2       1 GYL         0.2277
     23 N15        -7.4800  -11.3750  -36.7450 N.pl3     1 GYL        -0.2663
     24 C8         -8.8930  -11.4030  -36.3120 C.3       1 GYL         0.0670
     25 CL7        -9.2270  -10.0700  -38.9990 Cl        1 GYL        -0.0783
     26 F9         -9.4680  -10.0180  -34.0020 F         1 GYL        -0.1890
     27 H1        -10.3017   -7.6372  -34.1437 H         1 GYL         0.0587
     28 H2        -10.6486   -6.4089  -36.2526 H         1 GYL         0.0549
     29 H3        -10.1642   -7.5269  -38.4074 H         1 GYL         0.0571
     30 H4        -10.5458  -20.9137  -33.8258 H         1 GYL         0.0254
     31 H5         -9.6204  -19.3800  -33.9594 H         1 GYL         0.0254
     32 H6         -8.7557  -20.9291  -33.6774 H         1 GYL         0.0254
     33 H7        -10.3226  -20.1858  -36.2320 H         1 GYL         0.0505
     34 H8         -9.4580  -21.7348  -35.9500 H         1 GYL         0.0505
     35 H9         -9.1826  -18.5127  -37.0442 H         1 GYL         0.2255
     36 H10        -8.1327  -16.2091  -36.6393 H         1 GYL         0.0515
     37 H11        -5.9611  -19.7505  -37.7584 H         1 GYL         0.0514
     38 H12        -4.0493  -18.3313  -38.3799 H         1 GYL         0.0581
     39 H13        -4.1345  -15.9018  -38.1437 H         1 GYL         0.0510
     40 H14        -8.1651  -14.0670  -36.6542 H         1 GYL         0.2413
     41 H15        -7.0124  -10.4624  -36.8427 H         1 GYL         0.1894
     42 H16        -9.4900  -12.0010  -37.0162 H         1 GYL         0.0680
     43 H17        -8.9688  -11.8389  -35.3049 H         1 GYL         0.0680
@<TRIPOS>BOND
     1    2    1 ar 
     2    1    6 ar 
     3    1   25 1  
     4    2    3 ar 
     5   24    2 1  
     6    3    4 ar 
     7    3   26 1  
     8    4    5 ar 
     9    6    5 ar 
    10    8    7 1  
    11    9    8 1  
    12    9   10 2  
    13   11    9 am 
    14   12   11 1  
    15   13   12 ar 
    16   12   14 ar 
    17   17   13 ar 
    18   15   14 ar 
    19   16   15 ar 
    20   17   16 ar 
    21   18   17 1  
    22   19   18 1  
    23   20   18 2  
    24   22   19 1  
    25   21   20 1  
    26   22   21 2  
    27   23   22 1  
    28   23   24 1  
    29    4   27 1  
    30    5   28 1  
    31    6   29 1  
    32    7   30 1  
    33    7   31 1  
    34    7   32 1  
    35    8   33 1  
    36    8   34 1  
    37   11   35 1  
    38   13   36 1  
    39   14   37 1  
    40   15   38 1  
    41   16   39 1  
    42   19   40 1  
    43   23   41 1  
    44   24   42 1  
    45   24   43 1  
@<TRIPOS>SUBSTRUCTURE
     1 GYL         1

