### 
### Created by X-TOOL on Mon Sep 10 21:13:34 2018
### 

@<TRIPOS>MOLECULE
5xzr_ligand
   58    61     1     0     0
SMALL
GAST_HUCK


@<TRIPOS>ATOM
      1 C23       -16.3740   65.8680   21.2730 C.3       1 8J6        -0.0189
      2 C17       -16.8550   66.8490   20.2050 C.3       1 8J6        -0.0148
      3 C16       -18.1110   67.5430   20.7210 C.3       1 8J6         0.0165
      4 C22       -17.2110   66.0650   18.9470 C.3       1 8J6        -0.0189
      5 N2        -15.7290   67.7950   19.9000 N.4       1 8J6         0.2350
      6 C18       -16.0190   69.2590   19.7240 C.3       1 8J6        -0.0148
      7 C20       -15.4280   69.7070   18.3810 C.3       1 8J6        -0.0189
      8 C21       -15.2500   69.9970   20.8390 C.3       1 8J6        -0.0189
      9 C19       -17.4820   69.7270   19.8020 C.3       1 8J6         0.0165
     10 C15       -18.4890   68.6180   19.7650 C.3       1 8J6         0.0549
     11 N1        -19.8920   69.0920   20.0730 N.pl3     1 8J6        -0.2806
     12 C13       -20.2660   70.1140   21.0800 C.2       1 8J6         0.1813
     13 N         -21.4100   70.8340   21.0550 N.2       1 8J6        -0.3140
     14 S         -19.4190   70.6240   22.4650 S.3       1 8J6         0.0178
     15 C14       -20.5460   71.7860   23.0260 C.2       1 8J6         0.0098
     16 C12       -21.5890   71.7320   22.0770 C.2       1 8J6         0.0042
     17 C10       -22.8640   72.6300   22.1690 C.ar      1 8J6        -0.0253
     18 C9        -22.7580   73.9620   22.5600 C.ar      1 8J6        -0.0586
     19 C8        -23.9080   74.7590   22.6370 C.ar      1 8J6        -0.0640
     20 C7        -25.1610   74.2190   22.3220 C.ar      1 8J6        -0.0570
     21 C11       -24.1180   72.0880   21.8500 C.ar      1 8J6        -0.0510
     22 C6        -25.2670   72.8850   21.9290 C.ar      1 8J6        -0.0207
     23 C3        -26.6570   72.2800   21.5730 C.ar      1 8J6        -0.0186
     24 C2        -27.5930   73.0480   20.8810 C.ar      1 8J6        -0.0541
     25 C1        -28.8400   72.5080   20.5550 C.ar      1 8J6        -0.0612
     26 C4        -26.9640   70.9700   21.9310 C.ar      1 8J6        -0.0541
     27 C5        -28.2120   70.4300   21.6020 C.ar      1 8J6        -0.0612
     28 C         -29.1490   71.1990   20.9150 C.ar      1 8J6        -0.0617
     29 H1        -17.1831   65.1628   21.5142 H         1 8J6         0.0287
     30 H2        -16.0892   66.4229   22.1790 H         1 8J6         0.0287
     31 H3        -15.5036   65.3119   20.8948 H         1 8J6         0.0287
     32 H4        -17.9121   67.9807   21.7103 H         1 8J6         0.0346
     33 H5        -18.9306   66.8137   20.8008 H         1 8J6         0.0346
     34 H6        -16.3126   65.5588   18.5639 H         1 8J6         0.0287
     35 H7        -17.5974   66.7547   18.1822 H         1 8J6         0.0287
     36 H8        -17.9797   65.3157   19.1871 H         1 8J6         0.0287
     37 H9        -15.3017   67.4760   19.0446 H         1 8J6         0.2024
     38 H10       -15.0670   67.7162   20.6561 H         1 8J6         0.2024
     39 H11       -15.6290   70.7780   18.2310 H         1 8J6         0.0287
     40 H12       -15.8897   69.1298   17.5664 H         1 8J6         0.0287
     41 H13       -14.3416   69.5345   18.3827 H         1 8J6         0.0287
     42 H14       -15.4299   71.0789   20.7542 H         1 8J6         0.0287
     43 H15       -14.1735   69.7953   20.7373 H         1 8J6         0.0287
     44 H16       -15.5983   69.6433   21.8206 H         1 8J6         0.0287
     45 H17       -17.6753   70.3958   18.9503 H         1 8J6         0.0346
     46 H18       -17.6161   70.2822   20.7421 H         1 8J6         0.0346
     47 H19       -18.4880   68.1968   18.7488 H         1 8J6         0.0569
     48 H20       -20.6585   68.6653   19.5332 H         1 8J6         0.1902
     49 H21       -20.4742   72.4189   23.9093 H         1 8J6         0.0665
     50 H22       -21.7887   74.3813   22.8042 H         1 8J6         0.0595
     51 H23       -23.8274   75.7963   22.9412 H         1 8J6         0.0610
     52 H24       -26.0488   74.8379   22.3836 H         1 8J6         0.0598
     53 H25       -24.1977   71.0517   21.5422 H         1 8J6         0.0601
     54 H26       -27.3528   74.0658   20.5954 H         1 8J6         0.0624
     55 H27       -29.5675   73.1089   20.0213 H         1 8J6         0.0618
     56 H28       -26.2365   70.3688   22.4643 H         1 8J6         0.0624
     57 H29       -28.4506   69.4104   21.8824 H         1 8J6         0.0618
     58 H30       -30.1158   70.7794   20.6615 H         1 8J6         0.0618
@<TRIPOS>BOND
     1    1    2 1  
     2    2    3 1  
     3    2    4 1  
     4    2    5 1  
     5    3   10 1  
     6    5    6 1  
     7    6    7 1  
     8    6    8 1  
     9    6    9 1  
    10    9   10 1  
    11   10   11 1  
    12   11   12 1  
    13   12   13 2  
    14   12   14 1  
    15   13   16 1  
    16   14   15 1  
    17   15   16 2  
    18   16   17 1  
    19   17   18 ar 
    20   17   21 ar 
    21   18   19 ar 
    22   19   20 ar 
    23   20   22 ar 
    24   21   22 ar 
    25   22   23 1  
    26   23   24 ar 
    27   23   26 ar 
    28   24   25 ar 
    29   25   28 ar 
    30   26   27 ar 
    31   27   28 ar 
    32    1   29 1  
    33    1   30 1  
    34    1   31 1  
    35    3   32 1  
    36    3   33 1  
    37    4   34 1  
    38    4   35 1  
    39    4   36 1  
    40    5   37 1  
    41    5   38 1  
    42    7   39 1  
    43    7   40 1  
    44    7   41 1  
    45    8   42 1  
    46    8   43 1  
    47    8   44 1  
    48    9   45 1  
    49    9   46 1  
    50   10   47 1  
    51   11   48 1  
    52   15   49 1  
    53   18   50 1  
    54   19   51 1  
    55   20   52 1  
    56   21   53 1  
    57   24   54 1  
    58   25   55 1  
    59   26   56 1  
    60   27   57 1  
    61   28   58 1  
@<TRIPOS>SUBSTRUCTURE
     1 8J6         1

