### 
### Created by X-TOOL on Wed Jan  1 15:39:35 2020
### 

@<TRIPOS>MOLECULE
5y0f_ligand
   39    41     1     0     0
SMALL
GAST_HUCK


@<TRIPOS>ATOM
      1 C4          3.4420   -6.1170  -20.4100 C.ar      1 8JO         0.1041
      2 C14         7.1670   -6.5370  -16.4190 C.ar      1 8JO         0.0280
      3 C5          4.4120   -6.4800  -21.3930 C.ar      1 8JO         0.0196
      4 C6          5.2580   -7.5970  -21.1330 C.ar      1 8JO         0.0009
      5 C11         1.8800   -4.4690  -19.6800 C.3       1 8JO         0.0614
      6 C7          4.5580   -5.7770  -22.6130 C.ar      1 8JO        -0.0531
      7 C8          5.5010   -6.1700  -23.5220 C.ar      1 8JO        -0.0633
      8 C9          6.3410   -7.2670  -23.2670 C.ar      1 8JO        -0.0640
      9 C10         6.2230   -7.9690  -22.1040 C.ar      1 8JO        -0.0568
     10 C12         7.8530   -8.0020  -18.2200 C.ar      1 8JO         0.0619
     11 C13         6.9070   -7.6120  -17.2680 C.ar      1 8JO        -0.0328
     12 N1          7.5820   -9.0730  -19.1180 N.am      1 8JO        -0.1904
     13 C3          3.3330   -6.8070  -19.2310 C.ar      1 8JO        -0.0321
     14 C1          5.0900   -8.3010  -19.8980 C.ar      1 8JO         0.1069
     15 C15         8.3830   -5.8960  -16.5500 C.ar      1 8JO         0.1285
     16 C16         9.3270   -6.2570  -17.4830 C.ar      1 8JO        -0.0401
     17 C17         9.0510   -7.3180  -18.3310 C.ar      1 8JO        -0.0442
     18 C18         6.1380   -6.1040  -15.4010 C.2       1 8JO         0.0587
     19 C2          4.1600   -7.9070  -18.9720 C.ar      1 8JO        -0.0473
     20 F1          8.6760   -4.8560  -15.7330 F         1 8JO        -0.1939
     21 O1          2.6830   -5.0240  -20.7240 O.3       1 8JO        -0.3162
     22 O2          6.2550  -10.5760  -20.5510 O.2       1 8JO        -0.1467
     23 O3          5.5870  -10.2260  -18.2220 O.2       1 8JO        -0.1467
     24 O4          6.0540   -4.8860  -15.1420 O.co2     1 8JO        -0.5621
     25 O5          5.4160   -6.9750  -14.8830 O.co2     1 8JO        -0.5621
     26 S1          6.1030   -9.6820  -19.4410 S.o2      1 8JO         0.0825
     27 H1          1.3250   -3.6013  -20.0662 H         1 8JO         0.0582
     28 H2          2.5272   -4.1502  -18.8497 H         1 8JO         0.0582
     29 H3          1.1697   -5.2282  -19.3207 H         1 8JO         0.0582
     30 H4          3.9215   -4.9260  -22.8269 H         1 8JO         0.0631
     31 H5          5.6021   -5.6264  -24.4544 H         1 8JO         0.0591
     32 H6          7.0867   -7.5568  -23.9985 H         1 8JO         0.0614
     33 H7          6.8716   -8.8179  -21.9200 H         1 8JO         0.0600
     34 H8          5.9677   -8.1473  -17.1894 H         1 8JO         0.0505
     35 H9          8.3615   -9.4857  -19.5892 H         1 8JO         0.2145
     36 H10         2.6010   -6.4989  -18.4932 H         1 8JO         0.0499
     37 H11        10.2675   -5.7227  -17.5536 H         1 8JO         0.0568
     38 H12         9.7747   -7.6126  -19.0824 H         1 8JO         0.0495
     39 H13         4.0643   -8.4477  -18.0374 H         1 8JO         0.0601
@<TRIPOS>BOND
     1    3    1 ar 
     2   13    1 ar 
     3    1   21 1  
     4   11    2 ar 
     5    2   15 ar 
     6    2   18 1  
     7    4    3 ar 
     8    3    6 ar 
     9    4    9 ar 
    10   14    4 ar 
    11   21    5 1  
    12    6    7 ar 
    13    8    7 ar 
    14    9    8 ar 
    15   10   11 ar 
    16   12   10 1  
    17   10   17 ar 
    18   26   12 am 
    19   19   13 ar 
    20   14   19 ar 
    21   14   26 1  
    22   15   16 ar 
    23   15   20 1  
    24   16   17 ar 
    25   18   24 ar 
    26   18   25 ar 
    27   26   22 2  
    28   26   23 2  
    29    5   27 1  
    30    5   28 1  
    31    5   29 1  
    32    6   30 1  
    33    7   31 1  
    34    8   32 1  
    35    9   33 1  
    36   11   34 1  
    37   12   35 1  
    38   13   36 1  
    39   16   37 1  
    40   17   38 1  
    41   19   39 1  
@<TRIPOS>SUBSTRUCTURE
     1 8JO         1

