### 
### Created by X-TOOL on Wed Jan  1 15:39:35 2020
### 

@<TRIPOS>MOLECULE
5y0g_ligand
   39    41     1     0     0
SMALL
GAST_HUCK


@<TRIPOS>ATOM
      1 C4          3.4980   -6.1160  -20.4640 C.ar      1 8JL         0.1041
      2 C14         7.2700   -6.5960  -16.4120 C.ar      1 8JL        -0.0098
      3 C5          4.4600   -6.4840  -21.4470 C.ar      1 8JL         0.0196
      4 C6          5.2870   -7.6150  -21.1840 C.ar      1 8JL         0.0009
      5 C11         2.1030   -4.3750  -19.6570 C.3       1 8JL         0.0614
      6 C7          4.6140   -5.7930  -22.6680 C.ar      1 8JL        -0.0531
      7 C8          5.5460   -6.2240  -23.5720 C.ar      1 8JL        -0.0633
      8 C9          6.3900   -7.3150  -23.3010 C.ar      1 8JL        -0.0640
      9 C10         6.2580   -8.0050  -22.1340 C.ar      1 8JL        -0.0568
     10 C12         7.8790   -8.0730  -18.2200 C.ar      1 8JL         0.0997
     11 C13         6.9780   -7.6910  -17.2160 C.ar      1 8JL        -0.0329
     12 N1          7.6200   -9.1320  -19.1440 N.am      1 8JL        -0.1874
     13 C3          3.3940   -6.7920  -19.2820 C.ar      1 8JL        -0.0321
     14 C1          5.1200   -8.3120  -19.9490 C.ar      1 8JL         0.1069
     15 C15         8.4510   -5.8970  -16.6030 C.ar      1 8JL        -0.0667
     16 C16         9.3340   -6.2460  -17.6110 C.ar      1 8JL        -0.0402
     17 C17         9.0250   -7.3240  -18.4050 C.ar      1 8JL         0.1501
     18 C18         6.3020   -6.1690  -15.3390 C.2       1 8JL         0.0563
     19 C2          4.2030   -7.9010  -19.0190 C.ar      1 8JL        -0.0473
     20 F1          9.8850   -7.6900  -19.3910 F         1 8JL        -0.1934
     21 O1          2.7550   -5.0120  -20.7610 O.3       1 8JL        -0.3162
     22 O2          6.2790  -10.6110  -20.5700 O.2       1 8JL        -0.1467
     23 O3          5.5950  -10.2490  -18.2650 O.2       1 8JL        -0.1467
     24 O4          5.4040   -6.9740  -14.9870 O.co2     1 8JL        -0.5619
     25 O5          6.3610   -4.9830  -14.9560 O.co2     1 8JL        -0.5619
     26 S1          6.1280   -9.7000  -19.4810 S.o2      1 8JL         0.0827
     27 H1          1.5383   -3.5029  -20.0183 H         1 8JL         0.0582
     28 H2          2.8565   -4.0467  -18.9259 H         1 8JL         0.0582
     29 H3          1.4133   -5.0859  -19.1786 H         1 8JL         0.0582
     30 H4          3.9989   -4.9279  -22.8877 H         1 8JL         0.0631
     31 H5          5.6360   -5.7106  -24.5225 H         1 8JL         0.0591
     32 H6          7.1460   -7.6072  -24.0208 H         1 8JL         0.0614
     33 H7          6.8994   -8.8555  -21.9334 H         1 8JL         0.0600
     34 H8          6.0591   -8.2466  -17.0679 H         1 8JL         0.0500
     35 H9          8.3991   -9.5495  -19.6116 H         1 8JL         0.2147
     36 H10         2.6757   -6.4647  -18.5391 H         1 8JL         0.0499
     37 H11         8.6877   -5.0629  -15.9524 H         1 8JL         0.0496
     38 H12        10.2464   -5.6827  -17.7698 H         1 8JL         0.0564
     39 H13         4.1046   -8.4347  -18.0806 H         1 8JL         0.0601
@<TRIPOS>BOND
     1    3    1 ar 
     2   13    1 ar 
     3    1   21 1  
     4   11    2 ar 
     5    2   15 ar 
     6    2   18 1  
     7    4    3 ar 
     8    3    6 ar 
     9    4    9 ar 
    10   14    4 ar 
    11   21    5 1  
    12    6    7 ar 
    13    8    7 ar 
    14    9    8 ar 
    15   10   11 ar 
    16   12   10 1  
    17   10   17 ar 
    18   26   12 am 
    19   19   13 ar 
    20   14   19 ar 
    21   14   26 1  
    22   15   16 ar 
    23   16   17 ar 
    24   17   20 1  
    25   18   24 ar 
    26   18   25 ar 
    27   26   22 2  
    28   26   23 2  
    29    5   27 1  
    30    5   28 1  
    31    5   29 1  
    32    6   30 1  
    33    7   31 1  
    34    8   32 1  
    35    9   33 1  
    36   11   34 1  
    37   12   35 1  
    38   13   36 1  
    39   15   37 1  
    40   16   38 1  
    41   19   39 1  
@<TRIPOS>SUBSTRUCTURE
     1 8JL         1

