### 
### Created by X-TOOL on Wed Jan  1 15:39:36 2020
### 

@<TRIPOS>MOLECULE
5y0x_ligand
   39    41     1     0     0
SMALL
GAST_HUCK


@<TRIPOS>ATOM
      1 C13        -8.1880    5.9540  -18.4450 C.ar      1 8JR        -0.0784
      2 C15        -7.1420    6.5670  -16.4070 C.ar      1 8JR         0.0281
      3 C21        -5.3150    7.5690  -21.2570 C.ar      1 8JR         0.0009
      4 C22        -6.2180    7.9550  -22.2570 C.ar      1 8JR        -0.0568
      5 C24        -5.5530    6.0620  -23.5960 C.ar      1 8JR        -0.0633
      6 C26        -4.5420    6.4300  -21.4340 C.ar      1 8JR         0.0196
      7 C01        -2.3800    4.3250  -19.3920 C.3       1 8JR         0.0614
      8 C03        -3.6460    6.0360  -20.4460 C.ar      1 8JR         0.1041
      9 C04        -3.5200    6.7860  -19.2670 C.ar      1 8JR        -0.0321
     10 C05        -4.2820    7.9080  -19.0870 C.ar      1 8JR        -0.0473
     11 C06        -5.1800    8.3100  -20.0710 C.ar      1 8JR         0.1070
     12 C11        -7.5700    8.2110  -18.0820 C.ar      1 8JR         0.0999
     13 C12        -8.1280    7.2510  -18.9000 C.ar      1 8JR        -0.0444
     14 C14        -7.7070    5.6130  -17.2020 C.ar      1 8JR        -0.0668
     15 C16        -6.6340    6.1210  -15.0660 C.2       1 8JR         0.0584
     16 C19        -7.0690    7.8930  -16.8520 C.ar      1 8JR         0.1619
     17 C23        -6.3460    7.2200  -23.4150 C.ar      1 8JR        -0.0640
     18 C25        -4.6640    5.6710  -22.6190 C.ar      1 8JR        -0.0531
     19 F20        -6.5050    8.8880  -16.0740 F         1 8JR        -0.1918
     20 N10        -7.4880    9.5480  -18.5820 N.am      1 8JR        -0.1874
     21 O02        -2.8620    4.8820  -20.6030 O.3       1 8JR        -0.3162
     22 O08        -6.6040   10.5160  -20.9170 O.2       1 8JR        -0.1467
     23 O09        -5.1990   10.7740  -19.1560 O.2       1 8JR        -0.1467
     24 O17        -6.6090    6.9230  -14.1090 O.co2     1 8JR        -0.5623
     25 O18        -6.2520    4.8990  -14.9370 O.co2     1 8JR        -0.5623
     26 S07        -6.1260    9.8120  -19.7180 S.o2      1 8JR         0.0827
     27 H1         -8.6218    5.1875  -19.0769 H         1 8JR         0.0545
     28 H2         -6.8234    8.8433  -22.1174 H         1 8JR         0.0600
     29 H3         -5.6454    5.4808  -24.5063 H         1 8JR         0.0591
     30 H4         -1.7800    3.4300  -19.6133 H         1 8JR         0.0582
     31 H5         -3.2305    4.0472  -18.7521 H         1 8JR         0.0582
     32 H6         -1.7554    5.0654  -18.8708 H         1 8JR         0.0582
     33 H7         -2.8197    6.4769  -18.4995 H         1 8JR         0.0499
     34 H8         -4.1858    8.4857  -18.1748 H         1 8JR         0.0601
     35 H9         -8.5109    7.5126  -19.8798 H         1 8JR         0.0488
     36 H10        -7.7768    4.5884  -16.8550 H         1 8JR         0.0494
     37 H11        -7.0486    7.5262  -24.1816 H         1 8JR         0.0614
     38 H12        -4.0592    4.7824  -22.7594 H         1 8JR         0.0631
     39 H13        -8.1305   10.2689  -18.3223 H         1 8JR         0.2148
@<TRIPOS>BOND
     1   13    1 ar 
     2    1   14 ar 
     3    2   14 ar 
     4    2   15 1  
     5   16    2 ar 
     6    3    4 ar 
     7    3    6 ar 
     8   11    3 ar 
     9    4   17 ar 
    10   17    5 ar 
    11   18    5 ar 
    12    6    8 ar 
    13    6   18 ar 
    14   21    7 1  
    15    9    8 ar 
    16    8   21 1  
    17   10    9 ar 
    18   11   10 ar 
    19   26   11 1  
    20   12   13 ar 
    21   12   16 ar 
    22   20   12 1  
    23   15   24 ar 
    24   15   25 ar 
    25   16   19 1  
    26   20   26 am 
    27   26   22 2  
    28   26   23 2  
    29    1   27 1  
    30    4   28 1  
    31    5   29 1  
    32    7   30 1  
    33    7   31 1  
    34    7   32 1  
    35    9   33 1  
    36   10   34 1  
    37   13   35 1  
    38   14   36 1  
    39   17   37 1  
    40   18   38 1  
    41   20   39 1  
@<TRIPOS>SUBSTRUCTURE
     1 8JR         1

