### 
### Created by X-TOOL on Wed Jan  1 15:39:37 2020
### 

@<TRIPOS>MOLECULE
5y0z_ligand
   80    83     1     0     0
SMALL
GAST_HUCK


@<TRIPOS>ATOM
      1 C1          9.7350   47.9990  -21.3980 C.3       1 8K9        -0.0444
      2 C2          8.2790   47.5160  -21.4760 C.3       1 8K9        -0.0874
      3 C3         10.6050   47.0880  -20.5320 C.3       1 8K9        -0.0784
      4 C4         10.2150   45.6310  -20.6140 C.3       1 8K9        -0.0733
      5 C5         10.2830   48.0740  -22.8050 C.ar      1 8K9        -0.0304
      6 C6         10.7150   46.9190  -23.4820 C.ar      1 8K9        -0.0185
      7 C7         11.2090   46.9640  -24.7870 C.ar      1 8K9         0.0173
      8 C8         11.6770   45.6750  -25.4610 C.3       1 8K9        -0.0384
      9 C9         11.2080   44.4590  -24.6680 C.3       1 8K9        -0.0864
     10 O1          8.6640   49.9190  -35.4300 O.2       1 8K9        -0.4271
     11 C24         9.8140   49.6180  -35.0440 C.2       1 8K9         0.1884
     12 N1          9.9620   48.6030  -34.0740 N.am      1 8K9        -0.2018
     13 C19         8.7250   47.9670  -33.5780 C.3       1 8K9         0.0780
     14 C23        10.9310   50.2620  -35.5740 C.2       1 8K9        -0.0258
     15 C22        12.2020   49.8950  -35.1390 C.2       1 8K9        -0.0887
     16 C21        12.3730   48.8970  -34.1830 C.2       1 8K9        -0.0426
     17 C20        11.2680   48.2440  -33.6390 C.2       1 8K9         0.0944
     18 C26        11.4640   47.1610  -32.6410 C.3       1 8K9         0.0748
     19 C25        10.2980   46.1840  -32.7860 C.3       1 8K9        -0.0171
     20 C18         8.9870   46.9230  -32.4960 C.3       1 8K9         0.0318
     21 C17         9.0170   47.6070  -31.1180 C.3       1 8K9        -0.0257
     22 C27        11.4600   47.6650  -31.1990 C.3       1 8K9        -0.0113
     23 N          10.2300   48.4280  -30.9060 N.4       1 8K9         0.2398
     24 C16        10.2260   48.9000  -29.5080 C.3       1 8K9        -0.0022
     25 C15        11.5720   49.3790  -28.9430 C.3       1 8K9         0.1251
     26 O2         12.0000   50.5950  -29.5620 O.3       1 8K9        -0.3836
     27 C14        11.4030   49.6750  -27.4600 C.3       1 8K9         0.1176
     28 O          11.6930   48.4870  -26.7210 O.3       1 8K9        -0.2718
     29 C13        11.2430   48.3120  -25.4410 C.ar      1 8K9         0.1527
     30 C12        11.0980   45.5200  -26.8630 C.3       1 8K9        -0.0864
     31 C10        13.2080   45.5860  -25.4340 C.3       1 8K9        -0.0774
     32 C11        13.9360   46.5500  -26.3510 C.3       1 8K9        -0.0731
     33 C28        10.7930   49.4350  -24.7430 C.ar      1 8K9         0.0246
     34 C29        10.3130   49.3130  -23.4440 C.ar      1 8K9        -0.0240
     35 C           9.7470   49.3850  -20.7570 C.3       1 8K9        -0.0874
     36 H1          7.8586   47.4536  -20.4614 H         1 8K9         0.0124
     37 H2          8.2469   46.5229  -21.9479 H         1 8K9         0.0124
     38 H3          7.6888   48.2256  -22.0744 H         1 8K9         0.0124
     39 H4         10.5171   47.4141  -19.4851 H         1 8K9         0.0158
     40 H5         11.6499   47.1882  -20.8608 H         1 8K9         0.0158
     41 H6         10.8793   45.0368  -19.9694 H         1 8K9         0.0221
     42 H7         10.3073   45.2847  -21.6540 H         1 8K9         0.0221
     43 H8          9.1744   45.5105  -20.2783 H         1 8K9         0.0221
     44 H9         10.6626   45.9629  -22.9739 H         1 8K9         0.1119
     45 H10        11.5530   43.5410  -25.1663 H         1 8K9         0.0127
     46 H11        10.1093   44.4569  -24.6155 H         1 8K9         0.0127
     47 H12        11.6237   44.5022  -23.6505 H         1 8K9         0.0127
     48 H13         8.2188   47.4773  -34.4230 H         1 8K9         0.0644
     49 H14         8.0715   48.7477  -33.1616 H         1 8K9         0.0644
     50 H15        10.8108   51.0449  -36.3214 H         1 8K9         0.0305
     51 H16        13.0757   50.3962  -35.5529 H         1 8K9         0.0620
     52 H17        13.3762   48.6249  -33.8583 H         1 8K9         0.0265
     53 H18        12.4175   46.6513  -32.8435 H         1 8K9         0.0623
     54 H19        10.4200   45.3560  -32.0722 H         1 8K9         0.0308
     55 H20        10.2770   45.7847  -33.8107 H         1 8K9         0.0308
     56 H21         8.1664   46.1905  -32.5041 H         1 8K9         0.0384
     57 H22         8.9793   46.8301  -30.3402 H         1 8K9         0.0818
     58 H23         8.1340   48.2571  -31.0301 H         1 8K9         0.0818
     59 H24        12.3325   48.3166  -31.0437 H         1 8K9         0.0852
     60 H25        11.5195   46.8038  -30.5172 H         1 8K9         0.0852
     61 H26        10.1965   49.2250  -31.5222 H         1 8K9         0.2037
     62 H27         9.8743   48.0711  -28.8762 H         1 8K9         0.0841
     63 H28         9.5176   49.7388  -29.4403 H         1 8K9         0.0841
     64 H29        12.3309   48.5971  -29.0934 H         1 8K9         0.0677
     65 H30        12.8326   50.8621  -29.1906 H         1 8K9         0.2102
     66 H31        10.3685   49.9916  -27.2610 H         1 8K9         0.0677
     67 H32        12.0955   50.4756  -27.1608 H         1 8K9         0.0677
     68 H33        11.4059   46.3746  -27.4834 H         1 8K9         0.0127
     69 H34        10.0001   45.4860  -26.8046 H         1 8K9         0.0127
     70 H35        11.4704   44.5877  -27.3125 H         1 8K9         0.0127
     71 H36        13.4929   44.5636  -25.7228 H         1 8K9         0.0161
     72 H37        13.5405   45.7822  -24.4040 H         1 8K9         0.0161
     73 H38        15.0214   46.4009  -26.2524 H         1 8K9         0.0222
     74 H39        13.6812   47.5834  -26.0734 H         1 8K9         0.0222
     75 H40        13.6336   46.3648  -27.3923 H         1 8K9         0.0222
     76 H41        10.8182   50.4092  -25.2178 H         1 8K9         0.0708
     77 H42         9.9572   50.1931  -22.9207 H         1 8K9         0.0989
     78 H43         9.1289   50.0708  -21.3549 H         1 8K9         0.0124
     79 H44        10.7796   49.7619  -20.7177 H         1 8K9         0.0124
     80 H45         9.3411   49.3207  -19.7367 H         1 8K9         0.0124
@<TRIPOS>BOND
     1    1    2 1  
     2    1    3 1  
     3    5    1 1  
     4    1   35 1  
     5    3    4 1  
     6    6    5 ar 
     7    5   34 ar 
     8    7    6 ar 
     9    7    8 1  
    10   29    7 ar 
    11    8    9 1  
    12    8   30 1  
    13    8   31 1  
    14   11   10 2  
    15   12   11 am 
    16   11   14 1  
    17   13   12 1  
    18   17   12 1  
    19   20   13 1  
    20   15   14 2  
    21   16   15 1  
    22   17   16 2  
    23   18   17 1  
    24   18   19 1  
    25   22   18 1  
    26   20   19 1  
    27   21   20 1  
    28   23   21 1  
    29   23   22 1  
    30   24   23 1  
    31   25   24 1  
    32   25   26 1  
    33   27   25 1  
    34   28   27 1  
    35   28   29 1  
    36   29   33 ar 
    37   31   32 1  
    38   33   34 ar 
    39    2   36 1  
    40    2   37 1  
    41    2   38 1  
    42    3   39 1  
    43    3   40 1  
    44    4   41 1  
    45    4   42 1  
    46    4   43 1  
    47    6   44 1  
    48    9   45 1  
    49    9   46 1  
    50    9   47 1  
    51   13   48 1  
    52   13   49 1  
    53   14   50 1  
    54   15   51 1  
    55   16   52 1  
    56   18   53 1  
    57   19   54 1  
    58   19   55 1  
    59   20   56 1  
    60   21   57 1  
    61   21   58 1  
    62   22   59 1  
    63   22   60 1  
    64   23   61 1  
    65   24   62 1  
    66   24   63 1  
    67   25   64 1  
    68   26   65 1  
    69   27   66 1  
    70   27   67 1  
    71   30   68 1  
    72   30   69 1  
    73   30   70 1  
    74   31   71 1  
    75   31   72 1  
    76   32   73 1  
    77   32   74 1  
    78   32   75 1  
    79   33   76 1  
    80   34   77 1  
    81   35   78 1  
    82   35   79 1  
    83   35   80 1  
@<TRIPOS>SUBSTRUCTURE
     1 8K9         1

