### 
### Created by X-TOOL on Wed Jan  1 15:39:36 2020
### 

@<TRIPOS>MOLECULE
5y13_ligand
   37    38     1     0     0
SMALL
GAST_HUCK


@<TRIPOS>ATOM
      1 OAA        -5.7720    4.5490  -14.9120 O.co2     1 8K0        -0.5690
      2 CAQ        -6.2500    5.7230  -15.1990 C.2       1 8K0         0.0348
      3 OAD        -5.7200    6.7970  -14.7170 O.co2     1 8K0        -0.5690
      4 CAO        -7.4170    5.8160  -16.1250 C.3       1 8K0         0.0002
      5 CAM        -7.1210    6.4070  -17.4250 C.3       1 8K0        -0.0400
      6 CAL        -7.5670    7.8600  -17.6270 C.3       1 8K0        -0.0346
      7 CAN        -7.9140    8.2220  -19.0540 C.3       1 8K0         0.0267
      8 NAP        -7.6530    9.5850  -19.4690 N.am      1 8K0        -0.2470
      9 SAV        -6.0740    9.8980  -19.6800 S.o2      1 8K0         0.0705
     10 OAB        -5.9950   10.8380  -20.8890 O.2       1 8K0        -0.1498
     11 OAC        -5.5410   10.5400  -18.4600 O.2       1 8K0        -0.1498
     12 CAS        -5.1270    8.3860  -19.9690 C.ar      1 8K0         0.1193
     13 CAU        -5.1610    7.6180  -21.2110 C.ar      1 8K0         0.0112
     14 CAK        -5.9460    8.0310  -22.2760 C.ar      1 8K0        -0.0511
     15 CAG        -5.9620    7.2780  -23.4730 C.ar      1 8K0        -0.0605
     16 CAF        -5.1850    6.1040  -23.5770 C.ar      1 8K0        -0.0607
     17 CAJ        -4.4200    5.6960  -22.5260 C.ar      1 8K0        -0.0538
     18 CAT        -4.3830    6.4540  -21.3140 C.ar      1 8K0        -0.0084
     19 CAR        -3.5960    6.0460  -20.2070 C.ar      1 8K0         0.0197
     20 BRAE       -2.4510    4.4420  -20.0980 Br        1 8K0        -0.0495
     21 CAH        -3.5880    6.8140  -19.0140 C.ar      1 8K0        -0.0494
     22 CAI        -4.3520    7.9720  -18.9170 C.ar      1 8K0        -0.0306
     23 H1         -8.1913    6.4280  -15.6393 H         1 8K0         0.0430
     24 H2         -7.8037    4.7997  -16.2913 H         1 8K0         0.0430
     25 H3         -7.6165    5.7944  -18.1925 H         1 8K0         0.0283
     26 H4         -6.0315    6.3673  -17.5712 H         1 8K0         0.0283
     27 H5         -6.7505    8.5183  -17.2954 H         1 8K0         0.0282
     28 H6         -8.4559    8.0355  -17.0032 H         1 8K0         0.0282
     29 H7         -8.9888    8.0332  -19.1922 H         1 8K0         0.0475
     30 H8         -7.3371    7.5579  -19.7144 H         1 8K0         0.0475
     31 H9         -8.3727   10.2646  -19.6112 H         1 8K0         0.1673
     32 H10        -6.5466    8.9295  -22.1916 H         1 8K0         0.0630
     33 H11        -6.5703    7.6020  -24.3097 H         1 8K0         0.0618
     34 H12        -5.1970    5.5264  -24.4942 H         1 8K0         0.0624
     35 H13        -3.8337    4.7880  -22.6094 H         1 8K0         0.0620
     36 H14        -2.9826    6.4961  -18.1729 H         1 8K0         0.0655
     37 H15        -4.3344    8.5522  -18.0015 H         1 8K0         0.0646
@<TRIPOS>BOND
     1    1    2 ar 
     2    2    3 ar 
     3    2    4 1  
     4    4    5 1  
     5    5    6 1  
     6    6    7 1  
     7    7    8 1  
     8    8    9 am 
     9    9   10 2  
    10    9   11 2  
    11    9   12 1  
    12   12   13 ar 
    13   12   22 ar 
    14   13   14 ar 
    15   13   18 ar 
    16   14   15 ar 
    17   15   16 ar 
    18   16   17 ar 
    19   17   18 ar 
    20   18   19 ar 
    21   19   20 1  
    22   19   21 ar 
    23   21   22 ar 
    24    4   23 1  
    25    4   24 1  
    26    5   25 1  
    27    5   26 1  
    28    6   27 1  
    29    6   28 1  
    30    7   29 1  
    31    7   30 1  
    32    8   31 1  
    33   14   32 1  
    34   15   33 1  
    35   16   34 1  
    36   17   35 1  
    37   21   36 1  
    38   22   37 1  
@<TRIPOS>SUBSTRUCTURE
     1 8K0         1

