### 
### Created by X-TOOL on Mon Sep 10 21:13:32 2018
### 

@<TRIPOS>MOLECULE
5y1y_ligand
   20    21     1     0     0
SMALL
GAST_HUCK


@<TRIPOS>ATOM
      1 C1         -9.7280   -5.8630   -0.8420 C.ar      1 HNQ         0.2301
      2 N1         -8.3610   -6.3540   -1.0440 N.2       1 HNQ        -0.1124
      3 O1         -7.8950   -6.2220   -2.1300 O.2       1 HNQ        -0.4373
      4 C2        -10.1080   -4.8040   -1.6310 C.ar      1 HNQ         0.1176
      5 N2        -12.8360   -6.3400    0.9700 N.ar      1 HNQ        -0.1791
      6 O2         -7.7250   -6.8740   -0.1860 O.2       1 HNQ        -0.4373
      7 C3        -11.3690   -4.2550   -1.5470 C.ar      1 HNQ         0.1395
      8 O3        -13.5650   -4.2360   -0.5840 O.3       1 HNQ        -0.2073
      9 C4        -12.2820   -4.7870   -0.6590 C.ar      1 HNQ         0.2966
     10 C5        -11.9230   -5.8640    0.1390 C.ar      1 HNQ         0.2483
     11 C6        -12.5890   -7.3590    1.7890 C.ar      1 HNQ         0.0973
     12 C7        -11.3460   -7.9570    1.7710 C.ar      1 HNQ         0.0462
     13 C8        -10.3760   -7.4810    0.9060 C.ar      1 HNQ         0.0529
     14 C9        -10.6450   -6.4170    0.0600 C.ar      1 HNQ         0.1784
     15 H1         -9.3976   -4.3900   -2.3374 H         1 HNQ         0.1281
     16 H2        -11.6416   -3.4128   -2.1727 H         1 HNQ         0.1427
     17 H3        -13.9895   -4.3083   -1.4309 H         1 HNQ         0.3316
     18 H4        -13.3578   -7.7162    2.4646 H         1 HNQ         0.1194
     19 H5        -11.1310   -8.7919    2.4281 H         1 HNQ         0.1101
     20 H6         -9.3965   -7.9450    0.8902 H         1 HNQ         0.1345
@<TRIPOS>BOND
     1    1    2 1  
     2    4    1 ar 
     3    1   14 ar 
     4    2    3 2  
     5    2    6 2  
     6    7    4 ar 
     7   10    5 ar 
     8    5   11 ar 
     9    9    7 ar 
    10    9    8 1  
    11    9   10 ar 
    12   10   14 ar 
    13   11   12 ar 
    14   12   13 ar 
    15   13   14 ar 
    16    4   15 1  
    17    7   16 1  
    18    8   17 1  
    19   11   18 1  
    20   12   19 1  
    21   13   20 1  
@<TRIPOS>SUBSTRUCTURE
     1 HNQ         1

