### 
### Created by X-TOOL on Wed Jan  1 15:39:38 2020
### 

@<TRIPOS>MOLECULE
5y24_ligand
   82    82     1     0     0
SMALL
GAST_HUCK


@<TRIPOS>ATOM
      1 N         -84.3620  128.0370  231.7610 N.4       1 GLY         0.2357
      2 CA        -83.1180  127.6170  232.3750 C.3       1 GLY         0.0545
      3 C         -82.3560  126.6200  231.5230 C.2       1 GLY         0.2236
      4 O         -82.6180  126.5120  230.3270 O.2       1 GLY        -0.3910
      5 N         -81.4420  125.8750  232.1590 N.am      1 MET        -0.2612
      6 CA        -80.5790  124.9050  231.4760 C.3       1 MET         0.1320
      7 C         -81.1220  123.5060  231.6900 C.2       1 MET         0.2064
      8 O         -81.2490  123.0770  232.8530 O.2       1 MET        -0.3942
      9 CB        -79.1570  124.9850  232.0220 C.3       1 MET        -0.0034
     10 CG        -78.1600  124.0270  231.3520 C.3       1 MET        -0.0024
     11 SD        -76.5070  123.9570  232.1000 S.3       1 MET        -0.1639
     12 CE        -76.8140  122.9560  233.5550 C.3       1 MET        -0.0181
     13 N         -81.4420  122.7520  230.6450 N.am      1 PRO        -0.2498
     14 CA        -81.9250  121.3870  230.8680 C.3       1 PRO         0.1338
     15 C         -80.7920  120.5010  231.3540 C.2       1 PRO         0.2041
     16 O         -79.6480  120.6550  230.9420 O.2       1 PRO        -0.3944
     17 CB        -82.4460  120.9590  229.4890 C.3       1 PRO        -0.0104
     18 CG        -81.6650  121.7670  228.5170 C.3       1 PRO        -0.0281
     19 CD        -81.2780  123.0640  229.2050 C.3       1 PRO         0.0369
     20 N         -81.1110  119.6060  232.2850 N.am      1 ARG        -0.2637
     21 CA        -80.1640  118.6370  232.8140 C.3       1 ARG         0.1311
     22 C         -80.8260  117.2780  232.8100 C.2       1 ARG         0.2037
     23 O         -82.0510  117.1850  232.9300 O.2       1 ARG        -0.3944
     24 CB        -79.7440  118.9310  234.2670 C.3       1 ARG        -0.0092
     25 CG        -78.7810  120.0690  234.4780 C.3       1 ARG        -0.0156
     26 CD        -78.6460  120.2960  236.0070 C.3       1 ARG         0.0627
     27 NE        -77.4010  120.9420  236.3890 N.pl3     1 ARG        -0.2723
     28 CZ        -77.3270  122.1940  236.8220 C.cat     1 ARG         0.2882
     29 NH1       -76.1640  122.7050  237.1610 N.pl3     1 ARG        -0.2849
     30 NH2       -78.4260  122.9340  236.8860 N.pl3     1 ARG        -0.2849
     31 N         -80.0070  116.2280  232.7160 N.am      1 GLY        -0.2664
     32 CA        -80.5390  114.8780  232.7800 C.3       1 GLY         0.1201
     33 C         -79.4280  113.8480  232.7940 C.2       1 GLY         0.2002
     34 O         -78.2740  114.1340  232.4650 O.2       1 GLY        -0.3947
     35 N         -79.8140  112.6290  233.1430 N.am      1 ALA        -0.2700
     36 CA        -78.9020  111.4960  233.1480 C.3       1 ALA         0.0916
     37 C         -79.6820  110.2150  232.9620 C.2       1 ALA         0.0598
     38 O         -79.1280  109.1880  232.5630 O.co2     1 ALA        -0.5666
     39 CB        -78.1160  111.4420  234.4470 C.3       1 ALA        -0.0300
     40 OXT       -80.8860  110.1910  233.2430 O.co2     1 ALA        -0.5666
     41 H1        -84.8285  128.6964  232.3640 H         1 GLY         0.2012
     42 H2        -84.9546  127.2340  231.6191 H         1 GLY         0.2012
     43 H3        -84.1681  128.4727  230.8730 H         1 GLY         0.2012
     44 H4        -83.3435  127.1514  233.3457 H         1 GLY         0.1061
     45 H5        -82.4853  128.5031  232.5315 H         1 GLY         0.1061
     46 H6        -81.3432  125.9856  233.1479 H         1 MET         0.1884
     47 H7        -80.5655  125.1296  230.3993 H         1 MET         0.0800
     48 H8        -79.1883  124.7513  233.0964 H         1 MET         0.0320
     49 H9        -78.7926  126.0132  231.8809 H         1 MET         0.0320
     50 H10       -78.0432  124.3402  230.3040 H         1 MET         0.0378
     51 H11       -78.5892  123.0148  231.3866 H         1 MET         0.0378
     52 H12       -75.8769  122.8287  234.1168 H         1 MET         0.0340
     53 H13       -77.1945  121.9705  233.2485 H         1 MET         0.0340
     54 H14       -77.5589  123.4546  234.1926 H         1 MET         0.0340
     55 H15       -82.7382  121.3739  231.6086 H         1 PRO         0.0802
     56 H16       -83.5205  121.1756  229.3970 H         1 PRO         0.0313
     57 H17       -82.2732  119.8849  229.3264 H         1 PRO         0.0313
     58 H18       -82.2781  121.9817  227.6293 H         1 PRO         0.0287
     59 H19       -80.7608  121.2187  228.2142 H         1 PRO         0.0287
     60 H20       -80.2365  123.3347  228.9771 H         1 PRO         0.0524
     61 H21       -81.9449  123.8845  228.9017 H         1 PRO         0.0524
     62 H22       -82.0466  119.5991  232.6380 H         1 ARG         0.1883
     63 H23       -79.2692  118.6255  232.1743 H         1 ARG         0.0800
     64 H24       -79.2761  118.0203  234.6690 H         1 ARG         0.0313
     65 H25       -80.6566  119.1571  234.8380 H         1 ARG         0.0313
     66 H26       -79.1664  120.9799  233.9967 H         1 ARG         0.0301
     67 H27       -77.8006  119.8144  234.0492 H         1 ARG         0.0301
     68 H28       -78.7003  119.3194  236.5103 H         1 ARG         0.0689
     69 H29       -79.4826  120.9275  236.3406 H         1 ARG         0.0689
     70 H30       -76.5290  120.3983  236.3198 H         1 ARG         0.2642
     71 H31       -76.1068  123.6769  237.4971 H         1 ARG         0.2615
     72 H32       -75.3101  122.1334  237.0905 H         1 ARG         0.2615
     73 H33       -79.3352  122.5299  236.6195 H         1 ARG         0.2615
     74 H34       -78.3702  123.9127  237.2022 H         1 ARG         0.2615
     75 H35       -79.0240  116.3714  232.6011 H         1 GLY         0.1881
     76 H36       -81.1786  114.7030  231.9024 H         1 GLY         0.0763
     77 H37       -81.1374  114.7718  233.6969 H         1 GLY         0.0763
     78 H38       -80.7659  112.4831  233.4124 H         1 ALA         0.1875
     79 H39       -78.1949  111.6074  232.3127 H         1 ALA         0.0723
     80 H40       -77.4345  110.5788  234.4275 H         1 ALA         0.0270
     81 H41       -78.8120  111.3406  235.2928 H         1 ALA         0.0270
     82 H42       -77.5324  112.3674  234.5612 H         1 ALA         0.0270
@<TRIPOS>BOND
     1    1    2 1  
     2    2    3 1  
     3    3    4 2  
     4    3    5 am 
     5    5    6 1  
     6    6    7 1  
     7    6    9 1  
     8    7    8 2  
     9    7   13 am 
    10    9   10 1  
    11   10   11 1  
    12   11   12 1  
    13   13   14 1  
    14   13   19 1  
    15   14   15 1  
    16   14   17 1  
    17   15   16 2  
    18   15   20 am 
    19   17   18 1  
    20   18   19 1  
    21   20   21 1  
    22   21   22 1  
    23   21   24 1  
    24   22   23 2  
    25   22   31 am 
    26   24   25 1  
    27   25   26 1  
    28   26   27 1  
    29   27   28 ar 
    30   28   29 ar 
    31   28   30 ar 
    32   31   32 1  
    33   32   33 1  
    34   33   34 2  
    35   33   35 am 
    36   35   36 1  
    37   36   37 1  
    38   36   39 1  
    39   37   38 ar 
    40   37   40 ar 
    41    1   41 1  
    42    1   42 1  
    43    1   43 1  
    44    2   44 1  
    45    2   45 1  
    46    5   46 1  
    47    6   47 1  
    48    9   48 1  
    49    9   49 1  
    50   10   50 1  
    51   10   51 1  
    52   12   52 1  
    53   12   53 1  
    54   12   54 1  
    55   14   55 1  
    56   17   56 1  
    57   17   57 1  
    58   18   58 1  
    59   18   59 1  
    60   19   60 1  
    61   19   61 1  
    62   20   62 1  
    63   21   63 1  
    64   24   64 1  
    65   24   65 1  
    66   25   66 1  
    67   25   67 1  
    68   26   68 1  
    69   26   69 1  
    70   27   70 1  
    71   29   71 1  
    72   29   72 1  
    73   30   73 1  
    74   30   74 1  
    75   31   75 1  
    76   32   76 1  
    77   32   77 1  
    78   35   78 1  
    79   36   79 1  
    80   39   80 1  
    81   39   81 1  
    82   39   82 1  
@<TRIPOS>SUBSTRUCTURE
     1 GLY         1

