### 
### Created by X-TOOL on Wed Jan  1 15:39:35 2020
### 

@<TRIPOS>MOLECULE
5y2f_ligand
   47    49     1     0     0
SMALL
GAST_HUCK


@<TRIPOS>ATOM
      1 C17        -2.3590  126.8210  157.8540 C.ar      1 8L9         0.0660
      2 C18        -1.2950  126.6630  158.7380 C.ar      1 8L9        -0.0411
      3 C20        -0.5970  125.4480  158.7910 C.ar      1 8L9        -0.0472
      4 C22        -0.9510  124.3590  157.9610 C.ar      1 8L9         0.1102
      5 C23        -2.0220  124.5080  157.0490 C.ar      1 8L9         0.0213
      6 C24        -2.7080  125.7400  157.0130 C.ar      1 8L9        -0.0296
      7 C26        -2.5160  123.4720  156.1070 C.2       1 8L9         0.0608
      8 C01        -5.9560  129.4550  153.6530 C.ar      1 8L9        -0.0338
      9 C03        -6.6880  129.9280  154.7480 C.ar      1 8L9         0.0428
     10 C04        -6.3330  129.5380  156.0490 C.ar      1 8L9        -0.0205
     11 C06        -5.2360  128.6790  156.2320 C.ar      1 8L9         0.1150
     12 C07        -4.5040  128.2080  155.1280 C.ar      1 8L9        -0.0205
     13 C09        -4.8720  128.6000  153.8430 C.ar      1 8L9         0.0428
     14 CL1        -3.9880  128.0320  152.4740 Cl        1 8L9        -0.0706
     15 CL2        -8.0210  130.9880  154.4650 Cl        1 8L9        -0.0706
     16 S12        -4.7880  128.1790  157.8750 S.o2      1 8L9         0.0895
     17 N13        -3.0890  128.0600  157.7750 N.am      1 8L9        -0.1865
     18 O15        -5.3850  126.8730  158.0880 O.2       1 8L9        -0.1446
     19 O16        -5.1400  129.2640  158.7740 O.2       1 8L9        -0.1446
     20 O27        -3.4000  122.6470  156.7310 O.co2     1 8L9        -0.5608
     21 O29        -2.1750  123.3890  154.9400 O.co2     1 8L9        -0.5608
     22 S30         0.0040  122.8570  158.0630 S.o2      1 8L9         0.0820
     23 O31         0.2620  122.5710  156.6730 O.2       1 8L9        -0.1468
     24 O32         1.1640  123.1030  158.8850 O.2       1 8L9        -0.1468
     25 N33        -0.9660  121.6240  158.7910 N.am      1 8L9        -0.1932
     26 C35        -1.1570  121.5120  160.2220 C.ar      1 8L9         0.0633
     27 C36        -2.0740  122.3940  160.8170 C.ar      1 8L9        -0.0438
     28 C38        -2.3090  122.3420  162.1970 C.ar      1 8L9         0.0229
     29 C39        -1.6440  121.4140  163.0060 C.ar      1 8L9         0.1173
     30 C40        -0.7340  120.5270  162.4320 C.ar      1 8L9        -0.0394
     31 C42        -0.4800  120.5570  161.0430 C.ar      1 8L9        -0.0268
     32 C43         0.5110  119.5710  160.5130 C.3       1 8L9        -0.0356
     33 F1         -1.8560  121.3520  164.3330 F         1 8L9        -0.1969
     34 BR1        -3.5520  123.5460  162.9380 Br        1 8L9        -0.0619
     35 H1         -1.0054  127.4815  159.3871 H         1 8L9         0.0503
     36 H2          0.2310  125.3412  159.4824 H         1 8L9         0.0598
     37 H3         -3.5302  125.8617  156.3172 H         1 8L9         0.0515
     38 H4         -6.2343  129.7559  152.6495 H         1 8L9         0.0629
     39 H5         -6.8983  129.8952  156.9022 H         1 8L9         0.0644
     40 H6         -3.6594  127.5447  155.2757 H         1 8L9         0.0644
     41 H7         -2.5668  128.9042  157.6538 H         1 8L9         0.2162
     42 H8         -1.4157  120.9577  158.1962 H         1 8L9         0.2120
     43 H9         -2.6017  123.1175  160.2062 H         1 8L9         0.0475
     44 H10        -0.2170  119.8081  163.0573 H         1 8L9         0.0504
     45 H11         0.6132  119.7023  159.4257 H         1 8L9         0.0363
     46 H12         0.1631  118.5498  160.7279 H         1 8L9         0.0363
     47 H13         1.4858  119.7354  160.9954 H         1 8L9         0.0363
@<TRIPOS>BOND
     1    1    2 ar 
     2    1    6 ar 
     3   17    1 1  
     4    2    3 ar 
     5    3    4 ar 
     6    5    4 ar 
     7    4   22 1  
     8    6    5 ar 
     9    5    7 1  
    10    7   20 ar 
    11    7   21 ar 
    12    9    8 ar 
    13   13    8 ar 
    14   10    9 ar 
    15    9   15 1  
    16   11   10 ar 
    17   11   12 ar 
    18   16   11 1  
    19   12   13 ar 
    20   13   14 1  
    21   16   17 am 
    22   16   18 2  
    23   16   19 2  
    24   22   23 2  
    25   22   24 2  
    26   22   25 am 
    27   25   26 1  
    28   26   27 ar 
    29   26   31 ar 
    30   27   28 ar 
    31   28   29 ar 
    32   28   34 1  
    33   29   30 ar 
    34   29   33 1  
    35   30   31 ar 
    36   31   32 1  
    37    2   35 1  
    38    3   36 1  
    39    6   37 1  
    40    8   38 1  
    41   10   39 1  
    42   12   40 1  
    43   17   41 1  
    44   25   42 1  
    45   27   43 1  
    46   30   44 1  
    47   32   45 1  
    48   32   46 1  
    49   32   47 1  
@<TRIPOS>SUBSTRUCTURE
     1 8L9         1

