### 
### Created by X-TOOL on Mon Sep 10 21:13:33 2018
### 

@<TRIPOS>MOLECULE
5y3n_ligand
   31    34     1     0     0
SMALL
GAST_HUCK


@<TRIPOS>ATOM
      1 C10         6.1170    7.1410   21.9850 C.3       1 8MF         0.0969
      2 C13         5.4960    3.5520   20.9120 C.ar      1 8MF        -0.0383
      3 C15         7.8630    3.8930   21.1280 C.ar      1 8MF         0.1204
      4 C01         7.5410    8.3160   26.5360 C.ar      1 8MF         0.1253
      5 N02         8.6170    9.0330   26.1210 N.ar      1 8MF        -0.2463
      6 C03         8.9040    9.1840   24.8090 C.ar      1 8MF         0.1714
      7 N04         8.1500    8.6080   23.8610 N.ar      1 8MF        -0.2449
      8 C05         7.0440    7.8670   24.1830 C.ar      1 8MF         0.1583
      9 C06         6.6940    7.6960   25.5340 C.ar      1 8MF         0.0653
     10 N07         6.0990    7.1930   23.4360 N.pl3     1 8MF        -0.1752
     11 N08         5.2150    6.6340   24.2080 N.2       1 8MF        -0.2006
     12 C09         5.4800    6.8760   25.5030 C.2       1 8MF         0.0272
     13 C11         6.3310    5.7110   21.5750 C.ar      1 8MF        -0.0225
     14 C12         5.2570    4.8680   21.2800 C.ar      1 8MF        -0.0038
     15 C14         6.8150    3.0700   20.8390 C.ar      1 8MF         0.1188
     16 C16         7.6240    5.2330   21.5020 C.ar      1 8MF        -0.0340
     17 O17         7.3250    1.8020   20.4920 O.3       1 8MF        -0.2948
     18 C18         8.7100    1.9690   20.3110 C.3       1 8MF         0.1861
     19 O19         9.0660    3.1500   20.9680 O.3       1 8MF        -0.2905
     20 CL1         7.1380    8.1250   28.2080 Cl        1 8MF        -0.0269
     21 N21        10.0290    9.9250   24.3790 N.pl3     1 8MF        -0.3066
     22 BR1         3.4350    5.4910   21.3730 Br        1 8MF        -0.0690
     23 H1          6.9353    7.7666   21.5990 H         1 8MF         0.0770
     24 H2          5.1583    7.5043   21.5863 H         1 8MF         0.0770
     25 H3          4.6655    2.8949   20.6806 H         1 8MF         0.0517
     26 H4          4.9053    6.5305   26.3611 H         1 8MF         0.0731
     27 H5          8.4569    5.8875   21.7322 H         1 8MF         0.0458
     28 H6          8.9447    2.0470   19.2392 H         1 8MF         0.0972
     29 H7          9.2536    1.1165   20.7443 H         1 8MF         0.0972
     30 H8         10.6376   10.3852   25.0708 H         1 8MF         0.1824
     31 H9         10.2398   10.0045   23.3739 H         1 8MF         0.1824
@<TRIPOS>BOND
     1    1   10 1  
     2   13    1 1  
     3   14    2 ar 
     4    2   15 ar 
     5   15    3 ar 
     6    3   16 ar 
     7    3   19 1  
     8    4    5 ar 
     9    9    4 ar 
    10    4   20 1  
    11    6    5 ar 
    12    7    6 ar 
    13    6   21 1  
    14    8    7 ar 
    15    8    9 ar 
    16   10    8 1  
    17   12    9 1  
    18   10   11 1  
    19   11   12 2  
    20   13   14 ar 
    21   13   16 ar 
    22   14   22 1  
    23   15   17 1  
    24   17   18 1  
    25   18   19 1  
    26    1   23 1  
    27    1   24 1  
    28    2   25 1  
    29   12   26 1  
    30   16   27 1  
    31   18   28 1  
    32   18   29 1  
    33   21   30 1  
    34   21   31 1  
@<TRIPOS>SUBSTRUCTURE
     1 8MF         1

