### 
### Created by X-TOOL on Mon Sep 10 21:13:34 2018
### 

@<TRIPOS>MOLECULE
5y3o_ligand
   37    39     1     0     0
SMALL
GAST_HUCK


@<TRIPOS>ATOM
      1 C10         6.7620    7.6620   21.5370 C.3       1 8M9         0.1095
      2 C13         7.7210    3.9330   21.0340 C.ar      1 8M9         0.1076
      3 C15         5.4540    4.3720   20.3100 C.ar      1 8M9        -0.0142
      4 C17         9.0820    5.8790   21.9640 C.3       1 8M9        -0.0312
      5 C20         6.3040    2.0000   20.0890 C.3       1 8M9        -0.0316
      6 N01         8.6560    9.1210   23.6470 N.ar      1 8M9        -0.2449
      7 C02         9.3230    9.6510   24.6820 C.ar      1 8M9         0.1714
      8 N03         8.9370    9.4650   25.9460 N.ar      1 8M9        -0.2463
      9 C04         7.8350    8.7170   26.2210 C.ar      1 8M9         0.1253
     10 C05         7.0890    8.1300   25.1460 C.ar      1 8M9         0.0653
     11 C06         7.5410    8.3580   23.8160 C.ar      1 8M9         0.1584
     12 C07         5.8960    7.2930   24.9970 C.2       1 8M9         0.0272
     13 N08         5.7260    7.0900   23.6780 N.2       1 8M9        -0.2005
     14 N09         6.6610    7.7040   22.9880 N.pl3     1 8M9        -0.1741
     15 C11         6.6880    6.1540   21.1550 C.ar      1 8M9         0.0423
     16 C12         7.7940    5.3080   21.3740 C.ar      1 8M9         0.0084
     17 C14         6.4970    3.4700   20.4880 C.ar      1 8M9        -0.0029
     18 N16         5.5830    5.6650   20.6480 N.ar      1 8M9        -0.3265
     19 O18         8.8170    3.0650   21.2540 O.3       1 8M9        -0.3207
     20 C19         9.6950    2.8900   20.1700 C.3       1 8M9         0.0589
     21 CL1         7.3270    8.4720   27.8810 Cl        1 8M9        -0.0269
     22 N22        10.4740   10.4330   24.4250 N.pl3     1 8M9        -0.3066
     23 H1          7.7173    8.0954   21.2060 H         1 8M9         0.0783
     24 H2          5.9296    8.2155   21.0780 H         1 8M9         0.0783
     25 H3          4.5173    4.0241   19.8896 H         1 8M9         0.0643
     26 H4          9.8278    5.0764   22.0617 H         1 8M9         0.0365
     27 H5          8.8728    6.3077   22.9552 H         1 8M9         0.0365
     28 H6          9.4730    6.6640   21.3000 H         1 8M9         0.0365
     29 H7          7.2264    1.4389   20.2993 H         1 8M9         0.0369
     30 H8          6.0744    1.9387   19.0150 H         1 8M9         0.0369
     31 H9          5.4730    1.5693   20.6668 H         1 8M9         0.0369
     32 H10         5.2678    6.9091   25.7994 H         1 8M9         0.0731
     33 H11        10.5009    2.1993   20.4588 H         1 8M9         0.0577
     34 H12        10.1279    3.8612   19.8883 H         1 8M9         0.0577
     35 H13         9.1432    2.4725   19.3149 H         1 8M9         0.0577
     36 H14        10.7862   10.5868   23.4556 H         1 8M9         0.1824
     37 H15        10.9996   10.8484   25.2074 H         1 8M9         0.1824
@<TRIPOS>BOND
     1    1   14 1  
     2   15    1 1  
     3   16    2 ar 
     4    2   17 ar 
     5    2   19 1  
     6   17    3 ar 
     7    3   18 ar 
     8   16    4 1  
     9   17    5 1  
    10    6    7 ar 
    11   11    6 ar 
    12    7    8 ar 
    13    7   22 1  
    14    9    8 ar 
    15   10    9 ar 
    16    9   21 1  
    17   11   10 ar 
    18   12   10 1  
    19   14   11 1  
    20   13   12 2  
    21   14   13 1  
    22   15   16 ar 
    23   15   18 ar 
    24   19   20 1  
    25    1   23 1  
    26    1   24 1  
    27    3   25 1  
    28    4   26 1  
    29    4   27 1  
    30    4   28 1  
    31    5   29 1  
    32    5   30 1  
    33    5   31 1  
    34   12   32 1  
    35   20   33 1  
    36   20   34 1  
    37   20   35 1  
    38   22   36 1  
    39   22   37 1  
@<TRIPOS>SUBSTRUCTURE
     1 8M9         1

