### 
### Created by X-TOOL on Fri Nov  2 11:07:31 2018
### 

@<TRIPOS>MOLECULE
5y48_ligand
   12    12     1     0     0
SMALL
GAST_HUCK


@<TRIPOS>ATOM
      1 N1         -8.0940  -21.0780   -1.5590 N.2       1 URA        -0.2297
      2 C2         -6.8580  -21.4800   -2.0490 C.2       1 URA         0.2738
      3 O2         -5.8510  -21.6000   -1.2470 O.2       1 URA        -0.3742
      4 N3         -6.7030  -21.7720   -3.3800 N.am      1 URA        -0.1895
      5 C4         -7.7780  -21.6670   -4.2290 C.2       1 URA         0.2270
      6 O4         -7.5770  -21.9610   -5.4550 O.2       1 URA        -0.3824
      7 C5         -9.0330  -21.2640   -3.7260 C.3       1 URA         0.1076
      8 C6         -9.1910  -20.9620   -2.3350 C.2       1 URA         0.0452
      9 H1         -5.8119  -22.0599   -3.7308 H         1 URA         0.2267
     10 H2         -9.7406  -22.0742   -3.9558 H         1 URA         0.0811
     11 H3         -9.3198  -20.3584   -4.2806 H         1 URA         0.0811
     12 H4        -10.1509  -20.6535   -1.9236 H         1 URA         0.1333
@<TRIPOS>BOND
     1    1    2 1  
     2    1    8 2  
     3    2    3 2  
     4    2    4 am 
     5    4    5 am 
     6    5    6 2  
     7    5    7 1  
     8    7    8 1  
     9    4    9 1  
    10    7   10 1  
    11    7   11 1  
    12    8   12 1  
@<TRIPOS>SUBSTRUCTURE
     1 URA         1

