### 
### Created by X-TOOL on Mon Sep 10 21:13:34 2018
### 

@<TRIPOS>MOLECULE
5y5n_ligand
   45    47     1     0     0
SMALL
GAST_HUCK


@<TRIPOS>ATOM
      1 O8         49.0960   54.7180   19.9910 O.2       1 8NO        -0.3918
      2 C7         49.0420   53.5100   20.3460 C.2       1 8NO         0.1952
      3 N9         48.1730   52.6960   19.7320 N.am      1 8NO        -0.3022
      4 C5         49.8660   52.9740   21.3880 C.ar      1 8NO         0.0710
      5 C6         50.1110   51.5660   21.4180 C.ar      1 8NO        -0.0521
      6 C1         50.9060   51.0090   22.4160 C.ar      1 8NO        -0.0683
      7 C4         50.4450   53.7700   22.3940 C.ar      1 8NO         0.0791
      8 C3         51.2530   53.2180   23.3710 C.ar      1 8NO        -0.0337
      9 C2         51.4800   51.8290   23.3940 C.ar      1 8NO        -0.0678
     10 N10        50.1290   55.1430   22.3480 N.pl3     1 8NO        -0.2731
     11 C11        50.7400   56.1340   23.1000 C.ar      1 8NO         0.0504
     12 C16        50.0010   57.3250   23.3050 C.ar      1 8NO        -0.0120
     13 C15        50.5690   58.4050   23.9980 C.ar      1 8NO         0.0812
     14 C14        51.8410   58.2770   24.5660 C.ar      1 8NO        -0.0452
     15 C13        52.5930   57.1140   24.3310 C.ar      1 8NO        -0.0804
     16 C12        52.0310   56.0450   23.6140 C.ar      1 8NO        -0.0505
     17 O11        49.8660   59.6020   24.1110 O.3       1 8NO        -0.3190
     18 C17        48.8860   59.5100   25.1430 C.3       1 8NO         0.0796
     19 C18        48.0500   60.8050   25.2110 C.3       1 8NO         0.0088
     20 C24        46.5640   60.5110   25.0520 C.ar      1 8NO        -0.0405
     21 C23        46.1330   59.2430   24.6380 C.ar      1 8NO        -0.0603
     22 C22        44.7680   58.9970   24.4430 C.ar      1 8NO        -0.0686
     23 C21        43.8300   59.9860   24.7510 C.ar      1 8NO        -0.0687
     24 C20        44.2570   61.2630   25.1310 C.ar      1 8NO        -0.0686
     25 C19        45.6220   61.5170   25.3060 C.ar      1 8NO        -0.0603
     26 H1         48.1146   51.7341   19.9989 H         1 8NO         0.1803
     27 H2         47.5827   53.0503   19.0067 H         1 8NO         0.1803
     28 H3         49.6747   50.9275   20.6584 H         1 8NO         0.0637
     29 H4         51.0805   49.9393   22.4355 H         1 8NO         0.0527
     30 H5         51.7115   53.8547   24.1190 H         1 8NO         0.0542
     31 H6         52.0998   51.3942   24.1698 H         1 8NO         0.0621
     32 H7         49.3817   55.4340   21.7016 H         1 8NO         0.2103
     33 H8         48.9892   57.4027   22.9237 H         1 8NO         0.0449
     34 H9         52.2442   59.0710   25.1841 H         1 8NO         0.0444
     35 H10        53.6084   57.0415   24.7035 H         1 8NO         0.0559
     36 H11        52.6086   55.1409   23.4591 H         1 8NO         0.0441
     37 H12        49.3901   59.3535   26.1081 H         1 8NO         0.0636
     38 H13        48.2199   58.6597   24.9350 H         1 8NO         0.0636
     39 H14        48.3701   61.4813   24.4047 H         1 8NO         0.0452
     40 H15        48.2176   61.2895   26.1842 H         1 8NO         0.0452
     41 H16        46.8559   58.4531   24.4688 H         1 8NO         0.0557
     42 H17        44.4395   58.0402   24.0535 H         1 8NO         0.0599
     43 H18        42.7705   59.7636   24.6954 H         1 8NO         0.0559
     44 H19        43.5324   62.0535   25.2894 H         1 8NO         0.0599
     45 H20        45.9516   62.4945   25.6389 H         1 8NO         0.0557
@<TRIPOS>BOND
     1    1    2 2  
     2    2    3 am 
     3    2    4 1  
     4    4    5 ar 
     5    4    7 ar 
     6    5    6 ar 
     7    6    9 ar 
     8    7    8 ar 
     9    7   10 1  
    10    8    9 ar 
    11   10   11 1  
    12   11   12 ar 
    13   11   16 ar 
    14   12   13 ar 
    15   13   14 ar 
    16   13   17 1  
    17   14   15 ar 
    18   15   16 ar 
    19   17   18 1  
    20   18   19 1  
    21   19   20 1  
    22   20   21 ar 
    23   20   25 ar 
    24   21   22 ar 
    25   22   23 ar 
    26   23   24 ar 
    27   24   25 ar 
    28    3   26 1  
    29    3   27 1  
    30    5   28 1  
    31    6   29 1  
    32    8   30 1  
    33    9   31 1  
    34   10   32 1  
    35   12   33 1  
    36   14   34 1  
    37   15   35 1  
    38   16   36 1  
    39   18   37 1  
    40   18   38 1  
    41   19   39 1  
    42   19   40 1  
    43   21   41 1  
    44   22   42 1  
    45   23   43 1  
    46   24   44 1  
    47   25   45 1  
@<TRIPOS>SUBSTRUCTURE
     1 8NO         1

