### 
### Created by X-TOOL on Wed Jan  1 15:39:37 2020
### 

@<TRIPOS>MOLECULE
5y5t_ligand
   55    58     1     0     0
SMALL
GAST_HUCK


@<TRIPOS>ATOM
      1 C4         11.9880   -2.2480   12.1280 C.ar      1 8OR         0.0607
      2 C5         12.7280   -1.2640   12.8110 C.ar      1 8OR         0.1035
      3 C6         14.1370   -1.2130   12.5940 C.ar      1 8OR         0.1469
      4 N1         14.7040   -2.1340   11.7510 N.ar      1 8OR        -0.2398
      5 N3         12.6170   -3.1030   11.3100 N.ar      1 8OR        -0.2622
      6 CAA        21.0280    2.0410   11.8810 C.3       1 8OR         0.0582
      7 SBD        20.6860    0.8620   13.1690 S.o2      1 8OR        -0.0107
      8 OAD        21.0740    1.4710   14.4770 O.2       1 8OR        -0.1710
      9 OAE        21.3920   -0.4450   12.8950 O.2       1 8OR        -0.1710
     10 CAV        18.9580    0.5380   13.1930 C.ar      1 8OR         0.0765
     11 CAI        18.0850    1.3270   13.9440 C.ar      1 8OR        -0.0464
     12 CAG        16.7140    1.0360   13.9520 C.ar      1 8OR        -0.0360
     13 CAH        18.4910   -0.5240   12.4440 C.ar      1 8OR        -0.0464
     14 CAF        17.1250   -0.8100   12.4500 C.ar      1 8OR        -0.0360
     15 CAU        16.2120   -0.0420   13.1930 C.ar      1 8OR         0.0655
     16 NAR        14.8740   -0.2740   13.2480 N.pl3     1 8OR        -0.2534
     17 CAY        12.0340   -0.3750   13.6730 C.2       1 8OR         0.1841
     18 OAC        12.6130    0.5080   14.3130 O.2       1 8OR        -0.3881
     19 NAT        10.6620   -0.4990   13.8120 N.2       1 8OR        -0.2507
     20 CAO         9.9510   -1.4890   13.1280 C.2       1 8OR         0.0402
     21 CAJ        10.6010   -2.3740   12.2750 C.3       1 8OR         0.0648
     22 C2         13.9530   -3.0770   11.1260 C.ar      1 8OR         0.1719
     23 NAS        14.4360   -4.0010   10.2750 N.pl3     1 8OR        -0.2826
     24 CBC        15.8170   -4.5390   10.1930 C.3       1 8OR         0.0849
     25 CAN        16.7930   -3.4660    9.6860 C.3       1 8OR        -0.0241
     26 CAL        18.1620   -4.1030    9.3930 C.3       1 8OR        -0.0505
     27 CAK        18.7150   -4.7950   10.6490 C.3       1 8OR        -0.0478
     28 CAM        17.7420   -5.8480   11.2120 C.3       1 8OR        -0.0076
     29 CBB        16.3300   -5.2520   11.4760 C.3       1 8OR        -0.0004
     30 NAB        15.4230   -6.3380   11.9370 N.4       1 8OR         0.2224
     31 H1         20.5056    2.9841   12.0991 H         1 8OR         0.0466
     32 H2         20.6785    1.6427   10.9170 H         1 8OR         0.0466
     33 H3         22.1113    2.2251   11.8306 H         1 8OR         0.0466
     34 H4         18.4665    2.1626   14.5195 H         1 8OR         0.0607
     35 H5         16.0369    1.6415   14.5436 H         1 8OR         0.0539
     36 H6         19.1761   -1.1273   11.8594 H         1 8OR         0.0607
     37 H7         16.7585   -1.6466   11.8662 H         1 8OR         0.0539
     38 H8         14.3425    0.3488   13.8730 H         1 8OR         0.2182
     39 H9          8.8736   -1.5683   13.2650 H         1 8OR         0.1331
     40 H10        10.4025   -3.3905   12.6456 H         1 8OR         0.0797
     41 H11        10.1542   -2.2538   11.2770 H         1 8OR         0.0797
     42 H12        13.7629   -4.3828    9.5953 H         1 8OR         0.1882
     43 H13        15.7871   -5.3190    9.4179 H         1 8OR         0.0619
     44 H14        16.9097   -2.6867   10.4535 H         1 8OR         0.0290
     45 H15        16.3948   -3.0164    8.7644 H         1 8OR         0.0290
     46 H16        18.8645   -3.3195    9.0728 H         1 8OR         0.0266
     47 H17        18.0507   -4.8463    8.5898 H         1 8OR         0.0266
     48 H18        18.8976   -4.0333   11.4213 H         1 8OR         0.0267
     49 H19        19.6626   -5.2907   10.3916 H         1 8OR         0.0267
     50 H20        18.1467   -6.2358   12.1585 H         1 8OR         0.0320
     51 H21        17.6507   -6.6708   10.4877 H         1 8OR         0.0320
     52 H22        16.4041   -4.5023   12.2776 H         1 8OR         0.0873
     53 H23        14.5054   -5.9585   12.1101 H         1 8OR         0.1998
     54 H24        15.7858   -6.7407   12.7868 H         1 8OR         0.1998
     55 H25        15.3634   -7.0503   11.2263 H         1 8OR         0.1998
@<TRIPOS>BOND
     1    2    1 ar 
     2    1    5 ar 
     3    1   21 1  
     4    3    2 ar 
     5    2   17 1  
     6    3    4 ar 
     7   16    3 1  
     8    4   22 ar 
     9   22    5 ar 
    10    7    6 1  
    11    7    8 2  
    12    7    9 2  
    13   10    7 1  
    14   11   10 ar 
    15   13   10 ar 
    16   12   11 ar 
    17   15   12 ar 
    18   14   13 ar 
    19   15   14 ar 
    20   15   16 1  
    21   17   18 2  
    22   17   19 1  
    23   19   20 2  
    24   20   21 1  
    25   22   23 1  
    26   23   24 1  
    27   24   25 1  
    28   24   29 1  
    29   25   26 1  
    30   26   27 1  
    31   27   28 1  
    32   28   29 1  
    33   29   30 1  
    34    6   31 1  
    35    6   32 1  
    36    6   33 1  
    37   11   34 1  
    38   12   35 1  
    39   13   36 1  
    40   14   37 1  
    41   16   38 1  
    42   20   39 1  
    43   21   40 1  
    44   21   41 1  
    45   23   42 1  
    46   24   43 1  
    47   25   44 1  
    48   25   45 1  
    49   26   46 1  
    50   26   47 1  
    51   27   48 1  
    52   27   49 1  
    53   28   50 1  
    54   28   51 1  
    55   29   52 1  
    56   30   53 1  
    57   30   54 1  
    58   30   55 1  
@<TRIPOS>SUBSTRUCTURE
     1 8OR         1

