### 
### Created by X-TOOL on Wed Jan  1 15:39:38 2020
### 

@<TRIPOS>MOLECULE
5y5u_ligand
   52    56     1     0     0
SMALL
GAST_HUCK


@<TRIPOS>ATOM
      1 C4          3.7350   -7.1090   -2.2820 C.ar      1 8OU         0.0158
      2 C5          3.0700   -6.2320   -1.3880 C.ar      1 8OU         0.0970
      3 C6          1.7010   -6.4860   -1.2660 C.ar      1 8OU         0.1229
      4 N1          1.1760   -7.5520   -1.8590 N.ar      1 8OU        -0.2527
      5 N3          3.0960   -8.1420   -2.8990 N.ar      1 8OU        -0.2919
      6 CAL        -0.4190   -9.5330   -2.7570 C.3       1 8OU         0.0364
      7 CAJ        -1.3140   -8.9870   -3.7410 C.3       1 8OU        -0.0059
      8 CBA        -0.9640   -9.5100   -5.1760 C.3       1 8OU         0.0590
      9 OAC        -1.7860   -8.7860   -6.1190 O.3       1 8OU        -0.3916
     10 CAK         0.4700   -9.3000   -5.5720 C.3       1 8OU        -0.0059
     11 CAM         1.2980  -10.0020   -4.4780 C.3       1 8OU         0.0364
     12 NBB         0.9920   -9.3150   -3.2180 N.pl3     1 8OU        -0.2792
     13 C2          1.7870   -8.3680   -2.6790 C.ar      1 8OU         0.1612
     14 CAF         5.0900   -6.9310   -2.5590 C.2       1 8OU        -0.0300
     15 CAD         5.7890   -5.8880   -1.9580 C.2       1 8OU         0.0615
     16 NAR         5.1710   -5.0620   -1.1330 N.am      1 8OU        -0.2188
     17 CAV         3.8100   -5.2010   -0.8230 C.2       1 8OU         0.2257
     18 OAB         3.3260   -4.3860   -0.0580 O.2       1 8OU        -0.3996
     19 NAQ         0.7410   -6.0540   -0.4630 N.pl3     1 8OU        -0.2855
     20 CAS         0.0470   -4.9600   -0.1410 C.3       1 8OU         0.0751
     21 CAI        -1.0870   -5.7870   -0.4640 C.3       1 8OU         0.0015
     22 CAW        -2.3840   -5.5820   -0.3070 C.2       1 8OU        -0.0241
     23 CAH        -3.4460   -6.2530   -0.7260 C.2       1 8OU        -0.0045
     24 NAN        -4.5210   -5.5870   -0.3000 N.2       1 8OU        -0.2280
     25 NBC        -4.1700   -4.5890    0.3290 N.pl3     1 8OU        -0.2181
     26 CAA        -5.0840   -3.5970    0.9630 C.3       1 8OU         0.0546
     27 CAY        -2.8420   -4.5540    0.3480 C.2       1 8OU         0.0676
     28 CAG        -1.9450   -3.7450    0.8400 C.2       1 8OU        -0.0447
     29 CAE        -0.5940   -4.0390    0.7200 C.2       1 8OU        -0.0512
     30 H1         -0.6085  -10.6104   -2.6413 H         1 8OU         0.0529
     31 H2         -0.5758   -9.0275   -1.7927 H         1 8OU         0.0529
     32 H3         -1.2342   -7.8900   -3.7294 H         1 8OU         0.0310
     33 H4         -2.3441   -9.2824   -3.4926 H         1 8OU         0.0310
     34 H5         -1.1908  -10.5852   -5.2253 H         1 8OU         0.0594
     35 H6         -1.5932   -9.0846   -7.0000 H         1 8OU         0.2098
     36 H7          0.7075   -8.2265   -5.6063 H         1 8OU         0.0310
     37 H8          0.6687   -9.7512   -6.5553 H         1 8OU         0.0310
     38 H9          2.3716   -9.9214   -4.7036 H         1 8OU         0.0529
     39 H10         1.0161  -11.0631   -4.4103 H         1 8OU         0.0529
     40 H11         5.6003   -7.6065   -3.2440 H         1 8OU         0.0325
     41 H12         6.8488   -5.7526   -2.1687 H         1 8OU         0.1247
     42 H13         5.6892   -4.3148   -0.7167 H         1 8OU         0.2543
     43 H14         0.4144   -6.8390    0.1184 H         1 8OU         0.1900
     44 H15         0.3581   -4.2671   -0.9367 H         1 8OU         0.0767
     45 H16        -0.8991   -6.7190    0.0891 H         1 8OU         0.0408
     46 H17        -0.9786   -5.9726   -1.5428 H         1 8OU         0.0408
     47 H18        -3.4427   -7.1736   -1.3078 H         1 8OU         0.0625
     48 H19        -4.4897   -2.8129    1.4549 H         1 8OU         0.0588
     49 H20        -5.7131   -4.1031    1.7100 H         1 8OU         0.0588
     50 H21        -5.7237   -3.1427    0.1920 H         1 8OU         0.0588
     51 H22        -2.2579   -2.8338    1.3477 H         1 8OU         0.0442
     52 H23         0.0662   -3.4815    1.3828 H         1 8OU         0.0693
@<TRIPOS>BOND
     1    1    2 ar 
     2    5    1 ar 
     3    1   14 1  
     4    3    2 ar 
     5    2   17 1  
     6    4    3 ar 
     7    3   19 1  
     8   13    4 ar 
     9   13    5 ar 
    10    6    7 1  
    11   12    6 1  
    12    7    8 1  
    13    8    9 1  
    14   10    8 1  
    15   11   10 1  
    16   12   11 1  
    17   12   13 1  
    18   14   15 2  
    19   15   16 1  
    20   16   17 am 
    21   17   18 2  
    22   19   20 1  
    23   20   21 1  
    24   20   29 1  
    25   21   22 1  
    26   22   23 1  
    27   22   27 2  
    28   23   24 2  
    29   24   25 1  
    30   25   26 1  
    31   25   27 1  
    32   27   28 1  
    33   28   29 2  
    34    6   30 1  
    35    6   31 1  
    36    7   32 1  
    37    7   33 1  
    38    8   34 1  
    39    9   35 1  
    40   10   36 1  
    41   10   37 1  
    42   11   38 1  
    43   11   39 1  
    44   14   40 1  
    45   15   41 1  
    46   16   42 1  
    47   19   43 1  
    48   20   44 1  
    49   21   45 1  
    50   21   46 1  
    51   23   47 1  
    52   26   48 1  
    53   26   49 1  
    54   26   50 1  
    55   28   51 1  
    56   29   52 1  
@<TRIPOS>SUBSTRUCTURE
     1 8OU         1

