### 
### Created by X-TOOL on Wed Jan  1 15:39:35 2020
### 

@<TRIPOS>MOLECULE
5y6d_ligand
   31    31     1     0     0
SMALL
GAST_HUCK


@<TRIPOS>ATOM
      1 C01       122.0700   38.5350  132.3730 C.3       1 8PL         0.1260
      2 C02       121.9340   37.0640  132.0040 C.ar      1 8PL        -0.0088
      3 C03       120.7240   36.4130  132.1670 C.ar      1 8PL        -0.0581
      4 C04       120.6220   35.0700  131.8480 C.ar      1 8PL        -0.0346
      5 C05       121.7390   34.3800  131.4040 C.ar      1 8PL         0.1250
      6 C06       122.9540   35.0340  131.2590 C.ar      1 8PL        -0.0346
      7 C07       123.0570   36.3770  131.5590 C.ar      1 8PL        -0.0581
      8 F08       121.6100   33.0520  131.1090 F         1 8PL        -0.1891
      9 N09       121.0140   39.4190  131.9710 N.am      1 8PL        -0.2609
     10 C10       121.3910   40.6390  131.3360 C.2       1 8PL         0.1829
     11 O11       122.5370   40.9040  131.1260 O.2       1 8PL        -0.3965
     12 C12       120.2850   41.5980  131.0020 C.3       1 8PL         0.0548
     13 C13       120.3440   42.6830  132.0750 C.3       1 8PL         0.0101
     14 S14       120.4270   41.9970  133.7600 S.3       1 8PL        -0.1756
     15 C15       120.5720   42.2430  129.6610 C.3       1 8PL        -0.0446
     16 C16       122.0720   38.5800  133.9070 C.2       1 8PL         0.0716
     17 O17       121.0310   38.8820  134.5410 O.co2     1 8PL        -0.5643
     18 O18       123.1150   38.2890  134.5520 O.co2     1 8PL        -0.5643
     19 H1        123.0192   38.9123  131.9648 H         1 8PL         0.0879
     20 H2        119.8612   36.9514  132.5422 H         1 8PL         0.0551
     21 H3        119.6709   34.5592  131.9452 H         1 8PL         0.0587
     22 H4        123.8236   34.4892  130.9096 H         1 8PL         0.0587
     23 H5        124.0049   36.8912  131.4486 H         1 8PL         0.0551
     24 H6        120.0537   39.1893  132.1294 H         1 8PL         0.1900
     25 H7        119.3077   41.0933  130.9915 H         1 8PL         0.0543
     26 H8        119.4430   43.3088  131.9933 H         1 8PL         0.0401
     27 H9        121.2370   43.3015  131.9020 H         1 8PL         0.0401
     28 H10       120.4640   42.7516  134.4273 H         1 8PL         0.1018
     29 H11       120.5348   41.4785  128.8710 H         1 8PL         0.0257
     30 H12       121.5718   42.7012  129.6810 H         1 8PL         0.0257
     31 H13       119.8177   43.0174  129.4576 H         1 8PL         0.0257
@<TRIPOS>BOND
     1    1    2 1  
     2    1    9 1  
     3    1   16 1  
     4    2    3 ar 
     5    2    7 ar 
     6    3    4 ar 
     7    4    5 ar 
     8    5    6 ar 
     9    5    8 1  
    10    6    7 ar 
    11    9   10 am 
    12   10   11 2  
    13   10   12 1  
    14   12   13 1  
    15   12   15 1  
    16   13   14 1  
    17   16   17 ar 
    18   16   18 ar 
    19    1   19 1  
    20    3   20 1  
    21    4   21 1  
    22    6   22 1  
    23    7   23 1  
    24    9   24 1  
    25   12   25 1  
    26   13   26 1  
    27   13   27 1  
    28   14   28 1  
    29   15   29 1  
    30   15   30 1  
    31   15   31 1  
@<TRIPOS>SUBSTRUCTURE
     1 8PL         1

