### 
### Created by X-TOOL on Wed Jan  1 15:39:34 2020
### 

@<TRIPOS>MOLECULE
5y6e_ligand
   32    32     1     0     0
SMALL
GAST_HUCK


@<TRIPOS>ATOM
      1 C13       -10.0320  -17.3550   -2.0440 C.3       1 8PO         0.0101
      2 O18        -8.1850  -16.5150    2.0920 O.co2     1 8PO        -0.5644
      3 C12        -8.9010  -18.3670   -1.8390 C.3       1 8PO         0.0548
      4 C10        -7.7290  -17.6140   -1.2640 C.2       1 8PO         0.1828
      5 C01        -6.2970  -17.1180    0.7120 C.3       1 8PO         0.1228
      6 C02        -5.3750  -17.9320    1.5970 C.ar      1 8PO        -0.0157
      7 C03        -4.0220  -17.6280    1.5960 C.ar      1 8PO        -0.0649
      8 C04        -3.1710  -18.3170    2.4320 C.ar      1 8PO        -0.0395
      9 C05        -3.6620  -19.3220    3.2580 C.ar      1 8PO         0.0807
     10 C06        -5.0200  -19.6160    3.2580 C.ar      1 8PO        -0.0395
     11 C07        -5.8760  -18.9270    2.4180 C.ar      1 8PO        -0.0649
     12 O08        -2.7680  -20.0270    4.0780 O.3       1 8PO        -0.3375
     13 N09        -7.3510  -17.8720    0.0860 N.am      1 8PO        -0.2618
     14 O11        -7.1520  -16.8290   -1.9260 O.2       1 8PO        -0.3965
     15 S14       -10.4930  -16.6130   -0.4380 S.3       1 8PO        -0.1756
     16 C15        -8.4710  -18.9720   -3.1910 C.3       1 8PO        -0.0446
     17 C16        -7.0550  -16.1730    1.6590 C.2       1 8PO         0.0704
     18 O17        -6.5730  -15.0710    2.0090 O.co2     1 8PO        -0.5644
     19 H1        -10.9058  -17.8654   -2.4752 H         1 8PO         0.0401
     20 H2         -9.6947  -16.5633   -2.7292 H         1 8PO         0.0401
     21 H3         -9.2236  -19.1653   -1.1544 H         1 8PO         0.0543
     22 H4         -5.7112  -16.5737   -0.0433 H         1 8PO         0.0866
     23 H5         -3.6368  -16.8539    0.9422 H         1 8PO         0.0533
     24 H6         -2.1145  -18.0747    2.4459 H         1 8PO         0.0526
     25 H7         -5.4084  -20.3849    3.9160 H         1 8PO         0.0526
     26 H8         -6.9334  -19.1651    2.4029 H         1 8PO         0.0533
     27 H9         -3.0182  -19.9144    4.9875 H         1 8PO         0.2459
     28 H10        -7.8236  -18.5850    0.6040 H         1 8PO         0.1898
     29 H11       -11.2374  -15.9479   -0.5778 H         1 8PO         0.1018
     30 H12        -7.6591  -19.6959   -3.0271 H         1 8PO         0.0257
     31 H13        -8.1184  -18.1699   -3.8561 H         1 8PO         0.0257
     32 H14        -9.3288  -19.4817   -3.6540 H         1 8PO         0.0257
@<TRIPOS>BOND
     1    3    1 1  
     2    1   15 1  
     3   17    2 ar 
     4    4    3 1  
     5    3   16 1  
     6   13    4 am 
     7    4   14 2  
     8    5    6 1  
     9    5   13 1  
    10    5   17 1  
    11    6    7 ar 
    12    6   11 ar 
    13    7    8 ar 
    14    8    9 ar 
    15    9   10 ar 
    16    9   12 1  
    17   10   11 ar 
    18   17   18 ar 
    19    1   19 1  
    20    1   20 1  
    21    3   21 1  
    22    5   22 1  
    23    7   23 1  
    24    8   24 1  
    25   10   25 1  
    26   11   26 1  
    27   12   27 1  
    28   13   28 1  
    29   15   29 1  
    30   16   30 1  
    31   16   31 1  
    32   16   32 1  
@<TRIPOS>SUBSTRUCTURE
     1 8PO         1

