### 
### Created by X-TOOL on Wed Jan  1 15:39:35 2020
### 

@<TRIPOS>MOLECULE
5y6k_ligand
   59    60     1     0     0
SMALL
GAST_HUCK


@<TRIPOS>ATOM
      1 O29        10.9060   14.3140    2.2270 O.2       1 8R6        -0.3822
      2 C27        10.4250   13.1470    2.3760 C.2       1 8R6         0.2584
      3 O26        11.2510   12.1280    2.8270 O.3       1 8R6        -0.2172
      4 C25        10.7930   10.8390    3.0160 C.ar      1 8R6         0.1265
      5 C33        11.6430    9.8470    3.4870 C.ar      1 8R6        -0.0070
      6 C32        11.1540    8.5940    3.6720 C.ar      1 8R6         0.0313
      7 N34        11.9870    7.6610    4.0750 N.pl3     1 8R6        -0.3369
      8 C31         9.8430    8.2620    3.4050 C.ar      1 8R6        -0.0500
      9 C30         8.9400    9.1780    2.9340 C.ar      1 8R6        -0.0673
     10 C24         9.3790   10.4620    2.7260 C.ar      1 8R6         0.0095
     11 C23         8.4700   11.4790    2.2460 C.2       1 8R6        -0.0327
     12 C28         7.0570   11.1090    1.9710 C.3       1 8R6        -0.0327
     13 C22         8.9840   12.8170    2.0630 C.2       1 8R6         0.0476
     14 C21         8.0670   13.8910    1.5900 C.3       1 8R6         0.0675
     15 C19         7.9970   14.8780    2.7300 C.2       1 8R6         0.1835
     16 O20         8.8450   15.7990    2.8240 O.2       1 8R6        -0.3950
     17 N18         7.0550   14.6930    3.5940 N.am      1 8R6        -0.2858
     18 C17         6.2210   13.5150    3.5960 C.3       1 8R6         0.0310
     19 C16         6.4700   12.6330    4.7920 C.3       1 8R6        -0.0325
     20 C15         6.9290   13.4140    5.9880 C.3       1 8R6        -0.0445
     21 C14         7.2380   12.6140    7.2330 C.3       1 8R6         0.0027
     22 C6          8.4170   11.6630    7.3110 C.3       1 8R6         0.0346
     23 C7          8.2410   10.3700    6.5030 C.2       1 8R6         0.0846
     24 O8          7.2760   10.2360    5.7130 O.co2     1 8R6        -0.5643
     25 O9          9.0610    9.4080    6.6690 O.co2     1 8R6        -0.5643
     26 N1          9.6800   12.3260    7.0350 N.4       1 8R6         0.2718
     27 C2          9.8140   12.8070    5.6650 C.3       1 8R6         0.0241
     28 C3          9.9920   14.2960    5.6440 C.2       1 8R6         0.0814
     29 O4          9.0940   15.0250    5.1970 O.co2     1 8R6        -0.5645
     30 O5         11.0440   14.7820    6.0600 O.co2     1 8R6        -0.5645
     31 C10        10.7530   11.3480    7.3460 C.3       1 8R6         0.0241
     32 C11        12.0950   11.5980    6.7520 C.2       1 8R6         0.0814
     33 O12        12.8560   10.6780    6.6970 O.co2     1 8R6        -0.5645
     34 O13        12.4380   12.6930    6.3200 O.co2     1 8R6        -0.5645
     35 H1         12.6815   10.0697    3.7037 H         1 8R6         0.0451
     36 H2         11.6497    6.6995    4.2254 H         1 8R6         0.1733
     37 H3         12.9772    7.8912    4.2405 H         1 8R6         0.1733
     38 H4          9.5159    7.2423    3.5733 H         1 8R6         0.0459
     39 H5          7.9124    8.8982    2.7321 H         1 8R6         0.0578
     40 H6          6.9097   10.0401    2.1847 H         1 8R6         0.0393
     41 H7          6.8251   11.3070    0.9141 H         1 8R6         0.0393
     42 H8          6.3904   11.7060    2.6107 H         1 8R6         0.0393
     43 H9          7.0700   13.4799    1.3733 H         1 8R6         0.0613
     44 H10         8.4695   14.3724    0.6865 H         1 8R6         0.0613
     45 H11         6.8971   15.3940    4.2895 H         1 8R6         0.1851
     46 H12         6.4252   12.9367    2.6828 H         1 8R6         0.0520
     47 H13         5.1669   13.8292    3.6030 H         1 8R6         0.0520
     48 H14         7.2436   11.8952    4.5329 H         1 8R6         0.0285
     49 H15         5.5361   12.1108    5.0474 H         1 8R6         0.0285
     50 H16         6.1378   14.1351    6.2410 H         1 8R6         0.0269
     51 H17         7.8424   13.9567    5.7033 H         1 8R6         0.0269
     52 H18         6.3423   12.0099    7.4398 H         1 8R6         0.0339
     53 H19         7.3808   13.3466    8.0410 H         1 8R6         0.0339
     54 H20         8.4688   11.3457    8.3629 H         1 8R6         0.1026
     55 H21         9.7654   13.1201    7.6500 H         1 8R6         0.2079
     56 H22         8.9086   12.5431    5.0989 H         1 8R6         0.0990
     57 H23        10.6896   12.3316    5.1988 H         1 8R6         0.0990
     58 H24        10.4142   10.3622    6.9947 H         1 8R6         0.0990
     59 H25        10.8740   11.3260    8.4391 H         1 8R6         0.0990
@<TRIPOS>BOND
     1    1    2 2  
     2    2    3 1  
     3    2   13 1  
     4    3    4 1  
     5    4    5 ar 
     6    4   10 ar 
     7    5    6 ar 
     8    6    7 1  
     9    6    8 ar 
    10    8    9 ar 
    11    9   10 ar 
    12   10   11 1  
    13   11   12 1  
    14   11   13 2  
    15   13   14 1  
    16   14   15 1  
    17   15   16 2  
    18   15   17 am 
    19   17   18 1  
    20   18   19 1  
    21   19   20 1  
    22   20   21 1  
    23   21   22 1  
    24   22   23 1  
    25   22   26 1  
    26   23   24 ar 
    27   23   25 ar 
    28   26   27 1  
    29   26   31 1  
    30   27   28 1  
    31   28   29 ar 
    32   28   30 ar 
    33   31   32 1  
    34   32   33 ar 
    35   32   34 ar 
    36    5   35 1  
    37    7   36 1  
    38    7   37 1  
    39    8   38 1  
    40    9   39 1  
    41   12   40 1  
    42   12   41 1  
    43   12   42 1  
    44   14   43 1  
    45   14   44 1  
    46   17   45 1  
    47   18   46 1  
    48   18   47 1  
    49   19   48 1  
    50   19   49 1  
    51   20   50 1  
    52   20   51 1  
    53   21   52 1  
    54   21   53 1  
    55   22   54 1  
    56   26   55 1  
    57   27   56 1  
    58   27   57 1  
    59   31   58 1  
    60   31   59 1  
@<TRIPOS>SUBSTRUCTURE
     1 8R6         1

