### 
### Created by X-TOOL on Mon Aug  2 16:17:09 2021
### 

@<TRIPOS>MOLECULE
5y7h_ligand
   39    40     1     0     0
SMALL
GAST_HUCK


@<TRIPOS>ATOM
      1 C10        50.2580   62.3130   50.8390 C.2       1 MOL         0.1862
      2 C13        51.5760   62.4560   48.6820 C.3       1 MOL         0.1227
      3 C17        49.1040   61.8660   48.6730 C.3       1 MOL         0.0565
      4 C01        49.9980   61.2440   57.8720 C.ar      1 MOL         0.1560
      5 C02        51.0450   60.4900   57.3680 C.ar      1 MOL        -0.0030
      6 C03        51.3110   60.4900   56.0120 C.ar      1 MOL         0.1274
      7 C04        50.5380   61.2500   55.1500 C.ar      1 MOL        -0.0094
      8 C05        49.4880   62.0050   55.6540 C.ar      1 MOL        -0.0298
      9 C06        49.2210   62.0020   57.0140 C.ar      1 MOL         0.1544
     10 C07        50.8220   61.2520   53.6460 C.3       1 MOL         0.0243
     11 C08        51.0950   62.6790   53.1620 C.3       1 MOL         0.0010
     12 C09        51.4830   62.6670   51.6820 C.3       1 MOL         0.0820
     13 N11        50.3240   62.2140   49.3880 N.am      1 MOL        -0.2523
     14 O12        49.2230   62.1080   51.3810 O.2       1 MOL        -0.3965
     15 C14        51.3400   62.6050   47.1760 C.2       1 MOL         0.1988
     16 N15        50.2190   61.9380   46.5450 N.am      1 MOL        -0.2833
     17 C16        49.3410   61.1300   47.3650 C.3       1 MOL         0.0514
     18 O18        52.0700   63.2720   46.5250 O.2       1 MOL        -0.3948
     19 N19        52.1680   63.2700   53.9460 N.4       1 MOL         0.2238
     20 F20        48.1910   62.7450   57.5120 F         1 MOL        -0.1895
     21 F21        49.7300   61.2440   59.2100 F         1 MOL        -0.1911
     22 F22        52.3430   59.7390   55.5320 F         1 MOL        -0.1934
     23 H1         52.2565   61.6097   48.8569 H         1 MOL         0.0765
     24 H2         52.0329   63.3795   49.0671 H         1 MOL         0.0765
     25 H3         48.5557   62.7939   48.4530 H         1 MOL         0.0544
     26 H4         48.4926   61.2245   49.3246 H         1 MOL         0.0544
     27 H5         51.6572   59.8984   58.0390 H         1 MOL         0.0562
     28 H6         48.8763   62.5975   54.9833 H         1 MOL         0.0522
     29 H7         49.9503   60.8473   53.1109 H         1 MOL         0.0467
     30 H8         51.7018   60.6243   53.4414 H         1 MOL         0.0467
     31 H9         50.1832   63.2810   53.2890 H         1 MOL         0.0898
     32 H10        51.8535   63.6612   51.3917 H         1 MOL         0.0560
     33 H11        52.2718   61.9187   51.5155 H         1 MOL         0.0560
     34 H12        50.0552   62.0338   45.5632 H         1 MOL         0.1852
     35 H13        48.3837   60.9757   46.8456 H         1 MOL         0.0540
     36 H14        49.8106   60.1557   47.5655 H         1 MOL         0.0540
     37 H15        51.9084   63.2760   54.9200 H         1 MOL         0.2000
     38 H16        52.3296   64.2153   53.6356 H         1 MOL         0.2000
     39 H17        53.0096   62.7283   53.8259 H         1 MOL         0.2000
@<TRIPOS>BOND
     1   12    1 1  
     2    1   13 am 
     3    1   14 2  
     4   13    2 1  
     5    2   15 1  
     6   13    3 1  
     7    3   17 1  
     8    5    4 ar 
     9    9    4 ar 
    10    4   21 1  
    11    6    5 ar 
    12    7    6 ar 
    13    6   22 1  
    14    7    8 ar 
    15   10    7 1  
    16    8    9 ar 
    17    9   20 1  
    18   11   10 1  
    19   11   12 1  
    20   11   19 1  
    21   15   16 am 
    22   15   18 2  
    23   16   17 1  
    24    2   23 1  
    25    2   24 1  
    26    3   25 1  
    27    3   26 1  
    28    5   27 1  
    29    8   28 1  
    30   10   29 1  
    31   10   30 1  
    32   11   31 1  
    33   12   32 1  
    34   12   33 1  
    35   16   34 1  
    36   17   35 1  
    37   17   36 1  
    38   19   37 1  
    39   19   38 1  
    40   19   39 1  
@<TRIPOS>SUBSTRUCTURE
     1 MOL         1

