### 
### Created by X-TOOL on Mon Aug  2 16:12:20 2021
### 

@<TRIPOS>MOLECULE
5y7j_ligand
   55    56     1     0     0
SMALL
GAST_HUCK


@<TRIPOS>ATOM
      1 C10        42.9600   12.8950   33.4300 C.2       1 MOL         0.1865
      2 C13        41.0360   11.5730   32.2920 C.3       1 MOL         0.1567
      3 C17        43.2930   10.4940   32.6910 C.3       1 MOL         0.0569
      4 C26        41.2980   14.1400   28.6280 C.3       1 MOL        -0.0363
      5 C28        39.2510   12.8390   27.9500 C.3       1 MOL        -0.0363
      6 C01        44.9340   20.0130   32.9730 C.ar      1 MOL         0.1560
      7 C02        43.5900   19.8900   32.6390 C.ar      1 MOL        -0.0030
      8 C03        43.0350   18.6210   32.4230 C.ar      1 MOL         0.1274
      9 C04        43.8350   17.4840   32.5370 C.ar      1 MOL        -0.0094
     10 C05        45.1820   17.6080   32.8790 C.ar      1 MOL        -0.0298
     11 C06        45.7330   18.8760   33.0940 C.ar      1 MOL         0.1544
     12 C07        43.2230   16.0630   32.3080 C.3       1 MOL         0.0243
     13 C08        43.0430   15.4070   33.6860 C.3       1 MOL         0.0010
     14 C09        42.1140   14.1800   33.5830 C.3       1 MOL         0.0820
     15 N11        42.4050   11.6510   32.8000 N.am      1 MOL        -0.2474
     16 O12        44.0850   12.8810   33.8140 O.2       1 MOL        -0.3965
     17 C14        40.3900   10.3180   32.7350 C.2       1 MOL         0.2042
     18 N15        41.1760    9.0980   32.7230 N.am      1 MOL        -0.2830
     19 C16        42.5970    9.1520   32.2800 C.3       1 MOL         0.0515
     20 O18        39.2500   10.3110   33.0810 O.2       1 MOL        -0.3944
     21 N19        42.4610   16.3550   34.6090 N.4       1 MOL         0.2238
     22 F20        47.0550   19.0000   33.4230 F         1 MOL        -0.1895
     23 F21        45.4720   21.2520   33.1830 F         1 MOL        -0.1911
     24 F22        41.7160   18.5030   32.0950 F         1 MOL        -0.1934
     25 C23        41.1650   11.5270   30.7480 C.3       1 MOL         0.0886
     26 O24        40.2940   12.4860   30.1090 O.3       1 MOL        -0.3695
     27 C25        40.5860   12.7720   28.7110 C.3       1 MOL         0.0615
     28 C27        41.4640   11.7040   28.0430 C.3       1 MOL        -0.0363
     29 H1         40.4472   12.4427   32.6188 H         1 MOL         0.0826
     30 H2         43.7742   10.3417   33.6683 H         1 MOL         0.0544
     31 H3         44.0598   10.7240   31.9366 H         1 MOL         0.0544
     32 H4         41.5260   14.3715   27.5771 H         1 MOL         0.0257
     33 H5         42.2329   14.1025   29.2063 H         1 MOL         0.0257
     34 H6         40.6422   14.9204   29.0414 H         1 MOL         0.0257
     35 H7         38.7453   11.8640   28.0102 H         1 MOL         0.0257
     36 H8         39.4419   13.0885   26.8958 H         1 MOL         0.0257
     37 H9         38.6109   13.6123   28.3998 H         1 MOL         0.0257
     38 H10        42.9714   20.7753   32.5456 H         1 MOL         0.0562
     39 H11        45.8006   16.7234   32.9780 H         1 MOL         0.0522
     40 H12        43.9021   15.4572   31.6901 H         1 MOL         0.0467
     41 H13        42.2490   16.1508   31.8043 H         1 MOL         0.0467
     42 H14        44.0259   15.0873   34.0624 H         1 MOL         0.0898
     43 H15        41.5017   14.1080   34.4939 H         1 MOL         0.0560
     44 H16        41.4573   14.2915   32.7076 H         1 MOL         0.0560
     45 H17        40.7681    8.2309   33.0089 H         1 MOL         0.1852
     46 H18        43.1432    8.3145   32.7384 H         1 MOL         0.0540
     47 H19        42.6307    9.0561   31.1847 H         1 MOL         0.0540
     48 H20        43.0604   17.1619   34.6843 H         1 MOL         0.2000
     49 H21        42.3619   15.9244   35.5150 H         1 MOL         0.2000
     50 H22        41.5549   16.6398   34.2714 H         1 MOL         0.2000
     51 H23        40.9012   10.5180   30.3984 H         1 MOL         0.0609
     52 H24        42.2056   11.7508   30.4706 H         1 MOL         0.0609
     53 H25        42.4266   11.6378   28.5713 H         1 MOL         0.0257
     54 H26        41.6404   11.9788   26.9926 H         1 MOL         0.0257
     55 H27        40.9541   10.7303   28.0866 H         1 MOL         0.0257
@<TRIPOS>BOND
     1    1   14 1  
     2   15    1 am 
     3    1   16 2  
     4    2   15 1  
     5    2   17 1  
     6   25    2 1  
     7   15    3 1  
     8    3   19 1  
     9   27    4 1  
    10   27    5 1  
    11    7    6 ar 
    12   11    6 ar 
    13    6   23 1  
    14    8    7 ar 
    15    9    8 ar 
    16    8   24 1  
    17    9   10 ar 
    18   12    9 1  
    19   10   11 ar 
    20   11   22 1  
    21   13   12 1  
    22   14   13 1  
    23   13   21 1  
    24   17   18 am 
    25   17   20 2  
    26   18   19 1  
    27   26   25 1  
    28   26   27 1  
    29   27   28 1  
    30    2   29 1  
    31    3   30 1  
    32    3   31 1  
    33    4   32 1  
    34    4   33 1  
    35    4   34 1  
    36    5   35 1  
    37    5   36 1  
    38    5   37 1  
    39    7   38 1  
    40   10   39 1  
    41   12   40 1  
    42   12   41 1  
    43   13   42 1  
    44   14   43 1  
    45   14   44 1  
    46   18   45 1  
    47   19   46 1  
    48   19   47 1  
    49   21   48 1  
    50   21   49 1  
    51   21   50 1  
    52   25   51 1  
    53   25   52 1  
    54   28   53 1  
    55   28   54 1  
    56   28   55 1  
@<TRIPOS>SUBSTRUCTURE
     1 MOL         1

