### 
### Created by X-TOOL on Mon Aug  2 16:12:21 2021
### 

@<TRIPOS>MOLECULE
5y7k_ligand
   55    56     1     0     0
SMALL
GAST_HUCK


@<TRIPOS>ATOM
      1 C10        47.6530  -17.2050   49.5370 C.2       1 MOL         0.1865
      2 C13        45.4230  -16.1890   50.2700 C.3       1 MOL         0.1567
      3 C17        46.2100  -18.3250   51.3560 C.3       1 MOL         0.0569
      4 C26        47.6980  -13.0340   50.8550 C.3       1 MOL        -0.0363
      5 C28        47.7880  -14.7890   52.5970 C.3       1 MOL        -0.0363
      6 C01        54.5480  -16.7110   47.4660 C.ar      1 MOL         0.1560
      7 C02        54.4060  -16.4360   48.8200 C.ar      1 MOL        -0.0030
      8 C03        53.1390  -16.3970   49.3950 C.ar      1 MOL         0.1274
      9 C04        52.0160  -16.6280   48.6130 C.ar      1 MOL        -0.0094
     10 C05        52.1560  -16.9080   47.2560 C.ar      1 MOL        -0.0298
     11 C06        53.4260  -16.9480   46.6810 C.ar      1 MOL         0.1544
     12 C07        50.5880  -16.6060   49.2360 C.3       1 MOL         0.0243
     13 C08        50.1150  -18.0720   49.1580 C.3       1 MOL         0.0010
     14 C09        48.6910  -18.3610   49.7040 C.3       1 MOL         0.0820
     15 N11        46.4230  -17.2380   50.3940 N.am      1 MOL        -0.2474
     16 O12        47.7950  -16.3310   48.7580 O.2       1 MOL        -0.3965
     17 C14        44.1460  -16.8620   49.8610 C.2       1 MOL         0.2042
     18 N15        43.8250  -18.1620   50.4490 N.am      1 MOL        -0.2830
     19 C16        44.7210  -18.7770   51.4450 C.3       1 MOL         0.0515
     20 O18        43.4230  -16.3580   49.0690 O.2       1 MOL        -0.3944
     21 N19        51.0070  -18.8760   49.9440 N.4       1 MOL         0.2238
     22 F20        53.5630  -17.2160   45.3630 F         1 MOL        -0.1895
     23 F21        55.8040  -16.7450   46.9200 F         1 MOL        -0.1911
     24 F22        53.0340  -16.1240   50.7280 F         1 MOL        -0.1934
     25 C23        45.2260  -15.4980   51.6380 C.3       1 MOL         0.0886
     26 O24        45.6440  -14.1290   51.5010 O.3       1 MOL        -0.3695
     27 C25        46.9110  -13.6890   52.0200 C.3       1 MOL         0.0615
     28 C27        46.6620  -12.6470   53.1020 C.3       1 MOL        -0.0363
     29 H1         45.7296  -15.4495   49.5157 H         1 MOL         0.0826
     30 H2         46.5319  -17.9813   52.3501 H         1 MOL         0.0544
     31 H3         46.8204  -19.1877   51.0509 H         1 MOL         0.0544
     32 H4         48.6749  -12.6863   51.2223 H         1 MOL         0.0257
     33 H5         47.1282  -12.1787   50.4628 H         1 MOL         0.0257
     34 H6         47.8492  -13.7724   50.0538 H         1 MOL         0.0257
     35 H7         47.2615  -15.2789   53.4294 H         1 MOL         0.0257
     36 H8         48.7289  -14.3532   52.9641 H         1 MOL         0.0257
     37 H9         48.0079  -15.5307   51.8150 H         1 MOL         0.0257
     38 H10        55.2831  -16.2515   49.4298 H         1 MOL         0.0562
     39 H11        51.2787  -17.0947   46.6472 H         1 MOL         0.0522
     40 H12        49.9207  -15.9501   48.6577 H         1 MOL         0.0467
     41 H13        50.6239  -16.2633   50.2806 H         1 MOL         0.0467
     42 H14        50.1540  -18.3857   48.1044 H         1 MOL         0.0898
     43 H15        48.3004  -19.2445   49.1778 H         1 MOL         0.0560
     44 H16        48.7796  -18.5831   50.7777 H         1 MOL         0.0560
     45 H17        42.9901  -18.6381   50.1729 H         1 MOL         0.1852
     46 H18        44.3454  -18.5209   52.4467 H         1 MOL         0.0540
     47 H19        44.6863  -19.8679   51.3082 H         1 MOL         0.0540
     48 H20        51.9544  -18.7291   49.6326 H         1 MOL         0.2000
     49 H21        50.7652  -19.8487   49.8370 H         1 MOL         0.2000
     50 H22        50.9280  -18.6149   50.9144 H         1 MOL         0.2000
     51 H23        45.8357  -16.0010   52.4030 H         1 MOL         0.0609
     52 H24        44.1660  -15.5386   51.9290 H         1 MOL         0.0609
     53 H25        46.0280  -11.8438   52.6985 H         1 MOL         0.0257
     54 H26        47.6225  -12.2249   53.4326 H         1 MOL         0.0257
     55 H27        46.1556  -13.1195   53.9566 H         1 MOL         0.0257
@<TRIPOS>BOND
     1    1   14 1  
     2   15    1 am 
     3    1   16 2  
     4    2   15 1  
     5    2   17 1  
     6   25    2 1  
     7   15    3 1  
     8    3   19 1  
     9   27    4 1  
    10   27    5 1  
    11    7    6 ar 
    12   11    6 ar 
    13    6   23 1  
    14    8    7 ar 
    15    9    8 ar 
    16    8   24 1  
    17    9   10 ar 
    18   12    9 1  
    19   10   11 ar 
    20   11   22 1  
    21   13   12 1  
    22   14   13 1  
    23   13   21 1  
    24   17   18 am 
    25   17   20 2  
    26   18   19 1  
    27   26   25 1  
    28   26   27 1  
    29   27   28 1  
    30    2   29 1  
    31    3   30 1  
    32    3   31 1  
    33    4   32 1  
    34    4   33 1  
    35    4   34 1  
    36    5   35 1  
    37    5   36 1  
    38    5   37 1  
    39    7   38 1  
    40   10   39 1  
    41   12   40 1  
    42   12   41 1  
    43   13   42 1  
    44   14   43 1  
    45   14   44 1  
    46   18   45 1  
    47   19   46 1  
    48   19   47 1  
    49   21   48 1  
    50   21   49 1  
    51   21   50 1  
    52   25   51 1  
    53   25   52 1  
    54   28   53 1  
    55   28   54 1  
    56   28   55 1  
@<TRIPOS>SUBSTRUCTURE
     1 MOL         1

