### 
### Created by X-TOOL on Wed Jan  1 15:39:38 2020
### 

@<TRIPOS>MOLECULE
5y7z_ligand
   56    59     1     0     0
SMALL
GAST_HUCK


@<TRIPOS>ATOM
      1 CAO        10.5490  -22.6340   16.5970 C.3       1 IRE        -0.0078
      2 CAL        11.3100  -21.8610   17.6610 C.3       1 IRE         0.0878
      3 OAU        12.3090  -21.0610   17.0490 O.3       1 IRE        -0.3693
      4 CAM        11.7980  -20.2040   16.0440 C.3       1 IRE         0.0878
      5 CAP        10.9610  -20.9750   15.0200 C.3       1 IRE        -0.0078
      6 NBE         9.8600  -21.6190   15.7780 N.4       1 IRE         0.2385
      7 CAN         9.0530  -22.4140   14.8100 C.3       1 IRE        -0.0293
      8 CAJ         7.9810  -21.4510   14.2490 C.3       1 IRE         0.0151
      9 CAK         6.5950  -22.1500   14.2430 C.3       1 IRE         0.0741
     10 OAV         6.2040  -22.6860   15.5300 O.3       1 IRE        -0.3164
     11 CBA         4.9710  -23.3320   15.6800 C.ar      1 IRE         0.1323
     12 CAZ         4.7790  -24.5740   16.4250 C.ar      1 IRE         0.1323
     13 CAH         3.5040  -25.1230   16.5140 C.ar      1 IRE        -0.0168
     14 OAT         5.8940  -25.1590   17.0170 O.3       1 IRE        -0.3162
     15 CAA         5.7470  -25.8050   18.2950 C.3       1 IRE         0.0601
     16 CAI         3.8220  -22.7780   15.1040 C.ar      1 IRE        -0.0172
     17 C5          2.4870  -23.3200   15.1770 C.ar      1 IRE         0.0392
     18 C4          2.3250  -24.5290   15.9040 C.ar      1 IRE         0.0265
     19 N3          1.0570  -25.1330   16.0270 N.ar      1 IRE        -0.3053
     20 C2          0.0200  -24.5220   15.4350 C.ar      1 IRE         0.0526
     21 N1          0.0610  -23.3380   14.7010 N.ar      1 IRE        -0.2609
     22 C6          1.2690  -22.7270   14.5570 C.ar      1 IRE         0.1500
     23 NAS         1.2970  -21.5180   13.8070 N.pl3     1 IRE        -0.2507
     24 CAY         0.1760  -20.6770   13.3870 C.ar      1 IRE         0.0646
     25 CAG        -0.8740  -20.3060   14.2520 C.ar      1 IRE        -0.0246
     26 CAX        -1.9430  -19.5070   13.8630 C.ar      1 IRE         0.0649
     27 CL         -3.2150  -19.0890   14.9880 Cl        1 IRE        -0.0749
     28 CAW        -2.0330  -19.0090   12.5500 C.ar      1 IRE         0.1348
     29 FAB        -3.0020  -18.2670   12.1500 F         1 IRE        -0.1917
     30 CAD        -0.9980  -19.3680   11.6840 C.ar      1 IRE        -0.0363
     31 CAE         0.0690  -20.1710   12.0820 C.ar      1 IRE        -0.0383
     32 H1          9.8177  -23.3099   17.0642 H         1 IRE         0.0837
     33 H2         11.2447  -23.2184   15.9770 H         1 IRE         0.0837
     34 H3         11.7840  -22.5681   18.3577 H         1 IRE         0.0613
     35 H4         10.6117  -21.2148   18.2130 H         1 IRE         0.0613
     36 H5         12.6389  -19.7197   15.5260 H         1 IRE         0.0613
     37 H6         11.1670  -19.4365   16.5159 H         1 IRE         0.0613
     38 H7         11.5772  -21.7382   14.5222 H         1 IRE         0.0837
     39 H8         10.5518  -20.2857   14.2668 H         1 IRE         0.0837
     40 H9          9.3085  -20.9662   16.3125 H         1 IRE         0.2035
     41 H10         8.5738  -23.2629   15.3196 H         1 IRE         0.0815
     42 H11         9.6925  -22.7880   13.9969 H         1 IRE         0.0815
     43 H12         8.2496  -21.1647   13.2215 H         1 IRE         0.0343
     44 H13         7.9330  -20.5511   14.8798 H         1 IRE         0.0343
     45 H14         6.6270  -22.9770   13.5184 H         1 IRE         0.0613
     46 H15         5.8381  -21.4163   13.9288 H         1 IRE         0.0613
     47 H16         3.3823  -26.0459   17.0695 H         1 IRE         0.0496
     48 H17         6.7183  -26.2102   18.6149 H         1 IRE         0.0579
     49 H18         5.0180  -26.6243   18.2100 H         1 IRE         0.0579
     50 H19         5.3924  -25.0741   19.0367 H         1 IRE         0.0579
     51 H20         3.9470  -21.8543   14.5507 H         1 IRE         0.0546
     52 H21        -0.9486  -24.9976   15.5380 H         1 IRE         0.1017
     53 H22         2.2313  -21.1914   13.5217 H         1 IRE         0.2204
     54 H23        -0.8461  -20.6630   15.2752 H         1 IRE         0.0538
     55 H24        -1.0257  -19.0078   10.6620 H         1 IRE         0.0577
     56 H25         0.8412  -20.4127   11.3607 H         1 IRE         0.0535
@<TRIPOS>BOND
     1    1    2 1  
     2    1    6 1  
     3    2    3 1  
     4    3    4 1  
     5    4    5 1  
     6    5    6 1  
     7    6    7 1  
     8    7    8 1  
     9    8    9 1  
    10    9   10 1  
    11   10   11 1  
    12   11   12 ar 
    13   11   16 ar 
    14   12   13 ar 
    15   12   14 1  
    16   13   18 ar 
    17   14   15 1  
    18   16   17 ar 
    19   17   18 ar 
    20   17   22 ar 
    21   18   19 ar 
    22   19   20 ar 
    23   20   21 ar 
    24   21   22 ar 
    25   22   23 1  
    26   23   24 1  
    27   24   25 ar 
    28   24   31 ar 
    29   25   26 ar 
    30   26   27 1  
    31   26   28 ar 
    32   28   29 1  
    33   28   30 ar 
    34   30   31 ar 
    35    1   32 1  
    36    1   33 1  
    37    2   34 1  
    38    2   35 1  
    39    4   36 1  
    40    4   37 1  
    41    5   38 1  
    42    5   39 1  
    43    6   40 1  
    44    7   41 1  
    45    7   42 1  
    46    8   43 1  
    47    8   44 1  
    48    9   45 1  
    49    9   46 1  
    50   13   47 1  
    51   15   48 1  
    52   15   49 1  
    53   15   50 1  
    54   16   51 1  
    55   20   52 1  
    56   23   53 1  
    57   25   54 1  
    58   30   55 1  
    59   31   56 1  
@<TRIPOS>SUBSTRUCTURE
     1 IRE         1

