### 
### Created by X-TOOL on Wed Jan  1 15:39:38 2020
### 

@<TRIPOS>MOLECULE
5y80_ligand
   56    59     1     0     0
SMALL
GAST_HUCK


@<TRIPOS>ATOM
      1 CAO        -9.1650  -11.5680   23.2730 C.3       1 IRE        -0.0078
      2 CAL        -7.6530  -11.5410   23.1590 C.3       1 IRE         0.0878
      3 OAU        -7.1070  -12.6730   23.8150 O.3       1 IRE        -0.3693
      4 CAM        -7.6490  -13.9010   23.3590 C.3       1 IRE         0.0878
      5 CAP        -9.1770  -13.8840   23.3950 C.3       1 IRE        -0.0078
      6 NBE        -9.5930  -12.7630   22.5250 N.4       1 IRE         0.2385
      7 CAN       -11.0760  -12.7010   22.5470 C.3       1 IRE        -0.0293
      8 CAJ       -11.5090  -12.7110   21.0680 C.3       1 IRE         0.0151
      9 CAK       -12.3940  -13.9470   20.7810 C.3       1 IRE         0.0741
     10 OAV       -12.1860  -14.5400   19.4830 O.3       1 IRE        -0.3164
     11 CBA       -13.2900  -14.8510   18.6820 C.ar      1 IRE         0.1323
     12 CAZ       -13.1990  -15.4990   17.3810 C.ar      1 IRE         0.1323
     13 CAH       -14.3590  -15.7620   16.6650 C.ar      1 IRE        -0.0168
     14 OAT       -11.9400  -15.8340   16.9120 O.3       1 IRE        -0.3162
     15 CAA       -11.7690  -17.0940   16.2370 C.3       1 IRE         0.0601
     16 CAI       -14.5820  -14.5310   19.1210 C.ar      1 IRE        -0.0172
     17 C5        -15.8060  -14.7880   18.4020 C.ar      1 IRE         0.0392
     18 C4        -15.6890  -15.4220   17.1360 C.ar      1 IRE         0.0265
     19 N3        -16.8320  -15.7150   16.3640 N.ar      1 IRE        -0.3053
     20 C2        -18.0240  -15.3700   16.8690 C.ar      1 IRE         0.0526
     21 N1        -18.2560  -14.7460   18.0930 N.ar      1 IRE        -0.2609
     22 C6        -17.1720  -14.4480   18.8670 C.ar      1 IRE         0.1500
     23 NAS       -17.4180  -13.8140   20.1170 N.pl3     1 IRE        -0.2507
     24 CAY       -18.6610  -13.7670   20.8760 C.ar      1 IRE         0.0646
     25 CAG       -19.5560  -14.8480   20.9280 C.ar      1 IRE        -0.0246
     26 CAX       -20.7420  -14.8280   21.6390 C.ar      1 IRE         0.0649
     27 CL        -21.8050  -16.2150   21.6450 Cl        1 IRE        -0.0749
     28 CAW       -21.1240  -13.6920   22.3780 C.ar      1 IRE         0.1348
     29 FAB       -22.2140  -13.6330   23.0530 F         1 IRE        -0.1917
     30 CAD       -20.2410  -12.6090   22.3410 C.ar      1 IRE        -0.0363
     31 CAE       -19.0520  -12.6390   21.6180 C.ar      1 IRE        -0.0383
     32 H1         -9.6006  -10.6603   22.8299 H         1 IRE         0.0837
     33 H2         -9.4701  -11.6442   24.3271 H         1 IRE         0.0837
     34 H3         -7.2667  -10.6242   23.6282 H         1 IRE         0.0613
     35 H4         -7.3654  -11.5589   22.0974 H         1 IRE         0.0613
     36 H5         -7.2849  -14.7143   24.0039 H         1 IRE         0.0613
     37 H6         -7.3174  -14.0765   22.3250 H         1 IRE         0.0613
     38 H7         -9.5333  -13.7224   24.4231 H         1 IRE         0.0837
     39 H8         -9.5789  -14.8339   23.0127 H         1 IRE         0.0837
     40 H9         -9.2135  -12.8202   21.5930 H         1 IRE         0.2035
     41 H10       -11.4152  -11.7785   23.0409 H         1 IRE         0.0815
     42 H11       -11.4897  -13.5729   23.0748 H         1 IRE         0.0815
     43 H12       -10.6154  -12.7469   20.4276 H         1 IRE         0.0343
     44 H13       -12.0799  -11.7964   20.8499 H         1 IRE         0.0343
     45 H14       -13.4478  -13.6401   20.8541 H         1 IRE         0.0613
     46 H15       -12.1799  -14.7085   21.5454 H         1 IRE         0.0613
     47 H16       -14.2662  -16.2483   15.7006 H         1 IRE         0.0496
     48 H17       -10.7186  -17.2059   15.9301 H         1 IRE         0.0579
     49 H18       -12.4160  -17.1245   15.3479 H         1 IRE         0.0579
     50 H19       -12.0416  -17.9144   16.9172 H         1 IRE         0.0579
     51 H20       -14.6693  -14.0472   20.0871 H         1 IRE         0.0546
     52 H21       -18.8946  -15.5991   16.2652 H         1 IRE         0.1017
     53 H22       -16.6151  -13.3261   20.5391 H         1 IRE         0.2204
     54 H23       -19.3030  -15.7485   20.3801 H         1 IRE         0.0538
     55 H24       -20.4916  -11.7123   22.8961 H         1 IRE         0.0577
     56 H25       -18.4085  -11.7667   21.6274 H         1 IRE         0.0535
@<TRIPOS>BOND
     1    1    2 1  
     2    1    6 1  
     3    2    3 1  
     4    3    4 1  
     5    4    5 1  
     6    5    6 1  
     7    6    7 1  
     8    7    8 1  
     9    8    9 1  
    10    9   10 1  
    11   10   11 1  
    12   11   12 ar 
    13   11   16 ar 
    14   12   13 ar 
    15   12   14 1  
    16   13   18 ar 
    17   14   15 1  
    18   16   17 ar 
    19   17   18 ar 
    20   17   22 ar 
    21   18   19 ar 
    22   19   20 ar 
    23   20   21 ar 
    24   21   22 ar 
    25   22   23 1  
    26   23   24 1  
    27   24   25 ar 
    28   24   31 ar 
    29   25   26 ar 
    30   26   27 1  
    31   26   28 ar 
    32   28   29 1  
    33   28   30 ar 
    34   30   31 ar 
    35    1   32 1  
    36    1   33 1  
    37    2   34 1  
    38    2   35 1  
    39    4   36 1  
    40    4   37 1  
    41    5   38 1  
    42    5   39 1  
    43    6   40 1  
    44    7   41 1  
    45    7   42 1  
    46    8   43 1  
    47    8   44 1  
    48    9   45 1  
    49    9   46 1  
    50   13   47 1  
    51   15   48 1  
    52   15   49 1  
    53   15   50 1  
    54   16   51 1  
    55   20   52 1  
    56   23   53 1  
    57   25   54 1  
    58   30   55 1  
    59   31   56 1  
@<TRIPOS>SUBSTRUCTURE
     1 IRE         1

