### 
### Created by X-TOOL on Wed Jan  1 15:39:36 2020
### 

@<TRIPOS>MOLECULE
5y8c_ligand
   40    42     1     0     0
SMALL
GAST_HUCK


@<TRIPOS>ATOM
      1 CAM        13.9240    9.2300    4.1560 C.3       1 8P9         0.0567
      2 OAL        12.8530    9.3460    3.1850 O.3       1 8P9        -0.3279
      3 CAB        12.7990    8.4270    2.1770 C.ar      1 8P9         0.1067
      4 CAC        13.8020    7.5040    1.8770 C.ar      1 8P9        -0.0063
      5 CAD        13.6210    6.6680    0.8570 C.ar      1 8P9         0.1295
      6 OAG        14.5090    5.7090    0.4030 O.3       1 8P9        -0.1943
      7 NAH        13.7710    5.0460   -0.7060 N.2       1 8P9        -0.1626
      8 CAI        12.6060    5.6820   -0.8120 C.2       1 8P9         0.0333
      9 CAJ        11.5710    5.2980   -1.8550 C.3       1 8P9        -0.0239
     10 CAE        12.4770    6.6340    0.1120 C.ar      1 8P9         0.0013
     11 CAF        11.4880    7.5340    0.3520 C.ar      1 8P9        -0.0534
     12 CAA        11.6210    8.4410    1.4190 C.ar      1 8P9         0.0846
     13 NAK        10.7180    9.4150    1.7420 N.am      1 8P9        -0.1954
     14 SAN         9.1690    9.0100    2.2470 S.o2      1 8P9         0.0843
     15 OAO         8.6480    8.0150    1.2900 O.2       1 8P9        -0.1470
     16 OAP         8.3640   10.2430    2.4030 O.2       1 8P9        -0.1470
     17 CAQ         9.3320    8.2300    3.7880 C.ar      1 8P9         0.1419
     18 CAV         8.9510    6.9030    3.9070 C.ar      1 8P9        -0.0294
     19 CAU         9.0860    6.2660    5.1140 C.ar      1 8P9         0.0304
     20 CLAY        8.6040    4.6550    5.2440 Cl        1 8P9        -0.0810
     21 CAT         9.5990    6.9190    6.2220 C.ar      1 8P9        -0.0565
     22 CAS         9.9900    8.2380    6.1120 C.ar      1 8P9        -0.0305
     23 CAR         9.8680    8.9040    4.8810 C.ar      1 8P9         0.1181
     24 OAW        10.2070   10.2210    4.6930 O.3       1 8P9        -0.3189
     25 CAX        10.7980   10.9660    5.7740 C.3       1 8P9         0.0596
     26 H1         13.8337   10.0357    4.8995 H         1 8P9         0.0573
     27 H2         14.8939    9.3110    3.6435 H         1 8P9         0.0573
     28 H3         13.8567    8.2554    4.6615 H         1 8P9         0.0573
     29 H4         14.7124    7.4685    2.4643 H         1 8P9         0.0446
     30 H5         10.6929    5.9535   -1.7588 H         1 8P9         0.0381
     31 H6         11.2664    4.2522   -1.7017 H         1 8P9         0.0381
     32 H7         12.0040    5.4102   -2.8599 H         1 8P9         0.0381
     33 H8         10.6032    7.5530   -0.2739 H         1 8P9         0.0391
     34 H9         10.9824   10.3772    1.6769 H         1 8P9         0.2091
     35 H10         8.5489    6.3720    3.0518 H         1 8P9         0.0615
     36 H11         9.6928    6.3984    7.1682 H         1 8P9         0.0595
     37 H12        10.3906    8.7592    6.9739 H         1 8P9         0.0543
     38 H13        11.0007   11.9950    5.4423 H         1 8P9         0.0578
     39 H14        11.7402   10.4864    6.0778 H         1 8P9         0.0578
     40 H15        10.1047   10.9859    6.6277 H         1 8P9         0.0578
@<TRIPOS>BOND
     1    1    2 1  
     2    2    3 1  
     3    3    4 ar 
     4    3   12 ar 
     5    4    5 ar 
     6    5    6 1  
     7    5   10 ar 
     8    6    7 1  
     9    7    8 2  
    10    8    9 1  
    11    8   10 1  
    12   10   11 ar 
    13   11   12 ar 
    14   12   13 1  
    15   13   14 am 
    16   14   15 2  
    17   14   16 2  
    18   14   17 1  
    19   17   18 ar 
    20   17   23 ar 
    21   18   19 ar 
    22   19   20 1  
    23   19   21 ar 
    24   21   22 ar 
    25   22   23 ar 
    26   23   24 1  
    27   24   25 1  
    28    1   26 1  
    29    1   27 1  
    30    1   28 1  
    31    4   29 1  
    32    9   30 1  
    33    9   31 1  
    34    9   32 1  
    35   11   33 1  
    36   13   34 1  
    37   18   35 1  
    38   21   36 1  
    39   22   37 1  
    40   25   38 1  
    41   25   39 1  
    42   25   40 1  
@<TRIPOS>SUBSTRUCTURE
     1 8P9         1

