### 
### Created by X-TOOL on Wed Jan  1 15:39:36 2020
### 

@<TRIPOS>MOLECULE
5y8w_ligand
   37    39     1     0     0
SMALL
GAST_HUCK


@<TRIPOS>ATOM
      1 CAW        -5.4460   13.4580   -1.9910 C.3       1 8PU         0.0602
      2 OAV        -4.8420   12.6330   -0.9270 O.3       1 8PU        -0.3172
      3 CAQ        -4.6230   11.3110   -1.1360 C.ar      1 8PU         0.1209
      4 CAR        -4.4890   10.8070   -2.4390 C.ar      1 8PU        -0.0282
      5 CAS        -4.2450    9.4570   -2.6190 C.ar      1 8PU        -0.0610
      6 CAT        -4.0640    8.6180   -1.5580 C.ar      1 8PU         0.0031
      7 BRAX       -3.7070    6.7820   -1.8370 Br        1 8PU        -0.0599
      8 CAU        -4.1920    9.1320   -0.2560 C.ar      1 8PU        -0.0339
      9 CAP        -4.4580   10.4520   -0.0480 C.ar      1 8PU         0.1441
     10 SAM        -4.5700   10.9490    1.6010 S.o2      1 8PU         0.0849
     11 OAN        -4.3120    9.7950    2.5330 O.2       1 8PU        -0.1470
     12 OAO        -3.6220   12.0760    1.7580 O.2       1 8PU        -0.1470
     13 NAH        -6.0850   11.5520    1.8120 N.am      1 8PU        -0.1954
     14 CAC        -7.1370   10.7420    1.7590 C.ar      1 8PU         0.0843
     15 CAB        -7.4040    9.6950    2.6480 C.ar      1 8PU        -0.0535
     16 CAA        -8.5580    8.9310    2.5340 C.ar      1 8PU         0.0013
     17 CAJ        -9.0550    7.8810    3.2120 C.2       1 8PU         0.0333
     18 CAK        -8.4360    7.1840    4.4170 C.3       1 8PU        -0.0239
     19 NAL       -10.2480    7.4460    2.7430 N.2       1 8PU        -0.1626
     20 OAG       -10.5140    8.3240    1.5980 O.3       1 8PU        -0.1943
     21 CAF        -9.4360    9.2180    1.5140 C.ar      1 8PU         0.1295
     22 CAE        -9.2170   10.2350    0.6590 C.ar      1 8PU        -0.0066
     23 CAD        -8.0720   10.9990    0.7400 C.ar      1 8PU         0.1036
     24 OAI        -7.8140   11.9950   -0.1200 O.3       1 8PU        -0.3398
     25 H1         -5.5444   14.4956   -1.6391 H         1 8PU         0.0579
     26 H2         -6.4402   13.0606   -2.2433 H         1 8PU         0.0579
     27 H3         -4.8037   13.4329   -2.8836 H         1 8PU         0.0579
     28 H4         -4.5756   11.4675   -3.2942 H         1 8PU         0.0550
     29 H5         -4.1965    9.0568   -3.6253 H         1 8PU         0.0615
     30 H6         -4.0775    8.4692    0.5941 H         1 8PU         0.0635
     31 H7         -6.2148   12.5291    1.9804 H         1 8PU         0.2091
     32 H8         -6.6971    9.4763    3.4402 H         1 8PU         0.0391
     33 H9         -9.0894    6.3600    4.7396 H         1 8PU         0.0381
     34 H10        -8.3225    7.9054    5.2396 H         1 8PU         0.0381
     35 H11        -7.4492    6.7833    4.1419 H         1 8PU         0.0381
     36 H12        -9.9529   10.4567   -0.1055 H         1 8PU         0.0446
     37 H13        -8.5049   12.6448   -0.0667 H         1 8PU         0.2443
@<TRIPOS>BOND
     1    1    2 1  
     2    2    3 1  
     3    3    4 ar 
     4    3    9 ar 
     5    4    5 ar 
     6    5    6 ar 
     7    6    7 1  
     8    6    8 ar 
     9    8    9 ar 
    10    9   10 1  
    11   10   11 2  
    12   10   12 2  
    13   10   13 am 
    14   13   14 1  
    15   14   15 ar 
    16   14   23 ar 
    17   15   16 ar 
    18   16   17 1  
    19   16   21 ar 
    20   17   18 1  
    21   17   19 2  
    22   19   20 1  
    23   20   21 1  
    24   21   22 ar 
    25   22   23 ar 
    26   23   24 1  
    27    1   25 1  
    28    1   26 1  
    29    1   27 1  
    30    4   28 1  
    31    5   29 1  
    32    8   30 1  
    33   13   31 1  
    34   15   32 1  
    35   18   33 1  
    36   18   34 1  
    37   18   35 1  
    38   22   36 1  
    39   24   37 1  
@<TRIPOS>SUBSTRUCTURE
     1 8PU         1

