### 
### Created by X-TOOL on Wed Jan  1 15:39:36 2020
### 

@<TRIPOS>MOLECULE
5y8y_ligand
   40    42     1     0     0
SMALL
GAST_HUCK


@<TRIPOS>ATOM
      1 CAY        13.9700    9.5860    3.7280 C.3       1 8PX         0.0567
      2 OAI        12.7270    9.4630    3.0000 O.3       1 8PX        -0.3279
      3 CAD        12.6130    8.4940    2.0130 C.ar      1 8PX         0.1067
      4 CAE        13.6200    7.5910    1.6480 C.ar      1 8PX        -0.0063
      5 CAF        13.4470    6.6990    0.6790 C.ar      1 8PX         0.1295
      6 OAG        14.3050    5.7830    0.2190 O.3       1 8PX        -0.1943
      7 NAL        13.5580    5.0610   -0.8220 N.2       1 8PX        -0.1626
      8 CAJ        12.3740    5.6370   -0.8820 C.2       1 8PX         0.0333
      9 CAK        11.3720    5.1580   -1.8670 C.3       1 8PX        -0.0239
     10 CAA        12.2610    6.6220    0.0020 C.ar      1 8PX         0.0013
     11 CAB        11.2550    7.4590    0.3330 C.ar      1 8PX        -0.0534
     12 CAC        11.4000    8.4250    1.3390 C.ar      1 8PX         0.0846
     13 NAH        10.4630    9.3780    1.6680 N.am      1 8PX        -0.1954
     14 SAM         8.9100    9.0120    2.1760 S.o2      1 8PX         0.0849
     15 OAN         8.2410    8.0550    1.2470 O.2       1 8PX        -0.1470
     16 OAO         8.1680   10.3230    2.4830 O.2       1 8PX        -0.1470
     17 CAP         9.2070    8.2580    3.7840 C.ar      1 8PX         0.1441
     18 CAU         8.8370    6.9290    3.9310 C.ar      1 8PX        -0.0339
     19 CAT         9.0140    6.2600    5.1240 C.ar      1 8PX         0.0031
     20 BRAX        8.4440    4.4780    5.1360 Br        1 8PX        -0.0599
     21 CAS         9.6180    6.9080    6.1770 C.ar      1 8PX        -0.0610
     22 CAR        10.0170    8.2410    6.0590 C.ar      1 8PX        -0.0282
     23 CAQ         9.8220    8.9390    4.8610 C.ar      1 8PX         0.1209
     24 OAV        10.1840   10.2920    4.6640 O.3       1 8PX        -0.3172
     25 CAW        10.6280   11.0670    5.7160 C.3       1 8PX         0.0602
     26 H1         13.8841   10.3975    4.4656 H         1 8PX         0.0573
     27 H2         14.7853    9.8137    3.0256 H         1 8PX         0.0573
     28 H3         14.1863    8.6404    4.2467 H         1 8PX         0.0573
     29 H4         14.5685    7.6211    2.1719 H         1 8PX         0.0446
     30 H5         10.4513    5.7524   -1.7720 H         1 8PX         0.0381
     31 H6         11.1460    4.0988   -1.6747 H         1 8PX         0.0381
     32 H7         11.7761    5.2679   -2.8842 H         1 8PX         0.0381
     33 H8         10.3101    7.3823   -0.1928 H         1 8PX         0.0391
     34 H9         10.7238   10.3410    1.6000 H         1 8PX         0.2091
     35 H10         8.3990    6.4047    3.0894 H         1 8PX         0.0635
     36 H11         9.7858    6.3782    7.1077 H         1 8PX         0.0615
     37 H12        10.4816    8.7396    6.9020 H         1 8PX         0.0550
     38 H13        10.8557   12.0805    5.3542 H         1 8PX         0.0579
     39 H14        11.5362   10.6181    6.1445 H         1 8PX         0.0579
     40 H15         9.8461   11.1203    6.4878 H         1 8PX         0.0579
@<TRIPOS>BOND
     1    1    2 1  
     2    2    3 1  
     3    3    4 ar 
     4    3   12 ar 
     5    4    5 ar 
     6    5    6 1  
     7    5   10 ar 
     8    6    7 1  
     9    7    8 2  
    10    8    9 1  
    11    8   10 1  
    12   10   11 ar 
    13   11   12 ar 
    14   12   13 1  
    15   13   14 am 
    16   14   15 2  
    17   14   16 2  
    18   14   17 1  
    19   17   18 ar 
    20   17   23 ar 
    21   18   19 ar 
    22   19   20 1  
    23   19   21 ar 
    24   21   22 ar 
    25   22   23 ar 
    26   23   24 1  
    27   24   25 1  
    28    1   26 1  
    29    1   27 1  
    30    1   28 1  
    31    4   29 1  
    32    9   30 1  
    33    9   31 1  
    34    9   32 1  
    35   11   33 1  
    36   13   34 1  
    37   18   35 1  
    38   21   36 1  
    39   22   37 1  
    40   25   38 1  
    41   25   39 1  
    42   25   40 1  
@<TRIPOS>SUBSTRUCTURE
     1 8PX         1

