### 
### Created by X-TOOL on Wed Jan  1 15:39:35 2020
### 

@<TRIPOS>MOLECULE
5y8z_ligand
   39    41     1     0     0
SMALL
GAST_HUCK


@<TRIPOS>ATOM
      1 CAX        -8.2350   11.9400   -0.5000 C.3       1 8Q3        -0.0362
      2 CAB        -8.3650   11.0050    0.5610 C.ar      1 8Q3        -0.0305
      3 CAC        -9.4910   10.1760    0.5700 C.ar      1 8Q3        -0.0333
      4 CAD        -9.6880    9.2710    1.5460 C.ar      1 8Q3         0.1319
      5 OAG       -10.7490    8.3530    1.7190 O.3       1 8Q3        -0.1917
      6 NAH       -10.3680    7.6040    3.0070 N.2       1 8Q3        -0.1594
      7 CAI        -9.2090    8.1490    3.3990 C.2       1 8Q3         0.0364
      8 CAW        -8.4730    7.6780    4.6450 C.3       1 8Q3        -0.0233
      9 CAE        -8.7990    9.1270    2.5720 C.ar      1 8Q3         0.0051
     10 CAF        -7.6990    9.9130    2.6110 C.ar      1 8Q3        -0.0529
     11 CAA        -7.4300   10.8610    1.6100 C.ar      1 8Q3         0.0558
     12 NAJ        -6.3420   11.6930    1.6550 N.am      1 8Q3        -0.1965
     13 SAK        -4.8220   11.0710    1.5440 S.o2      1 8Q3         0.0853
     14 OAL        -4.6720    9.8920    2.4610 O.2       1 8Q3        -0.1469
     15 OAM        -3.8330   12.1960    1.7660 O.2       1 8Q3        -0.1469
     16 CAN        -4.6210   10.5240   -0.1280 C.ar      1 8Q3         0.1442
     17 CAS        -4.3310    9.1810   -0.3340 C.ar      1 8Q3        -0.0338
     18 CAR        -4.1700    8.6680   -1.6200 C.ar      1 8Q3         0.0031
     19 BRAV       -3.8300    6.8520   -1.8730 Br        1 8Q3        -0.0599
     20 CAQ        -4.2590    9.5180   -2.7120 C.ar      1 8Q3        -0.0610
     21 CAP        -4.5140   10.8710   -2.5280 C.ar      1 8Q3        -0.0282
     22 CAO        -4.6990   11.3890   -1.2290 C.ar      1 8Q3         0.1209
     23 OAT        -4.9070   12.7190   -0.9900 O.3       1 8Q3        -0.3172
     24 CAU        -5.2520   13.6180   -2.1170 C.3       1 8Q3         0.0602
     25 H1         -9.0953   11.8460   -1.1790 H         1 8Q3         0.0365
     26 H2         -7.3066   11.7386   -1.0545 H         1 8Q3         0.0365
     27 H3         -8.2025   12.9595   -0.0884 H         1 8Q3         0.0365
     28 H4        -10.2210   10.2643   -0.2265 H         1 8Q3         0.0472
     29 H5         -7.5510    8.2647    4.7700 H         1 8Q3         0.0382
     30 H6         -8.2185    6.6130    4.5400 H         1 8Q3         0.0382
     31 H7         -9.1175    7.8159    5.5257 H         1 8Q3         0.0382
     32 H8         -7.0057    9.8085    3.4377 H         1 8Q3         0.0401
     33 H9         -6.4717   12.6795    1.7554 H         1 8Q3         0.2100
     34 H10        -4.2282    8.5210    0.5197 H         1 8Q3         0.0635
     35 H11        -4.1290    9.1248   -3.7138 H         1 8Q3         0.0615
     36 H12        -4.5711   11.5313   -3.3858 H         1 8Q3         0.0550
     37 H13        -5.3820   14.6436   -1.7413 H         1 8Q3         0.0579
     38 H14        -6.1876   13.2774   -2.5846 H         1 8Q3         0.0579
     39 H15        -4.4424   13.6001   -2.8614 H         1 8Q3         0.0579
@<TRIPOS>BOND
     1    1    2 1  
     2    2    3 ar 
     3    2   11 ar 
     4    3    4 ar 
     5    4    5 1  
     6    4    9 ar 
     7    5    6 1  
     8    6    7 2  
     9    7    8 1  
    10    7    9 1  
    11    9   10 ar 
    12   10   11 ar 
    13   11   12 1  
    14   12   13 am 
    15   13   14 2  
    16   13   15 2  
    17   13   16 1  
    18   16   17 ar 
    19   16   22 ar 
    20   17   18 ar 
    21   18   19 1  
    22   18   20 ar 
    23   20   21 ar 
    24   21   22 ar 
    25   22   23 1  
    26   23   24 1  
    27    1   25 1  
    28    1   26 1  
    29    1   27 1  
    30    3   28 1  
    31    8   29 1  
    32    8   30 1  
    33    8   31 1  
    34   10   32 1  
    35   12   33 1  
    36   17   34 1  
    37   20   35 1  
    38   21   36 1  
    39   24   37 1  
    40   24   38 1  
    41   24   39 1  
@<TRIPOS>SUBSTRUCTURE
     1 8Q3         1

