### 
### Created by X-TOOL on Wed Jan  1 15:39:36 2020
### 

@<TRIPOS>MOLECULE
5y93_ligand
   64    67     1     0     0
SMALL
GAST_HUCK


@<TRIPOS>ATOM
      1 CAX       -15.5730   15.9560   -5.2890 C.3       1 8Q9        -0.0078
      2 CAY       -15.6530   17.2320   -6.1250 C.3       1 8Q9         0.0878
      3 OAZ       -14.2940   17.5110   -6.6300 O.3       1 8Q9        -0.3693
      4 CBA       -13.2760   17.5280   -5.5840 C.3       1 8Q9         0.0878
      5 CBB       -13.2070   16.1390   -4.9190 C.3       1 8Q9        -0.0078
      6 NAW       -14.2800   15.2500   -5.4310 N.4       1 8Q9         0.2399
      7 CAV       -14.3480   13.9850   -4.6840 C.3       1 8Q9        -0.0111
      8 CAU       -13.3080   13.0740   -5.2800 C.3       1 8Q9         0.0709
      9 NAT       -13.3800   11.8130   -4.5050 N.am      1 8Q9        -0.2796
     10 CAR       -14.1800   10.7770   -4.8190 C.2       1 8Q9         0.2067
     11 OAS       -14.9920   10.7950   -5.7530 O.2       1 8Q9        -0.3941
     12 CAQ       -14.1510    9.5760   -3.9040 C.3       1 8Q9         0.1563
     13 OAL       -12.8920    9.5270   -3.1630 O.3       1 8Q9        -0.3043
     14 CAB       -12.8050    8.5420   -2.1790 C.ar      1 8Q9         0.1102
     15 CAC       -13.8070    7.6020   -1.8520 C.ar      1 8Q9        -0.0061
     16 CAD       -13.6080    6.7180   -0.8430 C.ar      1 8Q9         0.1295
     17 OAG       -14.4260    5.7500   -0.3730 O.3       1 8Q9        -0.1943
     18 NAH       -13.6610    5.0610    0.7140 N.2       1 8Q9        -0.1626
     19 CAI       -12.5130    5.7000    0.7760 C.2       1 8Q9         0.0333
     20 CAJ       -11.4190    5.3250    1.7650 C.3       1 8Q9        -0.0239
     21 CAE       -12.4390    6.6820   -0.1410 C.ar      1 8Q9         0.0013
     22 CAF       -11.4490    7.5620   -0.4260 C.ar      1 8Q9        -0.0534
     23 CAA       -11.6070    8.5090   -1.4490 C.ar      1 8Q9         0.0848
     24 NAK       -10.7100    9.4800   -1.7680 N.am      1 8Q9        -0.1954
     25 SAM        -9.1310    9.1100   -2.2850 S.o2      1 8Q9         0.0849
     26 OAN        -8.5100    8.1430   -1.3360 O.2       1 8Q9        -0.1470
     27 OAO        -8.3670   10.3590   -2.5190 O.2       1 8Q9        -0.1470
     28 CAP        -9.3080    8.2550   -3.8280 C.ar      1 8Q9         0.1441
     29 CBG        -8.8910    6.9310   -3.9290 C.ar      1 8Q9        -0.0339
     30 CBF        -9.0150    6.2430   -5.1090 C.ar      1 8Q9         0.0031
     31 BRBJ       -8.4520    4.4690   -5.1140 Br        1 8Q9        -0.0599
     32 CBE        -9.5360    6.8770   -6.2430 C.ar      1 8Q9        -0.0610
     33 CBD        -9.9490    8.1980   -6.1750 C.ar      1 8Q9        -0.0282
     34 CBC        -9.8330    8.9050   -4.9500 C.ar      1 8Q9         0.1209
     35 OBH       -10.1880   10.2160   -4.7960 O.3       1 8Q9        -0.3172
     36 CBI       -10.5680   10.9820   -5.9490 C.3       1 8Q9         0.0602
     37 H1        -16.3789   15.2780   -5.6066 H         1 8Q9         0.0837
     38 H2        -15.7128   16.2213   -4.2307 H         1 8Q9         0.0837
     39 H3        -16.0025   18.0688   -5.5024 H         1 8Q9         0.0613
     40 H4        -16.3454   17.0875   -6.9674 H         1 8Q9         0.0613
     41 H5        -13.5371   18.2843   -4.8292 H         1 8Q9         0.0613
     42 H6        -12.2989   17.7729   -6.0259 H         1 8Q9         0.0613
     43 H7        -13.3242   16.2547   -3.8314 H         1 8Q9         0.0837
     44 H8        -12.2292   15.6844   -5.1362 H         1 8Q9         0.0837
     45 H9        -14.1063   15.0486   -6.4033 H         1 8Q9         0.2036
     46 H10       -15.3476   13.5374   -4.7866 H         1 8Q9         0.0834
     47 H11       -14.1325   14.1611   -3.6198 H         1 8Q9         0.0834
     48 H12       -12.3081   13.5230   -5.1879 H         1 8Q9         0.0573
     49 H13       -13.5284   12.8841   -6.3408 H         1 8Q9         0.0573
     50 H14       -12.7970   11.7262   -3.6972 H         1 8Q9         0.1854
     51 H15       -14.2530    8.6604   -4.5051 H         1 8Q9         0.0855
     52 H16       -14.9873    9.6427   -3.1926 H         1 8Q9         0.0855
     53 H17       -14.7370    7.5871   -2.4087 H         1 8Q9         0.0446
     54 H18       -10.5576    5.9958    1.6307 H         1 8Q9         0.0381
     55 H19       -11.1053    4.2856    1.5881 H         1 8Q9         0.0381
     56 H20       -11.8031    5.4226    2.7911 H         1 8Q9         0.0381
     57 H21       -10.5260    7.5341    0.1418 H         1 8Q9         0.0391
     58 H22       -10.9858   10.4386   -1.6968 H         1 8Q9         0.2091
     59 H23        -8.4628    6.4373   -3.0641 H         1 8Q9         0.0635
     60 H24        -9.6166    6.3330   -7.1771 H         1 8Q9         0.0615
     61 H25       -10.3578    8.6879   -7.0513 H         1 8Q9         0.0550
     62 H26       -10.8197   12.0076   -5.6411 H         1 8Q9         0.0579
     63 H27       -11.4435   10.5171   -6.4259 H         1 8Q9         0.0579
     64 H28        -9.7321   11.0084   -6.6635 H         1 8Q9         0.0579
@<TRIPOS>BOND
     1    1    2 1  
     2    1    6 1  
     3    2    3 1  
     4    3    4 1  
     5    4    5 1  
     6    5    6 1  
     7    6    7 1  
     8    7    8 1  
     9    8    9 1  
    10    9   10 am 
    11   10   11 2  
    12   10   12 1  
    13   12   13 1  
    14   13   14 1  
    15   14   15 ar 
    16   14   23 ar 
    17   15   16 ar 
    18   16   17 1  
    19   16   21 ar 
    20   17   18 1  
    21   18   19 2  
    22   19   20 1  
    23   19   21 1  
    24   21   22 ar 
    25   22   23 ar 
    26   23   24 1  
    27   24   25 am 
    28   25   26 2  
    29   25   27 2  
    30   25   28 1  
    31   28   29 ar 
    32   28   34 ar 
    33   29   30 ar 
    34   30   31 1  
    35   30   32 ar 
    36   32   33 ar 
    37   33   34 ar 
    38   34   35 1  
    39   35   36 1  
    40    1   37 1  
    41    1   38 1  
    42    2   39 1  
    43    2   40 1  
    44    4   41 1  
    45    4   42 1  
    46    5   43 1  
    47    5   44 1  
    48    6   45 1  
    49    7   46 1  
    50    7   47 1  
    51    8   48 1  
    52    8   49 1  
    53    9   50 1  
    54   12   51 1  
    55   12   52 1  
    56   15   53 1  
    57   20   54 1  
    58   20   55 1  
    59   20   56 1  
    60   22   57 1  
    61   24   58 1  
    62   29   59 1  
    63   32   60 1  
    64   33   61 1  
    65   36   62 1  
    66   36   63 1  
    67   36   64 1  
@<TRIPOS>SUBSTRUCTURE
     1 8Q9         1

