### 
### Created by X-TOOL on Wed Jan  1 15:39:36 2020
### 

@<TRIPOS>MOLECULE
5y94_ligand
   41    43     1     0     0
SMALL
GAST_HUCK


@<TRIPOS>ATOM
      1 CAW        -4.6960   13.4020   -2.0960 C.3       1 8QC         0.0602
      2 OAU        -4.5080   12.5680   -0.9240 O.3       1 8QC        -0.3172
      3 CAP        -4.2660   11.2410   -1.1230 C.ar      1 8QC         0.1209
      4 CAQ        -4.1700   10.6780   -2.4110 C.ar      1 8QC        -0.0282
      5 CAR        -3.9000    9.3470   -2.5730 C.ar      1 8QC        -0.0610
      6 CAS        -3.7320    8.5400   -1.4710 C.ar      1 8QC         0.0031
      7 BRAV       -3.3360    6.7450   -1.7490 Br        1 8QC        -0.0599
      8 CAT        -3.8260    9.0520   -0.2020 C.ar      1 8QC        -0.0339
      9 CAO        -4.1080   10.3900   -0.0230 C.ar      1 8QC         0.1441
     10 SAL        -4.2170   10.9160    1.5980 S.o2      1 8QC         0.0847
     11 OAM        -3.8540    9.7920    2.5120 O.2       1 8QC        -0.1470
     12 OAN        -3.3110   12.0330    1.8140 O.2       1 8QC        -0.1470
     13 NAK        -5.7920   11.4680    1.8970 N.am      1 8QC        -0.1967
     14 CAB        -6.9000   10.6080    1.8160 C.ar      1 8QC         0.0744
     15 CAC        -7.1610    9.5580    2.7300 C.ar      1 8QC        -0.0558
     16 CAD        -8.2590    8.8020    2.5930 C.ar      1 8QC        -0.0007
     17 CAG        -8.7830    7.7410    3.2910 C.2       1 8QC         0.0317
     18 CAX        -8.2330    7.0630    4.4970 C.3       1 8QC        -0.0242
     19 NAH        -9.9160    7.2810    2.7780 N.2       1 8QC        -0.1643
     20 OAI       -10.1770    8.1900    1.6120 O.3       1 8QC        -0.1958
     21 CAE        -9.1270    9.0650    1.5610 C.ar      1 8QC         0.1262
     22 CAF        -8.9470   10.0450    0.6880 C.ar      1 8QC        -0.0178
     23 CAA        -7.8250   10.8270    0.7520 C.ar      1 8QC         0.0550
     24 NAJ        -7.5980   11.8160   -0.1420 N.pl3     1 8QC        -0.3311
     25 CAY        -8.1230   11.7480   -1.5430 C.3       1 8QC         0.0103
     26 H1         -4.8809   14.4398   -1.7817 H         1 8QC         0.0579
     27 H2         -5.5575   13.0347   -2.6731 H         1 8QC         0.0579
     28 H3         -3.7923   13.3640   -2.7219 H         1 8QC         0.0579
     29 H4         -4.3116   11.3064   -3.2828 H         1 8QC         0.0550
     30 H5         -3.8184    8.9278   -3.5693 H         1 8QC         0.0615
     31 H6         -3.6792    8.4073    0.6570 H         1 8QC         0.0635
     32 H7         -5.9356   12.4282    2.1366 H         1 8QC         0.2088
     33 H8         -6.4704    9.3653    3.5430 H         1 8QC         0.0385
     34 H9         -8.9075    6.2483    4.7992 H         1 8QC         0.0381
     35 H10        -8.1449    7.7897    5.3181 H         1 8QC         0.0381
     36 H11        -7.2403    6.6500    4.2648 H         1 8QC         0.0381
     37 H12        -9.6903   10.2283   -0.0794 H         1 8QC         0.0413
     38 H13        -7.0494   12.6380    0.1484 H         1 8QC         0.1722
     39 H14        -7.8217   12.6525   -2.0917 H         1 8QC         0.0472
     40 H15        -9.2207   11.6815   -1.5204 H         1 8QC         0.0472
     41 H16        -7.7121   10.8602   -2.0459 H         1 8QC         0.0472
@<TRIPOS>BOND
     1    1    2 1  
     2    2    3 1  
     3    3    4 ar 
     4    3    9 ar 
     5    4    5 ar 
     6    5    6 ar 
     7    6    7 1  
     8    6    8 ar 
     9    8    9 ar 
    10    9   10 1  
    11   10   11 2  
    12   10   12 2  
    13   10   13 am 
    14   13   14 1  
    15   14   15 ar 
    16   14   23 ar 
    17   15   16 ar 
    18   16   17 1  
    19   16   21 ar 
    20   17   18 1  
    21   17   19 2  
    22   19   20 1  
    23   20   21 1  
    24   21   22 ar 
    25   22   23 ar 
    26   23   24 1  
    27   24   25 1  
    28    1   26 1  
    29    1   27 1  
    30    1   28 1  
    31    4   29 1  
    32    5   30 1  
    33    8   31 1  
    34   13   32 1  
    35   15   33 1  
    36   18   34 1  
    37   18   35 1  
    38   18   36 1  
    39   22   37 1  
    40   24   38 1  
    41   25   39 1  
    42   25   40 1  
    43   25   41 1  
@<TRIPOS>SUBSTRUCTURE
     1 8QC         1

