### 
### Created by X-TOOL on Wed Jan  1 15:39:38 2020
### 

@<TRIPOS>MOLECULE
5y97_ligand
   44    45     1     0     0
SMALL
GAST_HUCK


@<TRIPOS>ATOM
      1 C1         34.3440   65.2810    1.3140 C.3       1 LAT         0.1884
      2 C2         34.6110   63.8000    1.0230 C.3       1 LAT         0.1341
      3 C3         33.6700   63.2870   -0.0560 C.3       1 LAT         0.1141
      4 C4         32.1980   63.6550    0.3290 C.3       1 LAT         0.1119
      5 C5         32.0820   65.1420    0.6590 C.3       1 LAT         0.1130
      6 C6         30.7030   65.6310    0.7270 C.3       1 LAT         0.0730
      7 O1         35.2140   65.7000    2.3700 O.3       1 LAT        -0.3402
      8 O2         35.9440   63.6230    0.5670 O.3       1 LAT        -0.3841
      9 O3         33.7570   61.8860   -0.1850 O.3       1 LAT        -0.3864
     10 O4         31.7990   62.8690    1.4660 O.3       1 LAT        -0.3865
     11 O5         32.9890   65.4620    1.7130 O.3       1 LAT        -0.3405
     12 O6         30.5730   66.8770    1.4060 O.3       1 LAT        -0.3924
     13 C1'        36.2990   69.4170    3.8480 C.3       1 LAT         0.1853
     14 C2'        34.8770   68.9650    4.1810 C.3       1 LAT         0.1339
     15 C3'        34.7250   67.4700    3.9290 C.3       1 LAT         0.1143
     16 C4'        35.2100   67.1160    2.5280 C.3       1 LAT         0.1160
     17 C5'        36.5980   67.6700    2.2750 C.3       1 LAT         0.0877
     18 C6'        37.0610   67.3650    0.8610 C.3       1 LAT        -0.0361
     19 O1'        36.4040   70.8300    4.0270 O.3       1 LAT        -0.3649
     20 O2'        34.6010   69.2470    5.5580 O.3       1 LAT        -0.3841
     21 O3'        33.3490   67.1060    4.0720 O.3       1 LAT        -0.3864
     22 O5'        36.6050   69.0780    2.4970 O.3       1 LAT        -0.3432
     23 H1         34.5423   65.8769    0.4109 H         1 LAT         0.0938
     24 H2         34.4589   63.2209    1.9458 H         1 LAT         0.0671
     25 H3         33.9312   63.7572   -1.0155 H         1 LAT         0.0648
     26 H4         31.5368   63.4258   -0.5196 H         1 LAT         0.0647
     27 H5         32.4925   65.6652   -0.2172 H         1 LAT         0.0647
     28 H6         30.0940   64.8822    1.2546 H         1 LAT         0.0584
     29 H7         30.3262   65.7531   -0.2992 H         1 LAT         0.0584
     30 H8         36.5484   63.9382    1.2287 H         1 LAT         0.2101
     31 H9         33.1596   61.5939   -0.8635 H         1 LAT         0.2100
     32 H10        31.8737   61.9461    1.2535 H         1 LAT         0.2100
     33 H11        30.8863   66.7844    2.2981 H         1 LAT         0.2095
     34 H12        37.0088   68.9114    4.5192 H         1 LAT         0.0935
     35 H13        34.1649   69.5128    3.5463 H         1 LAT         0.0671
     36 H14        35.3250   66.9170    4.6666 H         1 LAT         0.0648
     37 H15        34.5181   67.5548    1.7940 H         1 LAT         0.0650
     38 H16        37.2969   67.1972    2.9806 H         1 LAT         0.0621
     39 H17        38.0688   67.7785    0.7080 H         1 LAT         0.0255
     40 H18        36.3648   67.8199    0.1410 H         1 LAT         0.0255
     41 H19        37.0849   66.2757    0.7099 H         1 LAT         0.0255
     42 H20        36.1992   71.0500    4.9282 H         1 LAT         0.2126
     43 H21        34.6960   70.1793    5.7144 H         1 LAT         0.2101
     44 H22        33.2538   66.1711    3.9330 H         1 LAT         0.2100
@<TRIPOS>BOND
     1    1    2 1  
     2    7    1 1  
     3    1   11 1  
     4    2    3 1  
     5    2    8 1  
     6    3    4 1  
     7    3    9 1  
     8    5    4 1  
     9    4   10 1  
    10    5    6 1  
    11   11    5 1  
    12    6   12 1  
    13   16    7 1  
    14   14   13 1  
    15   13   19 1  
    16   13   22 1  
    17   15   14 1  
    18   14   20 1  
    19   15   16 1  
    20   15   21 1  
    21   16   17 1  
    22   17   18 1  
    23   17   22 1  
    24    1   23 1  
    25    2   24 1  
    26    3   25 1  
    27    4   26 1  
    28    5   27 1  
    29    6   28 1  
    30    6   29 1  
    31    8   30 1  
    32    9   31 1  
    33   10   32 1  
    34   12   33 1  
    35   13   34 1  
    36   14   35 1  
    37   15   36 1  
    38   16   37 1  
    39   17   38 1  
    40   18   39 1  
    41   18   40 1  
    42   18   41 1  
    43   19   42 1  
    44   20   43 1  
    45   21   44 1  
@<TRIPOS>SUBSTRUCTURE
     1 LAT         1

