### 
### Created by X-TOOL on Mon Sep 10 21:13:33 2018
### 

@<TRIPOS>MOLECULE
5y9l_ligand
   62    64     1     0     0
SMALL
GAST_HUCK


@<TRIPOS>ATOM
      1 C1         18.9860   39.5820   21.8140 C.2       1 8R3         0.1895
      2 O2         17.9170   39.5880   22.4640 O.2       1 8R3        -0.3960
      3 O32        16.5270   48.0140   23.5650 O.co2     1 8R3        -0.5608
      4 C31        17.1970   46.9620   23.3070 C.2       1 8R3         0.0594
      5 O33        17.8890   46.9020   22.2430 O.co2     1 8R3        -0.5608
      6 C26        17.1520   45.7960   24.2720 C.ar      1 8R3        -0.0034
      7 C25        17.8900   44.6310   24.0360 C.ar      1 8R3        -0.0272
      8 C27        16.3920   45.8360   25.4530 C.ar      1 8R3        -0.0630
      9 C28        16.3710   44.7530   26.3280 C.ar      1 8R3        -0.0720
     10 C29        17.1090   43.6060   26.0620 C.ar      1 8R3        -0.0387
     11 C21        17.8870   43.5240   24.9110 C.ar      1 8R3         0.0698
     12 N20        18.6090   42.3260   24.7120 N.am      1 8R3        -0.2317
     13 C19        19.4510   42.0050   23.6420 C.2       1 8R3         0.2265
     14 O30        19.7120   42.6950   22.6470 O.2       1 8R3        -0.3826
     15 C17        20.1120   40.6190   23.7140 C.3       1 8R3         0.1311
     16 N16        20.1770   40.0820   22.3520 N.am      1 8R3        -0.2369
     17 C15        21.4720   40.1520   21.6470 C.3       1 8R3         0.1034
     18 C13        22.0620   38.7920   21.2490 C.2       1 8R3         0.1137
     19 N14        23.3400   38.6240   21.4640 N.2       1 8R3        -0.2604
     20 N62        23.8000   37.4020   21.0720 N.pl3     1 8R3        -0.3004
     21 C68        24.2150   36.4410   22.1090 C.3       1 8R3         0.0147
     22 C63        24.7660   37.5390   19.9640 C.3       1 8R3         0.0147
     23 N12        21.2890   37.7940   20.7150 N.pl3     1 8R3        -0.3044
     24 C11        19.8930   37.7300   20.3980 C.3       1 8R3         0.0486
     25 C3         19.0730   39.0150   20.3870 C.3       1 8R3         0.0769
     26 C4         17.7030   38.7420   19.7210 C.3       1 8R3         0.0007
     27 C5         17.7040   38.0000   18.3960 C.ar      1 8R3        -0.0105
     28 C10        17.1380   36.6990   18.3380 C.ar      1 8R3        -0.0548
     29 C6         18.2550   38.5750   17.2160 C.ar      1 8R3         0.0930
     30 O23        18.7800   39.8500   17.3720 O.3       1 8R3        -0.3246
     31 C24        19.3990   40.6350   16.3390 C.3       1 8R3         0.0579
     32 C7         18.2110   37.8120   16.0200 C.ar      1 8R3        -0.0389
     33 C8         17.6350   36.5300   15.9800 C.ar      1 8R3        -0.0636
     34 C9         17.1050   35.9640   17.1400 C.ar      1 8R3         0.0218
     35 CL2        16.4160   34.3710   17.0670 Cl        1 8R3        -0.0828
     36 H1         18.4935   44.5761   23.1372 H         1 8R3         0.0535
     37 H2         15.8137   46.7227   25.6864 H         1 8R3         0.0521
     38 H3         15.7707   44.8054   27.2291 H         1 8R3         0.0584
     39 H4         17.0786   42.7719   26.7537 H         1 8R3         0.0523
     40 H5         18.5061   41.6258   25.4185 H         1 8R3         0.2257
     41 H6         19.5132   39.9515   24.3511 H         1 8R3         0.0773
     42 H7         21.1266   40.7095   24.1293 H         1 8R3         0.0773
     43 H8         22.1932   40.6585   22.3053 H         1 8R3         0.0749
     44 H9         21.3317   40.7453   20.7314 H         1 8R3         0.0749
     45 H10        24.5578   35.5114   21.6312 H         1 8R3         0.0465
     46 H11        23.3621   36.2216   22.7680 H         1 8R3         0.0465
     47 H12        25.0349   36.8725   22.7018 H         1 8R3         0.0465
     48 H13        25.1236   36.5429   19.6641 H         1 8R3         0.0465
     49 H14        25.6186   38.1505   20.2943 H         1 8R3         0.0465
     50 H15        24.2756   38.0255   19.1080 H         1 8R3         0.0465
     51 H16        21.8076   36.9299   20.5021 H         1 8R3         0.1815
     52 H17        19.4269   37.0578   21.1334 H         1 8R3         0.0548
     53 H18        19.8114   37.2882   19.3940 H         1 8R3         0.0548
     54 H19        19.5983   39.7579   19.7689 H         1 8R3         0.0578
     55 H20        17.2181   39.7150   19.5535 H         1 8R3         0.0431
     56 H21        17.1040   38.1509   20.4294 H         1 8R3         0.0431
     57 H22        16.7216   36.2623   19.2385 H         1 8R3         0.0532
     58 H23        19.7190   41.6017   16.7551 H         1 8R3         0.0575
     59 H24        18.6775   40.8064   15.5266 H         1 8R3         0.0575
     60 H25        20.2742   40.0977   15.9449 H         1 8R3         0.0575
     61 H26        18.6330   38.2290   15.1127 H         1 8R3         0.0522
     62 H27        17.6026   35.9803   15.0463 H         1 8R3         0.0538
@<TRIPOS>BOND
     1    1    2 2  
     2   16    1 am 
     3    1   25 1  
     4    4    3 ar 
     5    4    5 ar 
     6    6    4 1  
     7    7    6 ar 
     8    6    8 ar 
     9   11    7 ar 
    10    9    8 ar 
    11   10    9 ar 
    12   11   10 ar 
    13   12   11 1  
    14   13   12 am 
    15   13   14 2  
    16   15   13 1  
    17   15   16 1  
    18   16   17 1  
    19   17   18 1  
    20   18   19 2  
    21   18   23 1  
    22   19   20 1  
    23   20   21 1  
    24   20   22 1  
    25   23   24 1  
    26   24   25 1  
    27   25   26 1  
    28   26   27 1  
    29   27   28 ar 
    30   27   29 ar 
    31   28   34 ar 
    32   29   30 1  
    33   29   32 ar 
    34   30   31 1  
    35   32   33 ar 
    36   33   34 ar 
    37   34   35 1  
    38    7   36 1  
    39    8   37 1  
    40    9   38 1  
    41   10   39 1  
    42   12   40 1  
    43   15   41 1  
    44   15   42 1  
    45   17   43 1  
    46   17   44 1  
    47   21   45 1  
    48   21   46 1  
    49   21   47 1  
    50   22   48 1  
    51   22   49 1  
    52   22   50 1  
    53   23   51 1  
    54   24   52 1  
    55   24   53 1  
    56   25   54 1  
    57   26   55 1  
    58   26   56 1  
    59   28   57 1  
    60   31   58 1  
    61   31   59 1  
    62   31   60 1  
    63   32   61 1  
    64   33   62 1  
@<TRIPOS>SUBSTRUCTURE
     1 8R3         1

