### 
### Created by X-TOOL on Wed Jan  1 15:39:37 2020
### 

@<TRIPOS>MOLECULE
5ya5_ligand
   41    45     1     0     0
SMALL
GAST_HUCK


@<TRIPOS>ATOM
      1 CAA        16.5560  -15.0110  -17.2240 C.3       1 6TD         0.0580
      2 OAP        17.2390  -13.9120  -17.7090 O.3       1 6TD        -0.3254
      3 CAS        16.6250  -13.1000  -18.6310 C.ar      1 6TD         0.0840
      4 CAG        17.3210  -12.0210  -19.1530 C.ar      1 6TD        -0.0391
      5 CAE        16.7170  -11.1910  -20.0830 C.ar      1 6TD        -0.0662
      6 CAF        15.3240  -13.3470  -19.0340 C.ar      1 6TD        -0.0391
      7 CAD        14.7140  -12.5130  -19.9640 C.ar      1 6TD        -0.0662
      8 CAR        15.4140  -11.4320  -20.4880 C.ar      1 6TD        -0.0365
      9 CAK        14.7880  -10.5210  -21.4930 C.3       1 6TD         0.0553
     10 CAU        14.3770   -9.2190  -20.8690 C.2       1 6TD         0.1655
     11 NAL        14.9520   -8.0360  -21.0170 N.2       1 6TD        -0.2821
     12 NAM        14.2700   -7.1370  -20.3010 N.2       1 6TD        -0.2750
     13 CAY        13.2390   -7.7360  -19.6770 C.2       1 6TD         0.2377
     14 SAQ        11.8750   -7.5770  -18.6190 S.3       1 6TD         0.0502
     15 NAZ        13.2810   -9.0500  -20.0220 N.pl3     1 6TD        -0.1027
     16 NAN        12.3200   -9.8800  -19.4960 N.2       1 6TD        -0.1496
     17 CAV        11.4500   -9.2760  -18.6790 C.2       1 6TD         0.1689
     18 CAT        10.2960   -9.9290  -18.0380 C.2       1 6TD         0.1019
     19 CAJ         9.9690  -11.2840  -18.1280 C.2       1 6TD        -0.0440
     20 CAW         8.7420  -11.4220  -17.4030 C.ar      1 6TD        -0.0181
     21 CAH         7.9100  -12.5290  -17.1070 C.ar      1 6TD        -0.0713
     22 CAB         6.7490  -12.3410  -16.3550 C.ar      1 6TD        -0.0767
     23 CAC         6.3970  -11.0650  -15.8930 C.ar      1 6TD        -0.0743
     24 CAI         7.2130   -9.9740  -16.1780 C.ar      1 6TD        -0.0408
     25 CAX         8.3980  -10.1680  -16.9430 C.ar      1 6TD         0.0666
     26 NAO         9.3520   -9.2760  -17.3590 N.pl3     1 6TD        -0.2710
     27 H1         17.1891  -15.5464  -16.5011 H         1 6TD         0.0575
     28 H2         16.3028  -15.6826  -18.0576 H         1 6TD         0.0575
     29 H3         15.6325  -14.6789  -16.7272 H         1 6TD         0.0575
     30 H4         18.3384  -11.8266  -18.8333 H         1 6TD         0.0526
     31 H5         17.2648  -10.3512  -20.4948 H         1 6TD         0.0535
     32 H6         14.7807  -14.1909  -18.6244 H         1 6TD         0.0526
     33 H7         13.6950  -12.7050  -20.2799 H         1 6TD         0.0535
     34 H8         13.8991  -11.0115  -21.9164 H         1 6TD         0.0630
     35 H9         15.5133  -10.3204  -22.2953 H         1 6TD         0.0630
     36 H10        10.5271  -12.0669  -18.6394 H         1 6TD         0.0390
     37 H11         8.1736  -13.5184  -17.4629 H         1 6TD         0.0552
     38 H12         6.1140  -13.1892  -16.1262 H         1 6TD         0.0521
     39 H13         5.4905  -10.9282  -15.3146 H         1 6TD         0.0548
     40 H14         6.9486   -8.9853  -15.8207 H         1 6TD         0.0546
     41 H15         9.3415   -8.2624  -17.1762 H         1 6TD         0.2236
@<TRIPOS>BOND
     1    1    2 1  
     2    2    3 1  
     3    3    4 ar 
     4    3    6 ar 
     5    4    5 ar 
     6    5    8 ar 
     7    6    7 ar 
     8    7    8 ar 
     9    8    9 1  
    10    9   10 1  
    11   10   11 2  
    12   10   15 1  
    13   11   12 1  
    14   12   13 2  
    15   13   14 1  
    16   13   15 1  
    17   14   17 1  
    18   15   16 1  
    19   16   17 2  
    20   17   18 1  
    21   18   19 2  
    22   18   26 1  
    23   19   20 1  
    24   20   21 ar 
    25   20   25 ar 
    26   21   22 ar 
    27   22   23 ar 
    28   23   24 ar 
    29   24   25 ar 
    30   25   26 1  
    31    1   27 1  
    32    1   28 1  
    33    1   29 1  
    34    4   30 1  
    35    5   31 1  
    36    6   32 1  
    37    7   33 1  
    38    9   34 1  
    39    9   35 1  
    40   19   36 1  
    41   21   37 1  
    42   22   38 1  
    43   23   39 1  
    44   24   40 1  
    45   26   41 1  
@<TRIPOS>SUBSTRUCTURE
     1 6TD         1

