### 
### Created by X-TOOL on Mon Sep 10 21:12:47 2018
### 

@<TRIPOS>MOLECULE
5yas_ligand
   13    12     1     0     0
SMALL
GAST_HUCK


@<TRIPOS>ATOM
      1 C          13.4120   52.1240   16.4910 C.3       1 FAC         0.3609
      2 O1         13.4770   52.5560   15.1330 O.3       1 FAC        -0.3515
      3 O2         13.7090   50.7370   16.5120 O.3       1 FAC        -0.3515
      4 C1         14.4100   52.9090   17.3190 C.3       1 FAC         0.4533
      5 C2         11.9910   52.2480   16.9630 C.3       1 FAC         0.4533
      6 F1         14.2210   52.6940   18.6690 F         1 FAC        -0.1652
      7 F2         14.2660   54.2390   17.0130 F         1 FAC        -0.1652
      8 F3         15.6550   52.4860   16.9860 F         1 FAC        -0.1652
      9 F4         11.7910   51.6630   18.2030 F         1 FAC        -0.1652
     10 F5         11.3150   51.5850   16.0350 F         1 FAC        -0.1652
     11 F6         11.5650   53.5450   16.9630 F         1 FAC        -0.1652
     12 H1         14.3498   52.3977   14.7929 H         1 FAC         0.2133
     13 H2         14.5797   50.5954   16.1594 H         1 FAC         0.2133
@<TRIPOS>BOND
     1    1    2 1  
     2    1    3 1  
     3    1    4 1  
     4    1    5 1  
     5    4    6 1  
     6    4    7 1  
     7    4    8 1  
     8    5    9 1  
     9    5   10 1  
    10    5   11 1  
    11    2   12 1  
    12    3   13 1  
@<TRIPOS>SUBSTRUCTURE
     1 FAC         1

