### 
### Created by X-TOOL on Wed Jan  1 15:39:38 2020
### 

@<TRIPOS>MOLECULE
5yc8_ligand
   47    50     1     0     0
SMALL
GAST_HUCK


@<TRIPOS>ATOM
      1 C10       185.7280   24.1890  526.9790 C.3       1 3C0         0.0743
      2 C13       181.5930   26.6450  526.1350 C.3       1 3C0         0.0981
      3 C15       181.0870   29.1070  525.5720 C.3       1 3C0         0.0130
      4 C17       182.5420   29.1050  527.4900 C.3       1 3C0         0.1332
      5 C20       180.0010   30.7090  527.1130 C.3       1 3C0        -0.0408
      6 C21       178.9060   28.7380  526.6140 C.3       1 3C0        -0.0408
      7 C22       181.1050   28.5860  527.7550 C.3       1 3C0         0.0130
      8 N19       180.2600   29.2960  526.7740 N.4       1 3C0         0.2472
      9 C14       181.0420   27.6380  525.0910 C.3       1 3C0         0.0239
     10 C16       182.5290   29.4660  526.0270 C.3       1 3C0         0.1332
     11 O18       182.7760   30.4800  527.0530 O.3       1 3C0        -0.3566
     12 C23       181.0870   27.0610  527.5370 C.3       1 3C0         0.0239
     13 O12       183.0370   26.5390  526.0310 O.3       1 3C0        -0.2714
     14 C02       183.6130   25.5220  526.7250 C.2       1 3C0         0.2510
     15 O01       183.0010   24.6100  527.2810 O.2       1 3C0        -0.3669
     16 C03       185.1430   25.5820  526.7410 C.3       1 3C0         0.1160
     17 O11       185.3580   23.3320  525.8950 O.3       1 3C0        -0.3903
     18 C04       185.5650   26.4660  527.7310 C.ar      1 3C0        -0.0177
     19 C05       186.0710   27.7100  527.3720 C.ar      1 3C0        -0.0575
     20 C06       186.4920   28.6000  528.3520 C.ar      1 3C0        -0.0681
     21 C07       186.4080   28.2470  529.6930 C.ar      1 3C0        -0.0684
     22 C08       185.9010   27.0030  530.0540 C.ar      1 3C0        -0.0681
     23 C09       185.4790   26.1120  529.0730 C.ar      1 3C0        -0.0575
     24 H1        185.3344   23.7808  527.9216 H         1 3C0         0.0608
     25 H2        186.8244   24.2555  527.0377 H         1 3C0         0.0608
     26 H3        181.1783   25.6502  525.9153 H         1 3C0         0.0653
     27 H4        180.7529   29.7722  524.7622 H         1 3C0         0.0879
     28 H5        183.3223   28.5402  528.0211 H         1 3C0         0.0681
     29 H6        179.3794   30.7607  528.0190 H         1 3C0         0.0778
     30 H7        179.4744   31.1957  526.2788 H         1 3C0         0.0778
     31 H8        180.9562   31.2237  527.2939 H         1 3C0         0.0778
     32 H9        178.9773   27.6711  526.3558 H         1 3C0         0.0778
     33 H10       178.3805   29.2753  525.8108 H         1 3C0         0.0778
     34 H11       178.3492   28.8508  527.5559 H         1 3C0         0.0778
     35 H12       180.7814   28.8182  528.7803 H         1 3C0         0.0879
     36 H13       179.9972   27.3727  524.8721 H         1 3C0         0.0349
     37 H14       181.6424   27.5511  524.1734 H         1 3C0         0.0349
     38 H15       183.3002   29.2208  525.2819 H         1 3C0         0.0681
     39 H16       181.7300   26.5908  528.2956 H         1 3C0         0.0349
     40 H17       180.0544   26.7018  527.6579 H         1 3C0         0.0349
     41 H18       185.4943   25.9488  525.7653 H         1 3C0         0.0734
     42 H19       184.4109   23.2765  525.8457 H         1 3C0         0.2098
     43 H20       186.1371   27.9860  526.3258 H         1 3C0         0.0561
     44 H21       186.8860   29.5698  528.0704 H         1 3C0         0.0600
     45 H22       186.7375   28.9409  530.4579 H         1 3C0         0.0561
     46 H23       185.8348   26.7279  531.1004 H         1 3C0         0.0600
     47 H24       185.0835   25.1427  529.3542 H         1 3C0         0.0561
@<TRIPOS>BOND
     1   16    1 1  
     2    1   17 1  
     3    2    9 1  
     4    2   12 1  
     5   13    2 1  
     6    3    8 1  
     7    9    3 1  
     8    3   10 1  
     9    7    4 1  
    10    4   10 1  
    11    4   11 1  
    12    8    5 1  
    13    8    6 1  
    14    7    8 1  
    15   12    7 1  
    16   10   11 1  
    17   14   13 1  
    18   14   15 2  
    19   14   16 1  
    20   16   18 1  
    21   18   19 ar 
    22   18   23 ar 
    23   19   20 ar 
    24   20   21 ar 
    25   21   22 ar 
    26   22   23 ar 
    27    1   24 1  
    28    1   25 1  
    29    2   26 1  
    30    3   27 1  
    31    4   28 1  
    32    5   29 1  
    33    5   30 1  
    34    5   31 1  
    35    6   32 1  
    36    6   33 1  
    37    6   34 1  
    38    7   35 1  
    39    9   36 1  
    40    9   37 1  
    41   10   38 1  
    42   12   39 1  
    43   12   40 1  
    44   16   41 1  
    45   17   42 1  
    46   19   43 1  
    47   20   44 1  
    48   21   45 1  
    49   22   46 1  
    50   23   47 1  
@<TRIPOS>SUBSTRUCTURE
     1 3C0         1

