### 
### Created by X-TOOL on Wed Jan  1 15:39:36 2020
### 

@<TRIPOS>MOLECULE
5ye7_ligand
   51    54     1     0     0
SMALL
GAST_HUCK


@<TRIPOS>ATOM
      1 C1        -49.7560  -21.0220   23.6340 C.3       1 8U0         0.0316
      2 C2        -48.7270  -22.0340   23.1810 C.2       1 8U0         0.2005
      3 C5        -47.8170  -23.3340   21.2040 C.ar      1 8U0         0.0663
      4 C6        -46.5090  -23.5520   21.6470 C.ar      1 8U0        -0.0394
      5 C7        -45.7000  -24.4880   21.0050 C.ar      1 8U0        -0.0485
      6 C8        -46.1960  -25.2140   19.9240 C.ar      1 8U0         0.0981
      7 C13       -46.3920  -28.7270   19.4410 C.ar      1 8U0         0.0524
      8 C14       -46.5890  -29.2920   18.1860 C.ar      1 8U0        -0.0521
      9 C15       -47.7360  -30.0460   17.9730 C.ar      1 8U0        -0.0432
     10 C16       -48.6680  -30.2120   19.0000 C.ar      1 8U0         0.0996
     11 C18       -50.9470  -30.1550   18.5780 C.ar      1 8U0         0.1130
     12 C19       -50.8110  -28.7770   18.4200 C.ar      1 8U0        -0.0238
     13 C20       -51.9140  -27.9650   18.2420 C.ar      1 8U0        -0.0558
     14 C21       -53.1710  -28.5490   18.2180 C.ar      1 8U0        -0.0246
     15 C22       -54.2840  -27.7280   18.0360 C.ar      1 8U0        -0.0584
     16 C23       -55.5440  -28.3120   18.0110 C.ar      1 8U0        -0.0648
     17 C24       -55.6800  -29.6970   18.1670 C.ar      1 8U0        -0.0653
     18 C25       -54.5650  -30.5160   18.3520 C.ar      1 8U0        -0.0599
     19 C26       -53.3100  -29.9300   18.3760 C.ar      1 8U0        -0.0281
     20 C27       -52.2040  -30.7400   18.5530 C.ar      1 8U0        -0.0254
     21 C28       -48.4520  -29.6530   20.2520 C.ar      1 8U0        -0.0432
     22 C29       -47.3160  -28.9010   20.4630 C.ar      1 8U0        -0.0521
     23 C30       -47.4930  -24.9860   19.4800 C.ar      1 8U0        -0.0485
     24 C31       -48.2970  -24.0520   20.1180 C.ar      1 8U0        -0.0394
     25 N4        -48.7050  -22.3870   21.8010 N.am      1 8U0        -0.2341
     26 N12       -45.2430  -27.9420   19.6920 N.am      1 8U0        -0.1946
     27 O3        -47.9530  -22.5120   23.9980 O.2       1 8U0        -0.3852
     28 O10       -45.5250  -26.4610   17.6720 O.2       1 8U0        -0.1470
     29 O11       -43.8180  -25.9630   19.0440 O.2       1 8U0        -0.1470
     30 O17       -49.8250  -30.9790   18.7640 O.3       1 8U0        -0.2679
     31 S9        -45.1880  -26.4120   19.0760 S.o2      1 8U0         0.0809
     32 H1        -49.6516  -20.8520   24.7158 H         1 8U0         0.0472
     33 H2        -50.7650  -21.4034   23.4185 H         1 8U0         0.0472
     34 H3        -49.5997  -20.0747   23.0972 H         1 8U0         0.0472
     35 H4        -46.1233  -22.9921   22.4913 H         1 8U0         0.0503
     36 H5        -44.6844  -24.6513   21.3469 H         1 8U0         0.0596
     37 H6        -45.8647  -29.1475   17.3926 H         1 8U0         0.0460
     38 H7        -47.9083  -30.5068   17.0071 H         1 8U0         0.0513
     39 H8        -49.8216  -28.3345   18.4371 H         1 8U0         0.0596
     40 H9        -51.7992  -26.8936   18.1236 H         1 8U0         0.0618
     41 H10       -54.1680  -26.6569   17.9166 H         1 8U0         0.0616
     42 H11       -56.4238  -27.6945   17.8705 H         1 8U0         0.0586
     43 H12       -56.6687  -30.1409   18.1437 H         1 8U0         0.0607
     44 H13       -54.6786  -31.5871   18.4742 H         1 8U0         0.0591
     45 H14       -52.3171  -31.8117   18.6700 H         1 8U0         0.0504
     46 H15       -49.1666  -29.8056   21.0527 H         1 8U0         0.0513
     47 H16       -47.1433  -28.4437   21.4305 H         1 8U0         0.0460
     48 H17       -47.8783  -25.5401   18.6317 H         1 8U0         0.0596
     49 H18       -49.3078  -23.8820   19.7652 H         1 8U0         0.0503
     50 H19       -49.3651  -21.9350   21.2010 H         1 8U0         0.2257
     51 H20       -44.4821  -28.3052   20.2298 H         1 8U0         0.2122
@<TRIPOS>BOND
     1    2    1 1  
     2   25    2 am 
     3    2   27 2  
     4    4    3 ar 
     5   24    3 ar 
     6    3   25 1  
     7    5    4 ar 
     8    6    5 ar 
     9    6   23 ar 
    10   31    6 1  
    11    7    8 ar 
    12    7   22 ar 
    13   26    7 1  
    14    8    9 ar 
    15    9   10 ar 
    16   21   10 ar 
    17   10   30 1  
    18   11   12 ar 
    19   11   20 ar 
    20   30   11 1  
    21   12   13 ar 
    22   13   14 ar 
    23   14   15 ar 
    24   19   14 ar 
    25   15   16 ar 
    26   17   16 ar 
    27   18   17 ar 
    28   19   18 ar 
    29   20   19 ar 
    30   22   21 ar 
    31   23   24 ar 
    32   26   31 am 
    33   31   28 2  
    34   31   29 2  
    35    1   32 1  
    36    1   33 1  
    37    1   34 1  
    38    4   35 1  
    39    5   36 1  
    40    8   37 1  
    41    9   38 1  
    42   12   39 1  
    43   13   40 1  
    44   15   41 1  
    45   16   42 1  
    46   17   43 1  
    47   18   44 1  
    48   20   45 1  
    49   21   46 1  
    50   22   47 1  
    51   23   48 1  
    52   24   49 1  
    53   25   50 1  
    54   26   51 1  
@<TRIPOS>SUBSTRUCTURE
     1 8U0         1

