### 
### Created by X-TOOL on Wed Jan  1 15:39:36 2020
### 

@<TRIPOS>MOLECULE
5ye8_ligand
   20    20     1     0     0
SMALL
GAST_HUCK


@<TRIPOS>ATOM
      1 C1        -46.0230  -23.5100   19.6530 C.3       1 8U3         0.0786
      2 S2        -44.9470  -24.6580   18.8380 S.o2      1 8U3         0.0565
      3 N3        -45.0800  -26.1330   19.5290 N.am      1 8U3        -0.1950
      4 C4        -46.1330  -27.0270   19.2070 C.ar      1 8U3         0.0564
      5 C5        -46.2560  -27.5550   17.9240 C.ar      1 8U3        -0.0138
      6 C6        -47.2970  -28.4460   17.6630 C.ar      1 8U3         0.1499
      7 F7        -47.4650  -28.9680   16.4400 F         1 8U3        -0.1887
      8 C8        -48.1750  -28.8120   18.6670 C.ar      1 8U3         0.1464
      9 F9        -49.1600  -29.6710   18.3810 F         1 8U3        -0.1986
     10 C10       -48.0470  -28.2980   19.9510 C.ar      1 8U3        -0.0455
     11 C11       -47.0170  -27.4060   20.2160 C.ar      1 8U3        -0.0509
     12 O12       -43.6020  -24.1860   18.9640 O.2       1 8U3        -0.1503
     13 O13       -45.2110  -24.7340   17.4230 O.2       1 8U3        -0.1503
     14 H1        -45.9275  -22.5204   19.1823 H         1 8U3         0.0487
     15 H2        -45.7464  -23.4389   20.7153 H         1 8U3         0.0487
     16 H3        -47.0630  -23.8579   19.5673 H         1 8U3         0.0487
     17 H4        -44.3958  -26.4148   20.2016 H         1 8U3         0.2142
     18 H5        -45.5563  -27.2789   17.1435 H         1 8U3         0.0456
     19 H6        -48.7396  -28.5885   20.7327 H         1 8U3         0.0551
     20 H7        -46.8992  -27.0013   21.2147 H         1 8U3         0.0440
@<TRIPOS>BOND
     1    1    2 1  
     2    2    3 am 
     3    2   12 2  
     4    2   13 2  
     5    3    4 1  
     6    4    5 ar 
     7    4   11 ar 
     8    5    6 ar 
     9    6    7 1  
    10    6    8 ar 
    11    8    9 1  
    12    8   10 ar 
    13   10   11 ar 
    14    1   14 1  
    15    1   15 1  
    16    1   16 1  
    17    3   17 1  
    18    5   18 1  
    19   10   19 1  
    20   11   20 1  
@<TRIPOS>SUBSTRUCTURE
     1 8U3         1

