### 
### Created by X-TOOL on Wed Jan  1 15:39:35 2020
### 

@<TRIPOS>MOLECULE
5ye9_ligand
   52    55     1     0     0
SMALL
GAST_HUCK


@<TRIPOS>ATOM
      1 C4        -54.4970  -26.7280   18.5080 C.ar      1 8U6        -0.0583
      2 C14       -46.1910  -26.7790   19.6740 C.ar      1 8U6         0.0630
      3 C5        -53.2280  -27.3570   18.6370 C.ar      1 8U6        -0.0244
      4 C6        -53.1760  -28.7660   18.8010 C.ar      1 8U6        -0.0277
      5 C11       -48.4150  -28.4020   19.2720 C.ar      1 8U6         0.1374
      6 C7        -52.0160  -26.6360   18.6050 C.ar      1 8U6        -0.0556
      7 C8        -50.8160  -27.2620   18.7250 C.ar      1 8U6        -0.0231
      8 C9        -50.7730  -28.6480   18.8880 C.ar      1 8U6         0.1169
      9 C10       -51.9130  -29.3960   18.9300 C.ar      1 8U6        -0.0244
     10 C12       -48.1630  -27.8570   20.5150 C.ar      1 8U6        -0.0299
     11 C13       -47.0560  -27.0540   20.7160 C.ar      1 8U6        -0.0424
     12 N1        -47.8910  -29.2380   15.9170 N.1       1 8U6        -0.3385
     13 N2        -45.0500  -25.9480   19.8610 N.am      1 8U6        -0.1927
     14 C3        -55.6400  -27.4600   18.5400 C.ar      1 8U6        -0.0647
     15 N3        -48.8850  -20.8420   21.3690 N.am      1 8U6        -0.2341
     16 C1        -54.3920  -29.4880   18.8310 C.ar      1 8U6        -0.0598
     17 C2        -55.5870  -28.8530   18.7020 C.ar      1 8U6        -0.0651
     18 O1        -49.5090  -29.2240   19.0110 O.3       1 8U6        -0.2574
     19 C15       -46.4280  -27.3130   18.4140 C.ar      1 8U6        -0.0178
     20 C16       -47.5390  -28.1240   18.2050 C.ar      1 8U6         0.1137
     21 C17       -47.7580  -28.7060   16.9140 C.1       1 8U6         0.0878
     22 S1        -44.8600  -24.5470   19.0510 S.o2      1 8U6         0.0809
     23 C18       -46.0240  -23.4390   19.7560 C.ar      1 8U6         0.0981
     24 C19       -45.6370  -22.5720   20.7690 C.ar      1 8U6        -0.0485
     25 C20       -46.5610  -21.7010   21.3120 C.ar      1 8U6        -0.0394
     26 C21       -47.8790  -21.7000   20.8600 C.ar      1 8U6         0.0663
     27 C22       -48.2560  -22.5790   19.8510 C.ar      1 8U6        -0.0394
     28 C23       -47.3340  -23.4440   19.3010 C.ar      1 8U6        -0.0485
     29 O2        -43.5500  -24.0480   19.3470 O.2       1 8U6        -0.1470
     30 O3        -45.2320  -24.7800   17.6910 O.2       1 8U6        -0.1470
     31 C24       -48.8370  -19.9960   22.4240 C.2       1 8U6         0.2005
     32 C25       -50.0630  -19.1470   22.6070 C.3       1 8U6         0.0316
     33 O4        -47.8820  -19.9210   23.1900 O.2       1 8U6        -0.3852
     34 H1        -54.5522  -25.6527   18.3828 H         1 8U6         0.0616
     35 H2        -52.0425  -25.5593   18.4820 H         1 8U6         0.0618
     36 H3        -49.8968  -26.6883   18.6943 H         1 8U6         0.0598
     37 H4        -51.8530  -30.4703   19.0618 H         1 8U6         0.0508
     38 H5        -48.8376  -28.0601   21.3388 H         1 8U6         0.0542
     39 H6        -46.8650  -26.6370   21.6982 H         1 8U6         0.0539
     40 H7        -44.3438  -26.2329   20.5092 H         1 8U6         0.2121
     41 H8        -56.5994  -26.9654   18.4398 H         1 8U6         0.0587
     42 H9        -49.7558  -20.8649   20.8780 H         1 8U6         0.2257
     43 H10       -54.3706  -30.5642   18.9588 H         1 8U6         0.0592
     44 H11       -56.5062  -29.4271   18.7244 H         1 8U6         0.0608
     45 H12       -45.7496  -27.0986   17.5961 H         1 8U6         0.0547
     46 H13       -44.6155  -22.5787   21.1316 H         1 8U6         0.0596
     47 H14       -46.2591  -21.0141   22.0944 H         1 8U6         0.0503
     48 H15       -49.2799  -22.5843   19.4950 H         1 8U6         0.0503
     49 H16       -47.6326  -24.1270   18.5140 H         1 8U6         0.0596
     50 H17       -49.9308  -18.4963   23.4840 H         1 8U6         0.0472
     51 H18       -50.9384  -19.7952   22.7601 H         1 8U6         0.0472
     52 H19       -50.2174  -18.5279   21.7110 H         1 8U6         0.0472
@<TRIPOS>BOND
     1    3    1 ar 
     2    1   14 ar 
     3    2   11 ar 
     4   13    2 1  
     5    2   19 ar 
     6    4    3 ar 
     7    6    3 ar 
     8    9    4 ar 
     9    4   16 ar 
    10   10    5 ar 
    11    5   18 1  
    12   20    5 ar 
    13    7    6 ar 
    14    8    7 ar 
    15    8    9 ar 
    16   18    8 1  
    17   11   10 ar 
    18   21   12 3  
    19   22   13 am 
    20   17   14 ar 
    21   26   15 1  
    22   15   31 am 
    23   16   17 ar 
    24   19   20 ar 
    25   20   21 1  
    26   23   22 1  
    27   22   29 2  
    28   22   30 2  
    29   24   23 ar 
    30   23   28 ar 
    31   25   24 ar 
    32   25   26 ar 
    33   26   27 ar 
    34   27   28 ar 
    35   31   32 1  
    36   31   33 2  
    37    1   34 1  
    38    6   35 1  
    39    7   36 1  
    40    9   37 1  
    41   10   38 1  
    42   11   39 1  
    43   13   40 1  
    44   14   41 1  
    45   15   42 1  
    46   16   43 1  
    47   17   44 1  
    48   19   45 1  
    49   24   46 1  
    50   25   47 1  
    51   27   48 1  
    52   28   49 1  
    53   32   50 1  
    54   32   51 1  
    55   32   52 1  
@<TRIPOS>SUBSTRUCTURE
     1 8U6         1

