### 
### Created by X-TOOL on Wed Jan  1 15:39:36 2020
### 

@<TRIPOS>MOLECULE
5yea_ligand
   44    46     1     0     0
SMALL
GAST_HUCK


@<TRIPOS>ATOM
      1 C4         12.9080  -10.1570   26.4420 C.ar      1 8U9        -0.0457
      2 C14        14.7380   -5.0220   30.5860 C.ar      1 8U9         0.1440
      3 C5         12.2300   -8.9660   26.2450 C.ar      1 8U9        -0.0310
      4 C6         10.8900   -9.0020   25.9030 C.ar      1 8U9         0.1162
      5 C11        12.5050   -5.1730   29.7060 C.ar      1 8U9         0.1377
      6 C7         13.0020  -12.6550   26.5050 C.2       1 8U9         0.0629
      7 C8         10.6300   -6.4030   28.0410 C.ar      1 8U9         0.0631
      8 C9         11.0330   -7.0160   29.2160 C.ar      1 8U9        -0.0425
      9 C10        11.9670   -6.4130   30.0380 C.ar      1 8U9        -0.0301
     10 C12        12.0930   -4.5350   28.5280 C.ar      1 8U9         0.1136
     11 C13        11.1470   -5.1540   27.7020 C.ar      1 8U9        -0.0179
     12 N1          9.6630   -7.0190   27.2020 N.am      1 8U9        -0.1908
     13 N2         13.0810   -2.2420   27.8800 N.1       1 8U9        -0.3385
     14 C3         12.2590  -11.3730   26.2890 C.ar      1 8U9         0.0103
     15 C1         10.2250  -10.2080   25.7640 C.ar      1 8U9        -0.0310
     16 C15        15.2220   -5.9260   29.6690 C.ar      1 8U9         0.0014
     17 C16        16.5280   -6.3790   29.7890 C.ar      1 8U9        -0.0239
     18 C17        17.3310   -5.9410   30.8310 C.ar      1 8U9         0.0639
     19 C18        16.8410   -5.0250   31.7590 C.ar      1 8U9         0.0526
     20 C19        15.5290   -4.5840   31.6270 C.ar      1 8U9         0.0009
     21 C2         10.9140  -11.3910   25.9530 C.ar      1 8U9        -0.0457
     22 C20        12.6170   -3.2440   28.1760 C.1       1 8U9         0.0878
     23 C21        17.6830   -4.5220   32.8950 C.3       1 8U9         0.3730
     24 F1         18.7170   -3.8000   32.4860 F         1 8U9        -0.2221
     25 F2         18.1920   -5.5070   33.6280 F         1 8U9        -0.2221
     26 F3         17.0000   -3.7470   33.7240 F         1 8U9        -0.2221
     27 O1         12.3810  -13.7170   26.3430 O.co2     1 8U9        -0.5606
     28 O2         14.1980  -12.5790   26.8420 O.co2     1 8U9        -0.5606
     29 O3          8.7940   -7.8200   25.0180 O.2       1 8U9        -0.1447
     30 O4         10.9020   -6.5340   25.1170 O.2       1 8U9        -0.1447
     31 O5         13.4350   -4.5310   30.5230 O.3       1 8U9        -0.2509
     32 S1         10.0150   -7.4980   25.6830 S.o2      1 8U9         0.0887
     33 CL1        18.9740   -6.5460   30.9200 Cl        1 8U9        -0.0501
     34 H1         13.9560  -10.1388   26.7184 H         1 8U9         0.0652
     35 H2         12.7426   -8.0175   26.3573 H         1 8U9         0.0644
     36 H3         10.6128   -7.9760   29.4932 H         1 8U9         0.0539
     37 H4         12.2828   -6.9099   30.9482 H         1 8U9         0.0542
     38 H5         10.8156   -4.6601   26.7958 H         1 8U9         0.0547
     39 H6          8.7380   -7.1634   27.5535 H         1 8U9         0.2123
     40 H7          9.1716  -10.2244   25.5088 H         1 8U9         0.0644
     41 H8         14.5906   -6.2802   28.8622 H         1 8U9         0.0803
     42 H9         16.9233   -7.0803   29.0630 H         1 8U9         0.0681
     43 H10        15.1230   -3.8873   32.3514 H         1 8U9         0.0766
     44 H11        10.3999  -12.3384   25.8379 H         1 8U9         0.0652
@<TRIPOS>BOND
     1    3    1 ar 
     2    1   14 ar 
     3    2   16 ar 
     4    2   20 ar 
     5   31    2 1  
     6    4    3 ar 
     7    4   15 ar 
     8   32    4 1  
     9    9    5 ar 
    10   10    5 ar 
    11    5   31 1  
    12   14    6 1  
    13    6   27 ar 
    14    6   28 ar 
    15    7    8 ar 
    16    7   11 ar 
    17   12    7 1  
    18    8    9 ar 
    19   11   10 ar 
    20   10   22 1  
    21   12   32 am 
    22   22   13 3  
    23   14   21 ar 
    24   15   21 ar 
    25   16   17 ar 
    26   17   18 ar 
    27   18   19 ar 
    28   18   33 1  
    29   19   20 ar 
    30   19   23 1  
    31   23   24 1  
    32   23   25 1  
    33   23   26 1  
    34   32   29 2  
    35   32   30 2  
    36    1   34 1  
    37    3   35 1  
    38    8   36 1  
    39    9   37 1  
    40   11   38 1  
    41   12   39 1  
    42   15   40 1  
    43   16   41 1  
    44   17   42 1  
    45   20   43 1  
    46   21   44 1  
@<TRIPOS>SUBSTRUCTURE
     1 8U9         1

