### 
### Created by X-TOOL on Wed Jan  1 15:39:35 2020
### 

@<TRIPOS>MOLECULE
5yf1_ligand
   30    30     1     0     0
SMALL
GAST_HUCK


@<TRIPOS>ATOM
      1 C01       -39.6090   45.2200   -5.2090 C.2       1 8V0        -0.0276
      2 C02       -40.1360   46.4980   -5.3450 C.2       1 8V0         0.0555
      3 C04       -38.3650   46.3720   -6.5640 C.2       1 8V0         0.0875
      4 C06       -41.3760   47.0710   -4.6700 C.3       1 8V0         0.0372
      5 C07       -42.6650   46.2360   -4.5450 C.3       1 8V0         0.1055
      6 C08       -43.4290   45.8630   -5.8390 C.2       1 8V0         0.0621
      7 C12       -43.4170   44.9440   -2.6380 C.2       1 8V0         0.1829
      8 C14       -43.3110   43.7780   -1.6420 C.3       1 8V0         0.0772
      9 C15       -44.1290   43.9030   -0.3550 C.3       1 8V0        -0.0184
     10 N03       -39.3480   47.1800   -6.1800 N.pl3     1 8V0        -0.2623
     11 N05       -38.5240   45.1890   -5.9850 N.2       1 8V0        -0.3437
     12 N11       -42.4300   45.0910   -3.6860 N.am      1 8V0        -0.2694
     13 N16       -44.2970   42.5880    0.2330 N.4       1 8V0         0.2202
     14 O09       -44.0440   44.7660   -5.9130 O.co2     1 8V0        -0.5664
     15 O10       -43.5070   46.6520   -6.8230 O.co2     1 8V0        -0.5664
     16 O13       -44.3030   45.7440   -2.5990 O.2       1 8V0        -0.3968
     17 H1        -40.0007   44.4101   -4.5954 H         1 8V0         0.0324
     18 H2        -37.5581   46.6385   -7.2450 H         1 8V0         0.1149
     19 H3        -41.6445   47.9803   -5.2277 H         1 8V0         0.0484
     20 H4        -41.0783   47.3430   -3.6466 H         1 8V0         0.0484
     21 H5        -43.3647   46.8838   -3.9966 H         1 8V0         0.0750
     22 H6        -42.2533   43.6768   -1.3572 H         1 8V0         0.0556
     23 H7        -43.6403   42.8651   -2.1599 H         1 8V0         0.0556
     24 H8        -45.1154   44.3313   -0.5862 H         1 8V0         0.0839
     25 H9        -43.6017   44.5583    0.3539 H         1 8V0         0.0839
     26 H10       -39.4788   48.1584   -6.4742 H         1 8V0         0.2386
     27 H11       -41.6604   44.4639   -3.8064 H         1 8V0         0.1876
     28 H12       -44.8356   42.6657    1.0815 H         1 8V0         0.1996
     29 H13       -43.3925   42.1962    0.4439 H         1 8V0         0.1996
     30 H14       -44.7797   41.9882   -0.4176 H         1 8V0         0.1996
@<TRIPOS>BOND
     1    2    1 2  
     2    1   11 1  
     3    4    2 1  
     4    2   10 1  
     5   10    3 1  
     6    3   11 2  
     7    5    4 1  
     8    5    6 1  
     9   12    5 1  
    10    6   14 ar 
    11    6   15 ar 
    12    7    8 1  
    13    7   12 am 
    14    7   16 2  
    15    8    9 1  
    16    9   13 1  
    17    1   17 1  
    18    3   18 1  
    19    4   19 1  
    20    4   20 1  
    21    5   21 1  
    22    8   22 1  
    23    8   23 1  
    24    9   24 1  
    25    9   25 1  
    26   10   26 1  
    27   12   27 1  
    28   13   28 1  
    29   13   29 1  
    30   13   30 1  
@<TRIPOS>SUBSTRUCTURE
     1 8V0         1

