### 
### Created by X-TOOL on Wed Jan  1 15:39:38 2020
### 

@<TRIPOS>MOLECULE
5yg2_ligand
   63    66     1     0     0
SMALL
GAST_HUCK


@<TRIPOS>ATOM
      1 O33        38.6500   46.3490   28.1650 O.co2     1 N05        -0.5690
      2 C31        38.9100   46.0280   26.9890 C.2       1 N05         0.0348
      3 O32        40.0190   45.5480   26.6610 O.co2     1 N05        -0.5690
      4 C30        37.8260   46.2480   25.9520 C.3       1 N05         0.0004
      5 C29        37.8180   45.1530   24.8790 C.3       1 N05        -0.0385
      6 C26        36.6530   45.3740   23.9120 C.3       1 N05        -0.0360
      7 C25        37.0120   45.0080   22.5030 C.3       1 N05        -0.0303
      8 C24        35.9400   45.5240   21.5580 C.3       1 N05         0.0270
      9 C27        35.4430   44.5850   24.3360 C.3       1 N05        -0.0303
     10 C28        34.2240   45.0500   23.5380 C.3       1 N05         0.0270
     11 N23        34.5890   45.2160   22.1040 N.pl3     1 N05        -0.3081
     12 C19        33.5250   45.2190   21.1510 C.ar      1 N05         0.0462
     13 C34        33.5780   46.0950   20.0540 C.ar      1 N05        -0.0018
     14 C18        32.5440   46.1350   19.1280 C.ar      1 N05         0.1291
     15 F21        32.6260   46.9460   18.0840 F         1 N05        -0.1845
     16 C17        31.4240   45.3380   19.2480 C.ar      1 N05        -0.0510
     17 C20        32.3740   44.4140   21.2580 C.ar      1 N05        -0.0584
     18 C16        31.3000   44.4560   20.3290 C.ar      1 N05        -0.1367
     19 C4         30.0660   43.5470   20.4410 C.3       1 N05        -0.0576
     20 C14        28.7380   44.1080   19.8760 C.3       1 N05        -0.1090
     21 C22        27.5340   43.1420   19.8850 C.3       1 N05        -0.0809
     22 C15        28.3110   45.4310   20.5090 C.3       1 N05        -0.0809
     23 C3         30.3840   42.3230   19.5840 C.2       1 N05         0.0678
     24 C8         30.8110   42.5350   18.3990 C.1       1 N05         0.0453
     25 N9         31.2000   42.7240   17.3220 N.1       1 N05        -0.3661
     26 C2         30.2020   41.0530   20.0420 C.2       1 N05         0.2857
     27 N7         30.4520   39.9690   19.3170 N.pl3     1 N05        -0.2573
     28 C5         29.8590   43.1420   21.8730 C.2       1 N05        -0.0332
     29 C10        29.7790   43.8630   23.1780 C.2       1 N05         0.0029
     30 C13        29.8830   45.3390   23.4690 C.3       1 N05        -0.0262
     31 N11        29.5950   42.9140   24.1130 N.2       1 N05        -0.2216
     32 N12        29.5490   41.5920   23.6200 N.pl3     1 N05        -0.1712
     33 C6         29.6960   41.7630   22.3060 C.2       1 N05         0.2820
     34 O1         29.7050   40.7790   21.3770 O.3       1 N05        -0.1129
     35 H1         37.9942   47.2197   25.4647 H         1 N05         0.0430
     36 H2         36.8490   46.2554   26.4573 H         1 N05         0.0430
     37 H3         37.7087   44.1708   25.3621 H         1 N05         0.0286
     38 H4         38.7652   45.1836   24.3206 H         1 N05         0.0286
     39 H5         36.3954   46.4432   23.9338 H         1 N05         0.0303
     40 H6         37.0829   43.9138   22.4149 H         1 N05         0.0287
     41 H7         37.9800   45.4604   22.2417 H         1 N05         0.0287
     42 H8         36.0554   45.0400   20.5770 H         1 N05         0.0513
     43 H9         36.0476   46.6128   21.4447 H         1 N05         0.0513
     44 H10        35.2603   44.7428   25.4092 H         1 N05         0.0287
     45 H11        35.6183   43.5156   24.1472 H         1 N05         0.0287
     46 H12        33.8717   46.0121   23.9382 H         1 N05         0.0513
     47 H13        33.4233   44.3009   23.6260 H         1 N05         0.0513
     48 H14        34.4352   46.7467   19.9291 H         1 N05         0.0580
     49 H15        30.6380   45.3946   18.5037 H         1 N05         0.0557
     50 H16        32.3041   43.7264   22.0931 H         1 N05         0.0539
     51 H17        28.9464   44.3221   18.8174 H         1 N05         0.0059
     52 H18        26.6539   43.6491   19.4627 H         1 N05         0.0214
     53 H19        27.3187   42.8340   20.9188 H         1 N05         0.0214
     54 H20        27.7713   42.2546   19.2798 H         1 N05         0.0214
     55 H21        29.1612   46.1289   20.5086 H         1 N05         0.0214
     56 H22        27.9829   45.2534   21.5438 H         1 N05         0.0214
     57 H23        27.4814   45.8635   19.9304 H         1 N05         0.0214
     58 H24        30.2947   39.0335   19.7183 H         1 N05         0.2065
     59 H25        30.8032   40.0636   18.3534 H         1 N05         0.2065
     60 H26        29.7770   45.5078   24.5508 H         1 N05         0.0388
     61 H27        29.0852   45.8753   22.9343 H         1 N05         0.0388
     62 H28        30.8627   45.7106   23.1343 H         1 N05         0.0388
     63 H29        29.4312   40.7137   24.1450 H         1 N05         0.2576
@<TRIPOS>BOND
     1    1    2 ar 
     2    2    3 ar 
     3    2    4 1  
     4    4    5 1  
     5    5    6 1  
     6    6    7 1  
     7    6    9 1  
     8    7    8 1  
     9    8   11 1  
    10    9   10 1  
    11   10   11 1  
    12   11   12 1  
    13   12   13 ar 
    14   12   17 ar 
    15   13   14 ar 
    16   14   15 1  
    17   14   16 ar 
    18   16   18 ar 
    19   17   18 ar 
    20   18   19 1  
    21   19   20 1  
    22   19   23 1  
    23   19   28 1  
    24   20   21 1  
    25   20   22 1  
    26   23   24 1  
    27   23   26 2  
    28   24   25 3  
    29   26   27 1  
    30   26   34 1  
    31   28   29 1  
    32   28   33 2  
    33   29   30 1  
    34   29   31 2  
    35   31   32 1  
    36   32   33 1  
    37   33   34 1  
    38    4   35 1  
    39    4   36 1  
    40    5   37 1  
    41    5   38 1  
    42    6   39 1  
    43    7   40 1  
    44    7   41 1  
    45    8   42 1  
    46    8   43 1  
    47    9   44 1  
    48    9   45 1  
    49   10   46 1  
    50   10   47 1  
    51   13   48 1  
    52   16   49 1  
    53   17   50 1  
    54   20   51 1  
    55   21   52 1  
    56   21   53 1  
    57   21   54 1  
    58   22   55 1  
    59   22   56 1  
    60   22   57 1  
    61   27   58 1  
    62   27   59 1  
    63   30   60 1  
    64   30   61 1  
    65   30   62 1  
    66   32   63 1  
@<TRIPOS>SUBSTRUCTURE
     1 N05         1

