### 
### Created by X-TOOL on Wed Jan  1 15:39:38 2020
### 

@<TRIPOS>MOLECULE
5yg3_ligand
   50    54     1     0     0
SMALL
GAST_HUCK


@<TRIPOS>ATOM
      1 C2        131.2420  -12.2770   97.5730 C.2       1 8UC         0.2842
      2 C3        131.6450  -13.5470   97.8740 C.2       1 8UC         0.0661
      3 C4        131.5360  -14.7030   96.8340 C.3       1 8UC        -0.0524
      4 C5        131.3380  -14.1730   95.4280 C.2       1 8UC        -0.0346
      5 C6        130.9380  -12.7830   95.1710 C.2       1 8UC         0.2807
      6 N9        132.4680  -13.9450  100.1640 N.1       1 8UC        -0.3672
      7 C10       131.4550  -14.7140   94.0230 C.2       1 8UC         0.0022
      8 N12       130.8050  -12.4690   93.8690 N.pl3     1 8UC        -0.1718
      9 C13       131.8490  -16.0800   93.4780 C.3       1 8UC        -0.0263
     10 C17       132.5450  -16.6520   97.7280 C.ar      1 8UC        -0.0155
     11 C19       134.9320  -16.4830   96.2920 C.ar      1 8UC        -0.0088
     12 C35       134.7100  -17.5350   97.2030 C.ar      1 8UC        -0.0144
     13 C38       131.1790  -16.5820   98.3620 C.3       1 8UC        -0.0263
     14 C41       136.1910  -16.3590   95.4910 C.ar      1 8UC        -0.0020
     15 F29       133.2590  -18.6170   98.8000 F         1 8UC        -0.1860
     16 C18       133.5060  -17.6230   97.9240 C.ar      1 8UC         0.1445
     17 C14       130.4280  -15.6820   97.3240 C.3       1 8UC        -0.0860
     18 C30       129.9530  -16.5490   96.1430 C.3       1 8UC        -0.0762
     19 C15       129.1750  -15.0650   97.9890 C.3       1 8UC        -0.0762
     20 C46       137.4620  -16.3350   96.0780 C.ar      1 8UC        -0.0287
     21 C45       138.5970  -16.2280   95.2560 C.ar      1 8UC         0.0090
     22 N44       138.4780  -16.1400   93.9060 N.ar      1 8UC        -0.3000
     23 C43       137.2700  -16.1600   93.3050 C.ar      1 8UC         0.0090
     24 C42       136.1110  -16.2740   94.0900 C.ar      1 8UC        -0.0287
     25 C20       133.9290  -15.5230   96.1190 C.ar      1 8UC        -0.0700
     26 C16       132.7380  -15.6170   96.8570 C.ar      1 8UC        -0.1175
     27 C8        132.0740  -13.7570   99.0670 C.1       1 8UC         0.0438
     28 N7        131.3130  -11.2600   98.4640 N.pl3     1 8UC        -0.2578
     29 N11       131.1250  -13.6760   93.2150 N.2       1 8UC        -0.2222
     30 O1        130.7260  -11.9390   96.2350 O.3       1 8UC        -0.1141
     31 H1        130.5351  -11.5666   93.4521 H         1 8UC         0.2574
     32 H2        131.8075  -16.0621   92.3789 H         1 8UC         0.0388
     33 H3        131.1526  -16.8415   93.8588 H         1 8UC         0.0388
     34 H4        132.8715  -16.3232   93.8024 H         1 8UC         0.0388
     35 H5        135.4775  -18.2863   97.3499 H         1 8UC         0.0684
     36 H6        131.2161  -16.1114   99.3556 H         1 8UC         0.0439
     37 H7        130.7182  -17.5774   98.4447 H         1 8UC         0.0439
     38 H8        129.4253  -15.9173   95.4133 H         1 8UC         0.0219
     39 H9        129.2720  -17.3300   96.5121 H         1 8UC         0.0219
     40 H10       130.8224  -17.0189   95.6600 H         1 8UC         0.0219
     41 H11       129.4822  -14.4380   98.8390 H         1 8UC         0.0219
     42 H12       128.5157  -15.8697   98.3464 H         1 8UC         0.0219
     43 H13       128.6361  -14.4484   97.2546 H         1 8UC         0.0219
     44 H14       137.5694  -16.3983   97.1548 H         1 8UC         0.0704
     45 H15       139.5828  -16.2155   95.7066 H         1 8UC         0.0817
     46 H16       137.1948  -16.0887   92.2260 H         1 8UC         0.0817
     47 H17       135.1401  -16.2968   93.6084 H         1 8UC         0.0704
     48 H18       134.0709  -14.7090   95.4173 H         1 8UC         0.0653
     49 H19       130.9980  -10.3169   98.1952 H         1 8UC         0.2063
     50 H20       131.6820  -11.4294   99.4106 H         1 8UC         0.2063
@<TRIPOS>BOND
     1    2    1 2  
     2    1   28 1  
     3    1   30 1  
     4    3    2 1  
     5    2   27 1  
     6    3    4 1  
     7    3   17 1  
     8   26    3 1  
     9    4    5 2  
    10    4    7 1  
    11    5    8 1  
    12    5   30 1  
    13   27    6 3  
    14    7    9 1  
    15    7   29 2  
    16   29    8 1  
    17   10   13 1  
    18   16   10 ar 
    19   10   26 ar 
    20   12   11 ar 
    21   11   14 1  
    22   11   25 ar 
    23   12   16 ar 
    24   13   17 1  
    25   14   20 ar 
    26   14   24 ar 
    27   16   15 1  
    28   17   18 1  
    29   17   19 1  
    30   20   21 ar 
    31   21   22 ar 
    32   22   23 ar 
    33   23   24 ar 
    34   25   26 ar 
    35    8   31 1  
    36    9   32 1  
    37    9   33 1  
    38    9   34 1  
    39   12   35 1  
    40   13   36 1  
    41   13   37 1  
    42   18   38 1  
    43   18   39 1  
    44   18   40 1  
    45   19   41 1  
    46   19   42 1  
    47   19   43 1  
    48   20   44 1  
    49   21   45 1  
    50   23   46 1  
    51   24   47 1  
    52   25   48 1  
    53   28   49 1  
    54   28   50 1  
@<TRIPOS>SUBSTRUCTURE
     1 8UC         1

