### 
### Created by X-TOOL on Wed Jan  1 15:39:38 2020
### 

@<TRIPOS>MOLECULE
5yg4_ligand
   61    65     1     0     0
SMALL
GAST_HUCK


@<TRIPOS>ATOM
      1 C2         80.2250   16.9070   97.0950 C.2       1 8UF         0.2841
      2 C3         80.5590   15.6010   97.3030 C.2       1 8UF         0.0656
      3 C4         80.3110   14.5570   96.1930 C.3       1 8UF        -0.0564
      4 C5         80.2600   15.2140   94.8350 C.2       1 8UF        -0.0350
      5 C6         79.9600   16.6320   94.6900 C.2       1 8UF         0.2806
      6 N7         80.3840   17.8770   97.9940 N.pl3     1 8UF        -0.2578
      7 C8         81.0280   15.2040   98.4320 C.1       1 8UF         0.0437
      8 C10        80.4470   14.8000   93.3970 C.2       1 8UF         0.0021
      9 C13        80.7990   13.4590   92.7630 C.3       1 8UF        -0.0264
     10 C15        78.3470   13.0340   95.3470 C.3       1 8UF        -0.0765
     11 C16        81.4130   13.5600   96.1620 C.ar      1 8UF        -0.1329
     12 C17        81.0510   12.4540   96.8590 C.ar      1 8UF        -0.0299
     13 C18        81.9070   11.3880   96.9780 C.ar      1 8UF         0.1320
     14 C20        82.6690   13.6780   95.5510 C.ar      1 8UF        -0.0646
     15 O54        89.7190   10.8910   92.5200 O.co2     1 8UF        -0.5690
     16 C52        89.0250   11.7350   91.8840 C.2       1 8UF         0.0351
     17 O53        88.8410   11.6750   90.6240 O.co2     1 8UF        -0.5690
     18 C51        88.4180   12.8890   92.6870 C.3       1 8UF         0.0032
     19 C38        87.1310   12.5430   93.4670 C.3       1 8UF        -0.0260
     20 C37        87.2860   12.6980   94.9680 C.3       1 8UF        -0.0291
     21 C36        86.0220   12.1640   95.6740 C.3       1 8UF         0.0259
     22 C39        86.0320   13.4370   92.9950 C.3       1 8UF        -0.0291
     23 C40        84.7020   12.9300   93.5250 C.3       1 8UF         0.0259
     24 N35        84.8160   12.6340   94.9700 N.pl3     1 8UF        -0.3115
     25 C19        83.5750   12.6210   95.6470 C.ar      1 8UF         0.0396
     26 C41        83.1700   11.4780   96.3660 C.ar      1 8UF        -0.0071
     27 F29        81.5210   10.3090   97.6850 F         1 8UF        -0.1896
     28 C44        79.6580   12.5690   97.4400 C.3       1 8UF        -0.0331
     29 C14        79.0490   13.6890   96.5600 C.3       1 8UF        -0.0884
     30 C30        77.9420   14.4250   97.3470 C.3       1 8UF        -0.0765
     31 N9         81.4590   14.8480   99.4740 N.1       1 8UF        -0.3673
     32 N11        80.2350   15.9420   92.6820 N.2       1 8UF        -0.2222
     33 N12        79.9550   17.0810   93.4400 N.pl3     1 8UF        -0.1719
     34 O1         79.7030   17.3470   95.8120 O.3       1 8UF        -0.1141
     35 H1         80.1078   18.8423   97.7644 H         1 8UF         0.2062
     36 H2         80.7832   17.6617   98.9188 H         1 8UF         0.2062
     37 H3         80.8420   13.5705   91.6695 H         1 8UF         0.0388
     38 H4         80.0313   12.7163   93.0259 H         1 8UF         0.0388
     39 H5         81.7776   13.1226   93.1360 H         1 8UF         0.0388
     40 H6         77.4818   12.4507   95.6951 H         1 8UF         0.0218
     41 H7         79.0537   12.3685   94.8297 H         1 8UF         0.0218
     42 H8         78.0062   13.8171   94.6537 H         1 8UF         0.0218
     43 H9         82.9334   14.5796   95.0104 H         1 8UF         0.0513
     44 H10        88.1825   13.7038   91.9866 H         1 8UF         0.0433
     45 H11        89.1717   13.2335   93.4103 H         1 8UF         0.0433
     46 H12        86.8648   11.4975   93.2526 H         1 8UF         0.0320
     47 H13        87.4220   13.7613   95.2146 H         1 8UF         0.0288
     48 H14        88.1636   12.1278   95.3067 H         1 8UF         0.0288
     49 H15        86.0031   12.5278   96.7119 H         1 8UF         0.0511
     50 H16        86.0402   11.0642   95.6712 H         1 8UF         0.0511
     51 H17        86.0103   13.4417   91.8952 H         1 8UF         0.0288
     52 H18        86.2074   14.4588   93.3627 H         1 8UF         0.0288
     53 H19        84.4200   12.0135   92.9861 H         1 8UF         0.0511
     54 H20        83.9306   13.6986   93.3699 H         1 8UF         0.0511
     55 H21        83.8542   10.6414   96.4498 H         1 8UF         0.0570
     56 H22        79.6874   12.8618   98.4999 H         1 8UF         0.0410
     57 H23        79.0997   11.6271   97.3351 H         1 8UF         0.0410
     58 H24        77.5121   15.2193   96.7191 H         1 8UF         0.0218
     59 H25        78.3723   14.8693   98.2566 H         1 8UF         0.0218
     60 H26        77.1533   13.7106   97.6256 H         1 8UF         0.0218
     61 H27        79.7850   18.0412   93.1084 H         1 8UF         0.2574
@<TRIPOS>BOND
     1    2    1 2  
     2    1    6 1  
     3    1   34 1  
     4    3    2 1  
     5    2    7 1  
     6    3    4 1  
     7   11    3 1  
     8    3   29 1  
     9    4    5 2  
    10    4    8 1  
    11    5   33 1  
    12    5   34 1  
    13    7   31 3  
    14    8    9 1  
    15    8   32 2  
    16   29   10 1  
    17   11   12 ar 
    18   14   11 ar 
    19   12   13 ar 
    20   12   28 1  
    21   13   26 ar 
    22   13   27 1  
    23   25   14 ar 
    24   16   15 ar 
    25   16   17 ar 
    26   18   16 1  
    27   19   18 1  
    28   20   19 1  
    29   22   19 1  
    30   21   20 1  
    31   24   21 1  
    32   23   22 1  
    33   24   23 1  
    34   24   25 1  
    35   25   26 ar 
    36   28   29 1  
    37   29   30 1  
    38   32   33 1  
    39    6   35 1  
    40    6   36 1  
    41    9   37 1  
    42    9   38 1  
    43    9   39 1  
    44   10   40 1  
    45   10   41 1  
    46   10   42 1  
    47   14   43 1  
    48   18   44 1  
    49   18   45 1  
    50   19   46 1  
    51   20   47 1  
    52   20   48 1  
    53   21   49 1  
    54   21   50 1  
    55   22   51 1  
    56   22   52 1  
    57   23   53 1  
    58   23   54 1  
    59   26   55 1  
    60   28   56 1  
    61   28   57 1  
    62   30   58 1  
    63   30   59 1  
    64   30   60 1  
    65   33   61 1  
@<TRIPOS>SUBSTRUCTURE
     1 8UF         1

