### 
### Created by X-TOOL on Wed Jan  1 15:39:35 2020
### 

@<TRIPOS>MOLECULE
5yh8_ligand
   42    42     1     0     0
SMALL
GAST_HUCK


@<TRIPOS>ATOM
      1 O         -12.8200   23.6750  -15.8480 O.co2     1 8UX        -0.5643
      2 C         -13.6240   23.8970  -16.7570 C.2       1 8UX         0.0842
      3 OXT       -13.3420   24.4130  -17.8910 O.co2     1 8UX        -0.5643
      4 CA        -15.0630   23.4780  -16.4710 C.3       1 8UX         0.0288
      5 CB        -15.1660   22.1070  -15.7560 C.3       1 8UX        -0.0094
      6 N         -15.8290   23.4920  -17.7300 N.4       1 8UX         0.2547
      7 CAV       -16.3020   22.2310  -18.4300 C.3       1 8UX         0.0366
      8 CAR       -15.1680   21.5150  -19.1490 C.2       1 8UX         0.0847
      9 OAF       -15.3260   20.3040  -19.4390 O.co2     1 8UX        -0.5643
     10 OAC       -14.2400   22.2470  -19.5250 O.co2     1 8UX        -0.5643
     11 CAK       -17.4040   22.4200  -19.4870 C.3       1 8UX         0.0425
     12 CAJ       -17.4680   23.8610  -19.9920 C.3       1 8UX        -0.0251
     13 NAN       -16.3360   24.2090  -20.8780 N.4       1 8UX         0.2427
     14 CAW       -16.1820   25.6270  -21.2570 C.3       1 8UX         0.0413
     15 CAS       -15.8450   26.5950  -20.0980 C.2       1 8UX         0.0867
     16 OAG       -15.2960   26.1390  -19.0700 O.co2     1 8UX        -0.5641
     17 OAD       -16.0840   27.8090  -20.3150 O.co2     1 8UX        -0.5641
     18 CAL       -15.2110   25.7220  -22.4090 C.3       1 8UX         0.0574
     19 CAT       -13.8120   25.2290  -22.0210 C.2       1 8UX         0.0587
     20 CAI       -12.8390   25.1430  -22.9220 C.2       1 8UX        -0.0275
     21 NAM       -11.7720   24.6630  -22.3100 N.2       1 8UX        -0.3437
     22 CAH       -12.0580   24.4760  -21.0290 C.2       1 8UX         0.0875
     23 NAP       -13.3430   24.8040  -20.8360 N.pl3     1 8UX        -0.2622
     24 H1        -15.5022   24.2293  -15.7982 H         1 8UX         0.1022
     25 H2        -16.2242   21.8641  -15.5795 H         1 8UX         0.0303
     26 H3        -14.6353   22.1545  -14.7937 H         1 8UX         0.0303
     27 H4        -14.7117   21.3292  -16.3873 H         1 8UX         0.0303
     28 H5        -15.2538   23.9802  -18.3984 H         1 8UX         0.2047
     29 H6        -16.6590   24.0324  -17.5428 H         1 8UX         0.2047
     30 H7        -16.6965   21.5667  -17.6470 H         1 8UX         0.1027
     31 H8        -18.3741   22.1563  -19.0405 H         1 8UX         0.0391
     32 H9        -17.1987   21.7538  -20.3379 H         1 8UX         0.0391
     33 H10       -17.4566   24.5380  -19.1251 H         1 8UX         0.0817
     34 H11       -18.4059   23.9963  -20.5507 H         1 8UX         0.0817
     35 H12       -16.4433   23.6786  -21.7284 H         1 8UX         0.2032
     36 H13       -15.4885   23.9271  -20.4108 H         1 8UX         0.2032
     37 H14       -17.1609   25.9534  -21.6380 H         1 8UX         0.1049
     38 H15       -15.1416   26.7719  -22.7297 H         1 8UX         0.0518
     39 H16       -15.5859   25.1083  -23.2414 H         1 8UX         0.0518
     40 H17       -12.9089   25.4182  -23.9733 H         1 8UX         0.0324
     41 H18       -11.3684   24.1180  -20.2660 H         1 8UX         0.1149
     42 H19       -13.8682   24.7423  -19.9521 H         1 8UX         0.2386
@<TRIPOS>BOND
     1    1    2 ar 
     2    2    3 ar 
     3    2    4 1  
     4    4    5 1  
     5    4    6 1  
     6    6    7 1  
     7    7    8 1  
     8    7   11 1  
     9    8    9 ar 
    10    8   10 ar 
    11   11   12 1  
    12   12   13 1  
    13   13   14 1  
    14   14   15 1  
    15   14   18 1  
    16   15   16 ar 
    17   15   17 ar 
    18   18   19 1  
    19   19   20 2  
    20   19   23 1  
    21   20   21 1  
    22   21   22 2  
    23   22   23 1  
    24    4   24 1  
    25    5   25 1  
    26    5   26 1  
    27    5   27 1  
    28    6   28 1  
    29    6   29 1  
    30    7   30 1  
    31   11   31 1  
    32   11   32 1  
    33   12   33 1  
    34   12   34 1  
    35   13   35 1  
    36   13   36 1  
    37   14   37 1  
    38   18   38 1  
    39   18   39 1  
    40   20   40 1  
    41   22   41 1  
    42   23   42 1  
@<TRIPOS>SUBSTRUCTURE
     1 8UX         1

