### 
### Created by X-TOOL on Wed Jan  1 15:39:35 2020
### 

@<TRIPOS>MOLECULE
5yhe_ligand
   42    42     1     0     0
SMALL
GAST_HUCK


@<TRIPOS>ATOM
      1 O          11.0630   23.1680   20.6730 O.co2     1 8UX        -0.5643
      2 C          11.3310   22.6300   19.5640 C.2       1 8UX         0.0842
      3 OXT        10.5350   22.4570   18.6230 O.co2     1 8UX        -0.5643
      4 CA         12.7820   22.3270   19.2050 C.3       1 8UX         0.0288
      5 CB         12.7650   20.9760   18.4860 C.3       1 8UX        -0.0094
      6 N          13.7580   22.2790   20.3230 N.4       1 8UX         0.2547
      7 CAV        13.8920   21.1530   21.2950 C.3       1 8UX         0.0366
      8 CAR        12.6460   20.6070   22.0090 C.2       1 8UX         0.0847
      9 OAF        11.7590   21.3990   22.3960 O.co2     1 8UX        -0.5643
     10 OAC        12.6660   19.3700   22.1940 O.co2     1 8UX        -0.5643
     11 CAK        15.0710   21.4510   22.2700 C.3       1 8UX         0.0425
     12 CAJ        14.8650   22.8170   22.9420 C.3       1 8UX        -0.0251
     13 NAN        13.6550   22.9690   23.7590 N.4       1 8UX         0.2427
     14 CAW        13.5300   24.3870   24.1800 C.3       1 8UX         0.0413
     15 CAS        13.2140   25.3430   22.9850 C.2       1 8UX         0.0867
     16 OAG        13.5060   26.5490   23.1540 O.co2     1 8UX        -0.5641
     17 OAD        12.6670   24.8770   21.9450 O.co2     1 8UX        -0.5641
     18 CAL        12.4340   24.5290   25.2430 C.3       1 8UX         0.0574
     19 CAT        11.0630   24.0150   24.7690 C.2       1 8UX         0.0587
     20 CAI         9.9960   23.9110   25.5620 C.2       1 8UX        -0.0275
     21 NAM         8.9980   23.4350   24.8150 N.2       1 8UX        -0.3437
     22 CAH         9.4620   23.2390   23.5790 C.2       1 8UX         0.0875
     23 NAP        10.7500   23.5940   23.5430 N.pl3     1 8UX        -0.2622
     24 H1         13.1254   23.1060   18.5085 H         1 8UX         0.1022
     25 H2         13.7906   20.7003   18.1994 H         1 8UX         0.0303
     26 H3         12.1392   21.0484   17.5843 H         1 8UX         0.0303
     27 H4         12.3531   20.2084   19.1576 H         1 8UX         0.0303
     28 H5         13.5665   23.0954   20.8823 H         1 8UX         0.2047
     29 H6         14.6647   22.3717   19.8925 H         1 8UX         0.2047
     30 H7         14.2265   20.3049   20.6795 H         1 8UX         0.1027
     31 H8         16.0158   21.4610   21.7068 H         1 8UX         0.0391
     32 H9         15.1123   20.6681   23.0416 H         1 8UX         0.0391
     33 H10        14.8302   23.5780   22.1485 H         1 8UX         0.0817
     34 H11        15.7326   23.0041   23.5918 H         1 8UX         0.0817
     35 H12        13.7213   22.3793   24.5738 H         1 8UX         0.2032
     36 H13        12.8466   22.7048   23.2179 H         1 8UX         0.2032
     37 H14        14.4893   24.6955   24.6211 H         1 8UX         0.1049
     38 H15        12.3372   25.5927   25.5061 H         1 8UX         0.0518
     39 H16        12.7336   23.9568   26.1334 H         1 8UX         0.0518
     40 H17         9.9481   24.1663   26.6196 H         1 8UX         0.0324
     41 H18         8.8863   22.8536   22.7388 H         1 8UX         0.1149
     42 H19        11.3780   23.5508   22.7278 H         1 8UX         0.2386
@<TRIPOS>BOND
     1    1    2 ar 
     2    2    3 ar 
     3    2    4 1  
     4    4    5 1  
     5    4    6 1  
     6    6    7 1  
     7    7    8 1  
     8    7   11 1  
     9    8    9 ar 
    10    8   10 ar 
    11   11   12 1  
    12   12   13 1  
    13   13   14 1  
    14   14   15 1  
    15   14   18 1  
    16   15   16 ar 
    17   15   17 ar 
    18   18   19 1  
    19   19   20 2  
    20   19   23 1  
    21   20   21 1  
    22   21   22 2  
    23   22   23 1  
    24    4   24 1  
    25    5   25 1  
    26    5   26 1  
    27    5   27 1  
    28    6   28 1  
    29    6   29 1  
    30    7   30 1  
    31   11   31 1  
    32   11   32 1  
    33   12   33 1  
    34   12   34 1  
    35   13   35 1  
    36   13   36 1  
    37   14   37 1  
    38   18   38 1  
    39   18   39 1  
    40   20   40 1  
    41   22   41 1  
    42   23   42 1  
@<TRIPOS>SUBSTRUCTURE
     1 8UX         1

