### 
### Created by X-TOOL on Wed Jan  1 15:39:35 2020
### 

@<TRIPOS>MOLECULE
5yhg_ligand
   42    42     1     0     0
SMALL
GAST_HUCK


@<TRIPOS>ATOM
      1 O         103.6210   18.3950   47.4920 O.co2     1 8UX        -0.5643
      2 C         102.5440   18.9370   47.8210 C.2       1 8UX         0.0842
      3 OXT       101.5940   19.1520   47.0670 O.co2     1 8UX        -0.5643
      4 CA        102.3560   19.4870   49.2210 C.3       1 8UX         0.0288
      5 CB        101.7080   20.9210   49.1470 C.3       1 8UX        -0.0094
      6 N         103.6140   19.4060   49.9550 N.4       1 8UX         0.2547
      7 CAV       104.4590   20.6010   50.4350 C.3       1 8UX         0.0366
      8 CAR       105.1820   21.3490   49.3080 C.2       1 8UX         0.0847
      9 OAF       105.4760   22.5720   49.4520 O.co2     1 8UX        -0.5643
     10 OAC       105.4330   20.6740   48.3210 O.co2     1 8UX        -0.5643
     11 CAK       105.5320   20.2480   51.4410 C.3       1 8UX         0.0425
     12 CAJ       105.9380   18.7820   51.3670 C.3       1 8UX        -0.0251
     13 NAN       106.8720   18.5060   50.2850 N.4       1 8UX         0.2427
     14 CAW       107.2020   17.0710   50.1070 C.3       1 8UX         0.0413
     15 CAS       106.0420   16.0520   49.8830 C.2       1 8UX         0.0867
     16 OAG       106.3120   14.8580   50.3050 O.co2     1 8UX        -0.5641
     17 OAD       104.9020   16.4600   49.3980 O.co2     1 8UX        -0.5641
     18 CAL       108.3420   16.9470   49.1280 C.3       1 8UX         0.0574
     19 CAT       107.9140   17.4260   47.7890 C.2       1 8UX         0.0587
     20 CAI       108.7560   17.4650   46.8120 C.2       1 8UX        -0.0275
     21 NAM       108.1240   17.9650   45.7670 N.2       1 8UX        -0.3437
     22 CAH       106.8890   18.2250   46.0980 C.2       1 8UX         0.0875
     23 NAP       106.7390   17.9110   47.3730 N.pl3     1 8UX        -0.2622
     24 H1        101.6383   18.8398   49.7464 H         1 8UX         0.1022
     25 H2        101.5737   21.3156   50.1650 H         1 8UX         0.0303
     26 H3        100.7304   20.8563   48.6469 H         1 8UX         0.0303
     27 H4        102.3674   21.5924   48.5776 H         1 8UX         0.0303
     28 H5        104.2293   18.8664   49.3666 H         1 8UX         0.2047
     29 H6        103.4005   18.8812   50.7887 H         1 8UX         0.2047
     30 H7        103.7599   21.3011   50.9157 H         1 8UX         0.1027
     31 H8        105.1518   20.4586   52.4515 H         1 8UX         0.0391
     32 H9        106.4179   20.8701   51.2455 H         1 8UX         0.0391
     33 H10       105.0337   18.1748   51.2133 H         1 8UX         0.0817
     34 H11       106.4112   18.5005   52.3193 H         1 8UX         0.0817
     35 H12       107.7276   19.0046   50.4730 H         1 8UX         0.2032
     36 H13       106.4675   18.8447   49.4261 H         1 8UX         0.2032
     37 H14       107.6214   16.7664   51.0772 H         1 8UX         0.1049
     38 H15       108.6487   15.8930   49.0572 H         1 8UX         0.0518
     39 H16       109.1906   17.5532   49.4779 H         1 8UX         0.0518
     40 H17       109.7963   17.1444   46.8439 H         1 8UX         0.0324
     41 H18       106.1196   18.6285   45.4413 H         1 8UX         0.1149
     42 H19       105.8837   18.0188   47.9366 H         1 8UX         0.2386
@<TRIPOS>BOND
     1    1    2 ar 
     2    2    3 ar 
     3    2    4 1  
     4    4    5 1  
     5    4    6 1  
     6    6    7 1  
     7    7    8 1  
     8    7   11 1  
     9    8    9 ar 
    10    8   10 ar 
    11   11   12 1  
    12   12   13 1  
    13   13   14 1  
    14   14   15 1  
    15   14   18 1  
    16   15   16 ar 
    17   15   17 ar 
    18   18   19 1  
    19   19   20 2  
    20   19   23 1  
    21   20   21 1  
    22   21   22 2  
    23   22   23 1  
    24    4   24 1  
    25    5   25 1  
    26    5   26 1  
    27    5   27 1  
    28    6   28 1  
    29    6   29 1  
    30    7   30 1  
    31   11   31 1  
    32   11   32 1  
    33   12   33 1  
    34   12   34 1  
    35   13   35 1  
    36   13   36 1  
    37   14   37 1  
    38   18   38 1  
    39   18   39 1  
    40   20   40 1  
    41   22   41 1  
    42   23   42 1  
@<TRIPOS>SUBSTRUCTURE
     1 8UX         1

