### 
### Created by X-TOOL on Wed Jan  1 15:39:35 2020
### 

@<TRIPOS>MOLECULE
5yia_ligand
   94    98     1     0     0
SMALL
GAST_HUCK


@<TRIPOS>ATOM
      1 C34        22.8710  -20.3510  -25.6260 C.ar      1 8V9        -0.0664
      2 C35        20.8500  -18.9500  -27.1170 C.ar      1 8V9        -0.0394
      3 C36        22.3990  -19.1780  -25.1880 C.ar      1 8V9        -0.0394
      4 C37        21.3100  -18.4290  -25.9910 C.ar      1 8V9         0.0809
      5 C32        22.3360  -20.9580  -26.9320 C.ar      1 8V9        -0.0350
      6 C27        16.3030  -22.9500  -27.8100 C.ar      1 8V9        -0.0686
      7 C28        15.5210  -22.0990  -27.1600 C.ar      1 8V9        -0.0687
      8 C30        22.8860  -22.3240  -27.4590 C.3       1 8V9         0.0655
      9 C29        21.8150  -23.4610  -27.3100 C.2       1 8V9         0.1880
     10 C10        12.3040  -23.1140  -18.3870 C.3       1 8V9         0.0085
     11 S01        19.3590  -26.1490  -19.7660 S.3       1 8V9        -0.1252
     12 S02        23.1190  -27.5420  -26.5730 S.3       1 8V9        -0.1594
     13 O01        12.5730  -25.4670  -18.3290 O.3       1 8V9        -0.3857
     14 O02        16.7990  -24.0330  -20.0900 O.2       1 8V9        -0.3943
     15 O03        17.7720  -28.4890  -24.6300 O.3       1 8V9        -0.3689
     16 O04        16.0510  -27.9460  -22.6040 O.2       1 8V9        -0.3938
     17 O05        20.2460  -24.7630  -24.3740 O.2       1 8V9        -0.3945
     18 O06        20.7410  -23.4180  -27.8340 O.2       1 8V9        -0.3943
     19 O07        20.7960  -17.1920  -25.5270 O.3       1 8V9        -0.3374
     20 N01        17.5090  -26.4920  -21.5340 N.am      1 8V9        -0.2383
     21 N02        14.8570  -25.0020  -19.3970 N.am      1 8V9        -0.2691
     22 N03        18.8100  -26.0800  -25.6700 N.am      1 8V9        -0.2752
     23 N04        22.1570  -24.6210  -26.5020 N.am      1 8V9        -0.2634
     24 C01        16.7750  -26.4240  -20.2800 C.3       1 8V9         0.1486
     25 C02        17.7880  -26.9410  -19.2340 C.3       1 8V9         0.0532
     26 C03        14.2760  -23.8350  -18.9910 C.3       1 8V9         0.1007
     27 C04        18.7780  -25.6940  -21.4230 C.3       1 8V9         0.0831
     28 C05        16.1940  -25.0340  -19.9570 C.2       1 8V9         0.2053
     29 C06        13.1620  -24.0980  -18.0430 C.3       1 8V9         0.0951
     30 C07        17.9270  -28.4680  -19.4020 C.3       1 8V9        -0.0463
     31 C08        17.4620  -26.5420  -17.7770 C.3       1 8V9        -0.0463
     32 C09        13.4980  -23.1310  -20.2940 C.ar      1 8V9        -0.0133
     33 C11        12.2200  -22.7150  -19.7330 C.ar      1 8V9        -0.0361
     34 C12        17.0810  -27.3300  -22.6660 C.2       1 8V9         0.2129
     35 C13        17.9810  -27.3330  -23.9200 C.3       1 8V9         0.1683
     36 C14        17.6940  -26.0450  -24.7460 C.3       1 8V9         0.0945
     37 C15        13.7230  -22.9100  -21.6030 C.ar      1 8V9        -0.0646
     38 C16        11.2000  -21.9950  -20.7520 C.ar      1 8V9        -0.0667
     39 C17        16.3440  -26.1060  -25.4700 C.3       1 8V9         0.0086
     40 C18        12.9270  -22.3370  -22.3960 C.ar      1 8V9        -0.0754
     41 C19        11.6840  -21.8490  -22.1590 C.ar      1 8V9        -0.0755
     42 C20        16.0410  -24.6770  -26.0620 C.ar      1 8V9        -0.0406
     43 C22        21.1920  -25.6690  -26.3660 C.3       1 8V9         0.1398
     44 C23        15.1360  -23.6990  -25.3090 C.ar      1 8V9        -0.0603
     45 C24        16.5830  -24.3390  -27.2100 C.ar      1 8V9        -0.0603
     46 C25        21.8160  -26.8300  -25.6500 C.3       1 8V9         0.0338
     47 C26        14.8940  -22.4880  -25.8370 C.ar      1 8V9        -0.0686
     48 C31        22.5890  -27.9760  -28.2010 C.3       1 8V9        -0.0179
     49 C33        21.3950  -20.3050  -27.6300 C.ar      1 8V9        -0.0664
     50 C21        20.0650  -25.3830  -25.3750 C.2       1 8V9         0.2031
     51 H1         23.6322  -20.8739  -25.0583 H         1 8V9         0.0534
     52 H2         20.0883  -18.4257  -27.6826 H         1 8V9         0.0526
     53 H3         22.7811  -18.7515  -24.2676 H         1 8V9         0.0526
     54 H4         16.7431  -22.6684  -28.7598 H         1 8V9         0.0599
     55 H5         15.3289  -21.1176  -27.5784 H         1 8V9         0.0559
     56 H6         23.7819  -22.5969  -26.8821 H         1 8V9         0.0638
     57 H7         23.1519  -22.2183  -28.5211 H         1 8V9         0.0638
     58 H8         12.5860  -22.2240  -17.8053 H         1 8V9         0.0439
     59 H9         11.2988  -23.4449  -18.0868 H         1 8V9         0.0439
     60 H10        13.1971  -26.1378  -18.0777 H         1 8V9         0.2103
     61 H11        17.9851  -29.2372  -24.0847 H         1 8V9         0.2134
     62 H12        20.1406  -16.8739  -26.1368 H         1 8V9         0.2459
     63 H13        14.3469  -25.8573  -19.3057 H         1 8V9         0.1881
     64 H14        18.7220  -26.5898  -26.5258 H         1 8V9         0.1859
     65 H15        23.0473  -24.6849  -26.0512 H         1 8V9         0.1884
     66 H16        15.9253  -27.1209  -20.3279 H         1 8V9         0.0816
     67 H17        15.0302  -23.1654  -18.5520 H         1 8V9         0.0732
     68 H18        19.5038  -25.9863  -22.1962 H         1 8V9         0.0640
     69 H19        18.5798  -24.6144  -21.4955 H         1 8V9         0.0640
     70 H20        13.4761  -24.0262  -16.9912 H         1 8V9         0.0659
     71 H21        16.9937  -28.9579  -19.0874 H         1 8V9         0.0245
     72 H22        18.7591  -28.8310  -18.7808 H         1 8V9         0.0245
     73 H23        18.1272  -28.7041  -20.4575 H         1 8V9         0.0245
     74 H24        16.5210  -27.0203  -17.4677 H         1 8V9         0.0245
     75 H25        17.3567  -25.4491  -17.7109 H         1 8V9         0.0245
     76 H26        18.2761  -26.8727  -17.1153 H         1 8V9         0.0245
     77 H27        19.0345  -27.3116  -23.6044 H         1 8V9         0.0863
     78 H28        17.7228  -25.1461  -24.1127 H         1 8V9         0.0630
     79 H29        14.6675  -23.2533  -22.0094 H         1 8V9         0.0538
     80 H30        10.2255  -21.6394  -20.4374 H         1 8V9         0.0537
     81 H31        15.5530  -26.3911  -24.7607 H         1 8V9         0.0451
     82 H32        16.3904  -26.8445  -26.2839 H         1 8V9         0.0451
     83 H33        13.2876  -22.2176  -23.4113 H         1 8V9         0.0541
     84 H34        11.0843  -21.3862  -22.9343 H         1 8V9         0.0541
     85 H35        20.8009  -25.9390  -27.3580 H         1 8V9         0.0808
     86 H36        14.6950  -23.9807  -24.3597 H         1 8V9         0.0557
     87 H37        17.2261  -25.0372  -27.7335 H         1 8V9         0.0557
     88 H38        22.2130  -26.4810  -24.6853 H         1 8V9         0.0424
     89 H39        21.0454  -27.5950  -25.4742 H         1 8V9         0.0424
     90 H40        14.2498  -21.7888  -25.3163 H         1 8V9         0.0599
     91 H41        23.4298  -28.4201  -28.7541 H         1 8V9         0.0341
     92 H42        22.2404  -27.0743  -28.7257 H         1 8V9         0.0341
     93 H43        21.7668  -28.7040  -28.1371 H         1 8V9         0.0341
     94 H44        21.0159  -20.7264  -28.5540 H         1 8V9         0.0534
@<TRIPOS>BOND
     1    1    3 ar 
     2    5    1 ar 
     3    2    4 ar 
     4   49    2 ar 
     5    3    4 ar 
     6    4   19 1  
     7    8    5 1  
     8    5   49 ar 
     9    6    7 ar 
    10   45    6 ar 
    11    7   47 ar 
    12    9    8 1  
    13    9   18 2  
    14   23    9 am 
    15   29   10 1  
    16   33   10 1  
    17   11   25 1  
    18   27   11 1  
    19   46   12 1  
    20   12   48 1  
    21   29   13 1  
    22   28   14 2  
    23   35   15 1  
    24   34   16 2  
    25   50   17 2  
    26   20   24 1  
    27   20   27 1  
    28   34   20 am 
    29   21   26 1  
    30   28   21 am 
    31   22   36 1  
    32   50   22 am 
    33   43   23 1  
    34   24   25 1  
    35   24   28 1  
    36   25   30 1  
    37   25   31 1  
    38   26   29 1  
    39   26   32 1  
    40   32   33 ar 
    41   32   37 ar 
    42   33   38 ar 
    43   35   34 1  
    44   36   35 1  
    45   36   39 1  
    46   37   40 ar 
    47   38   41 ar 
    48   39   42 1  
    49   40   41 ar 
    50   42   44 ar 
    51   42   45 ar 
    52   43   46 1  
    53   43   50 1  
    54   44   47 ar 
    55    1   51 1  
    56    2   52 1  
    57    3   53 1  
    58    6   54 1  
    59    7   55 1  
    60    8   56 1  
    61    8   57 1  
    62   10   58 1  
    63   10   59 1  
    64   13   60 1  
    65   15   61 1  
    66   19   62 1  
    67   21   63 1  
    68   22   64 1  
    69   23   65 1  
    70   24   66 1  
    71   26   67 1  
    72   27   68 1  
    73   27   69 1  
    74   29   70 1  
    75   30   71 1  
    76   30   72 1  
    77   30   73 1  
    78   31   74 1  
    79   31   75 1  
    80   31   76 1  
    81   35   77 1  
    82   36   78 1  
    83   37   79 1  
    84   38   80 1  
    85   39   81 1  
    86   39   82 1  
    87   40   83 1  
    88   41   84 1  
    89   43   85 1  
    90   44   86 1  
    91   45   87 1  
    92   46   88 1  
    93   46   89 1  
    94   47   90 1  
    95   48   91 1  
    96   48   92 1  
    97   48   93 1  
    98   49   94 1  
@<TRIPOS>SUBSTRUCTURE
     1 8V9         1

