### 
### Created by X-TOOL on Wed Jan  1 15:39:35 2020
### 

@<TRIPOS>MOLECULE
5yie_ligand
  103   107     1     0     0
SMALL
GAST_HUCK


@<TRIPOS>ATOM
      1 C1         14.1740  -23.0400  -21.7230 C.ar      1 8VF        -0.0646
      2 C2         13.3230  -22.3860  -22.6330 C.ar      1 8VF        -0.0754
      3 C3         12.1210  -21.7800  -22.1750 C.ar      1 8VF        -0.0755
      4 C4         11.6450  -22.0370  -20.8780 C.ar      1 8VF        -0.0667
      5 C5         12.5400  -22.7190  -19.9030 C.ar      1 8VF        -0.0361
      6 C6         13.7310  -23.1740  -20.3080 C.ar      1 8VF        -0.0133
      7 C7         12.3120  -22.9490  -18.4030 C.3       1 8VF         0.0085
      8 C8         13.3490  -24.0370  -18.2190 C.3       1 8VF         0.0951
      9 C9         14.4690  -23.8150  -19.1770 C.3       1 8VF         0.1007
     10 O10        12.7090  -25.2870  -18.4440 O.3       1 8VF        -0.3857
     11 N11        15.1250  -25.0970  -19.4700 N.am      1 8VF        -0.2691
     12 C12        16.4890  -25.2450  -19.9600 C.2       1 8VF         0.2053
     13 C13        19.1600  -26.3360  -21.0920 C.3       1 8VF         0.0831
     14 N14        17.8060  -26.7790  -21.2770 N.am      1 8VF        -0.2383
     15 C15        17.0050  -26.6300  -20.1200 C.3       1 8VF         0.1486
     16 C16        17.9750  -27.1300  -19.0230 C.3       1 8VF         0.0532
     17 S17        19.5180  -26.4140  -19.4530 S.3       1 8VF        -0.1252
     18 O18        17.1600  -24.2680  -20.1850 O.2       1 8VF        -0.3943
     19 C19        17.5210  -26.6700  -17.6040 C.3       1 8VF        -0.0463
     20 C20        18.0110  -28.6500  -19.0820 C.3       1 8VF        -0.0463
     21 C21        17.2510  -27.3640  -22.4690 C.2       1 8VF         0.2129
     22 C22        18.0760  -27.5250  -23.7350 C.3       1 8VF         0.1683
     23 O23        16.0860  -27.6920  -22.4540 O.2       1 8VF        -0.3938
     24 C24        17.9410  -26.2100  -24.5000 C.3       1 8VF         0.0945
     25 N25        19.0760  -26.0770  -25.3540 N.am      1 8VF        -0.2750
     26 O26        17.4780  -28.6260  -24.3900 O.3       1 8VF        -0.3689
     27 C27        16.6800  -26.1560  -25.3720 C.3       1 8VF         0.0086
     28 C28        16.4750  -24.7610  -25.9980 C.ar      1 8VF        -0.0406
     29 C29        17.0760  -24.4340  -27.2060 C.ar      1 8VF        -0.0603
     30 C30        16.8650  -23.1350  -27.7540 C.ar      1 8VF        -0.0686
     31 C31        16.0560  -22.2160  -27.0760 C.ar      1 8VF        -0.0687
     32 C32        15.4460  -22.5480  -25.8710 C.ar      1 8VF        -0.0686
     33 C33        15.6590  -23.8310  -25.3170 C.ar      1 8VF        -0.0603
     34 C34        20.1390  -25.2340  -24.9870 C.2       1 8VF         0.2065
     35 C35        21.3170  -25.1580  -25.9900 C.3       1 8VF         0.1528
     36 O36        20.1540  -24.5930  -23.9660 O.2       1 8VF        -0.3942
     37 O37        21.0830  -26.2050  -26.9130 O.3       1 8VF        -0.3139
     38 C38        22.1560  -26.2010  -27.8780 C.ar      1 8VF         0.0831
     39 C39        24.2900  -26.1210  -29.7110 C.ar      1 8VF         0.0159
     40 C40        24.4630  -26.7660  -28.4850 C.ar      1 8VF        -0.0581
     41 C41        23.4160  -26.8210  -27.5570 C.ar      1 8VF        -0.0341
     42 C42        21.9660  -25.5480  -29.0650 C.ar      1 8VF        -0.0341
     43 C43        23.0300  -25.5090  -30.0000 C.ar      1 8VF        -0.0581
     44 C44        23.6140  -27.5260  -26.2510 C.3       1 8VF        -0.0375
     45 C45        20.6240  -24.8890  -29.4090 C.3       1 8VF        -0.0375
     46 N46        25.4000  -26.0630  -30.6840 N.pl3     1 8VF        -0.3123
     47 C47        25.5340  -24.9320  -31.5210 C.3       1 8VF         0.0220
     48 C48        24.7190  -25.1270  -32.7890 C.3       1 8VF        -0.0457
     49 C49        26.3640  -27.1330  -30.8090 C.3       1 8VF         0.0644
     50 C50        27.6840  -26.7690  -30.0970 C.3       1 8VF        -0.0156
     51 N51        28.7740  -27.5870  -30.6600 N.4       1 8VF         0.2199
     52 H1         15.1300  -23.4370  -22.0448 H         1 8VF         0.0538
     53 H2         13.5840  -22.3441  -23.6843 H         1 8VF         0.0541
     54 H3         11.5687  -21.1160  -22.8300 H         1 8VF         0.0541
     55 H4         10.6416  -21.7432  -20.5918 H         1 8VF         0.0537
     56 H5         11.2927  -23.2984  -18.1817 H         1 8VF         0.0439
     57 H6         12.5313  -22.0538  -17.8026 H         1 8VF         0.0439
     58 H7         13.7428  -24.0081  -17.1923 H         1 8VF         0.0659
     59 H8         15.2209  -23.1222  -18.7712 H         1 8VF         0.0732
     60 H9         13.3404  -25.9886  -18.3364 H         1 8VF         0.2103
     61 H10        14.5945  -25.9316  -19.3217 H         1 8VF         0.1881
     62 H11        19.2648  -25.3002  -21.4472 H         1 8VF         0.0640
     63 H12        19.8451  -26.9875  -21.6542 H         1 8VF         0.0640
     64 H13        16.1336  -27.2993  -20.1713 H         1 8VF         0.0816
     65 H14        18.2325  -27.0430  -16.8526 H         1 8VF         0.0245
     66 H15        16.5192  -27.0715  -17.3914 H         1 8VF         0.0245
     67 H16        17.4911  -25.5710  -17.5669 H         1 8VF         0.0245
     68 H17        18.6955  -29.0308  -18.3097 H         1 8VF         0.0245
     69 H18        18.3627  -28.9702  -20.0738 H         1 8VF         0.0245
     70 H19        17.0009  -29.0479  -18.9050 H         1 8VF         0.0245
     71 H20        19.1345  -27.7311  -23.5181 H         1 8VF         0.0863
     72 H21        17.9138  -25.3786  -23.7803 H         1 8VF         0.0630
     73 H22        19.1153  -26.5843  -26.2149 H         1 8VF         0.1859
     74 H23        17.5969  -29.4084  -23.8645 H         1 8VF         0.2134
     75 H24        15.8061  -26.3987  -24.7496 H         1 8VF         0.0451
     76 H25        16.7730  -26.8979  -26.1787 H         1 8VF         0.0451
     77 H26        17.6965  -25.1557  -27.7248 H         1 8VF         0.0557
     78 H27        17.3301  -22.8597  -28.6937 H         1 8VF         0.0599
     79 H28        15.9023  -21.2290  -27.4971 H         1 8VF         0.0559
     80 H29        14.8135  -21.8300  -25.3616 H         1 8VF         0.0599
     81 H30        15.1980  -24.0999  -24.3735 H         1 8VF         0.0557
     82 H31        22.2758  -25.3071  -25.4718 H         1 8VF         0.0848
     83 H32        21.3250  -24.1852  -26.5034 H         1 8VF         0.0848
     84 H33        25.4151  -27.2277  -28.2497 H         1 8VF         0.0372
     85 H34        22.8866  -25.0070  -30.9500 H         1 8VF         0.0372
     86 H35        22.6896  -27.4654  -25.6578 H         1 8VF         0.0365
     87 H36        24.4365  -27.0491  -25.6979 H         1 8VF         0.0365
     88 H37        23.8612  -28.5815  -26.4378 H         1 8VF         0.0365
     89 H38        19.9255  -25.0196  -28.5693 H         1 8VF         0.0365
     90 H39        20.2051  -25.3592  -30.3109 H         1 8VF         0.0365
     91 H40        20.7791  -23.8157  -29.5933 H         1 8VF         0.0365
     92 H41        26.5932  -24.7974  -31.7854 H         1 8VF         0.0507
     93 H42        25.1726  -24.0397  -30.9889 H         1 8VF         0.0507
     94 H43        24.8284  -24.2432  -33.4347 H         1 8VF         0.0248
     95 H44        23.6591  -25.2605  -32.5268 H         1 8VF         0.0248
     96 H45        25.0797  -26.0183  -33.3233 H         1 8VF         0.0248
     97 H46        26.5672  -27.3124  -31.8751 H         1 8VF         0.0562
     98 H47        25.9500  -28.0459  -30.3559 H         1 8VF         0.0562
     99 H48        27.5899  -26.9709  -29.0198 H         1 8VF         0.0832
    100 H49        27.9051  -25.7027  -30.2523 H         1 8VF         0.0832
    101 H50        29.6403  -27.3550  -30.1998 H         1 8VF         0.1995
    102 H51        28.8578  -27.4015  -31.6472 H         1 8VF         0.1995
    103 H52        28.5691  -28.5636  -30.5178 H         1 8VF         0.1995
@<TRIPOS>BOND
     1    1    2 ar 
     2    6    1 ar 
     3    2    3 ar 
     4    4    3 ar 
     5    5    4 ar 
     6    6    5 ar 
     7    7    5 1  
     8    9    6 1  
     9    8    7 1  
    10    9    8 1  
    11    8   10 1  
    12   11    9 1  
    13   12   11 am 
    14   15   12 1  
    15   12   18 2  
    16   14   13 1  
    17   13   17 1  
    18   14   15 1  
    19   21   14 am 
    20   15   16 1  
    21   16   17 1  
    22   16   19 1  
    23   16   20 1  
    24   22   21 1  
    25   21   23 2  
    26   24   22 1  
    27   22   26 1  
    28   25   24 1  
    29   24   27 1  
    30   34   25 am 
    31   27   28 1  
    32   28   29 ar 
    33   28   33 ar 
    34   29   30 ar 
    35   30   31 ar 
    36   32   31 ar 
    37   33   32 ar 
    38   35   34 1  
    39   34   36 2  
    40   37   35 1  
    41   38   37 1  
    42   41   38 ar 
    43   38   42 ar 
    44   40   39 ar 
    45   39   43 ar 
    46   39   46 1  
    47   40   41 ar 
    48   41   44 1  
    49   42   43 ar 
    50   42   45 1  
    51   46   47 1  
    52   46   49 1  
    53   47   48 1  
    54   49   50 1  
    55   50   51 1  
    56    1   52 1  
    57    2   53 1  
    58    3   54 1  
    59    4   55 1  
    60    7   56 1  
    61    7   57 1  
    62    8   58 1  
    63    9   59 1  
    64   10   60 1  
    65   11   61 1  
    66   13   62 1  
    67   13   63 1  
    68   15   64 1  
    69   19   65 1  
    70   19   66 1  
    71   19   67 1  
    72   20   68 1  
    73   20   69 1  
    74   20   70 1  
    75   22   71 1  
    76   24   72 1  
    77   25   73 1  
    78   26   74 1  
    79   27   75 1  
    80   27   76 1  
    81   29   77 1  
    82   30   78 1  
    83   31   79 1  
    84   32   80 1  
    85   33   81 1  
    86   35   82 1  
    87   35   83 1  
    88   40   84 1  
    89   43   85 1  
    90   44   86 1  
    91   44   87 1  
    92   44   88 1  
    93   45   89 1  
    94   45   90 1  
    95   45   91 1  
    96   47   92 1  
    97   47   93 1  
    98   48   94 1  
    99   48   95 1  
   100   48   96 1  
   101   49   97 1  
   102   49   98 1  
   103   50   99 1  
   104   50  100 1  
   105   51  101 1  
   106   51  102 1  
   107   51  103 1  
@<TRIPOS>SUBSTRUCTURE
     1 8VF         1

