### 
### Created by X-TOOL on Wed Jan  1 15:39:36 2020
### 

@<TRIPOS>MOLECULE
5yjb_ligand
   55    58     1     0     0
SMALL
GAST_HUCK


@<TRIPOS>ATOM
      1 C4          7.2720  -51.2260  -39.9550 C.ar      1 8WC        -0.0586
      2 C5          6.6260  -51.4320  -38.7520 C.ar      1 8WC        -0.0589
      3 C6          7.2580  -51.1490  -37.5380 C.ar      1 8WC        -0.0120
      4 N1         -0.0780  -53.1700  -31.1020 N.4       1 8WC         0.2270
      5 C7          6.6330  -51.5350  -36.2410 C.ar      1 8WC         0.0471
      6 C8          6.3070  -52.8750  -35.9130 C.ar      1 8WC         0.0114
      7 N2          6.3250  -50.5090  -35.4310 N.ar      1 8WC        -0.3009
      8 C9          6.6890  -54.0570  -36.7340 C.ar      1 8WC        -0.0058
      9 C10         5.7280  -54.9970  -37.1140 C.ar      1 8WC        -0.0426
     10 C11         6.0710  -56.1160  -37.8530 C.ar      1 8WC        -0.0267
     11 C12         7.3950  -56.3170  -38.2460 C.ar      1 8WC         0.0948
     12 C13         7.7360  -57.4390  -39.0860 C.1       1 8WC         0.0991
     13 C14         8.3680  -55.3860  -37.8740 C.ar      1 8WC        -0.0267
     14 C15         8.0140  -54.2720  -37.1270 C.ar      1 8WC        -0.0426
     15 N           7.9720  -58.3320  -39.7630 N.1       1 8WC        -0.3298
     16 C           9.2420  -50.4470  -41.3250 C.3       1 8WC        -0.0304
     17 O           4.5550  -52.0670  -32.7400 O.3       1 8WC        -0.3101
     18 C1          8.5580  -50.7150  -40.0050 C.ar      1 8WC        -0.0445
     19 C16         5.5900  -53.0920  -34.7370 C.ar      1 8WC        -0.0049
     20 C17         5.2600  -52.0220  -33.9250 C.ar      1 8WC         0.1197
     21 C18         4.0760  -53.3210  -32.2380 C.3       1 8WC         0.0754
     22 C19         2.5680  -53.2630  -32.2520 C.3       1 8WC        -0.0034
     23 C2          9.1820  -50.4100  -38.8030 C.ar      1 8WC        -0.0586
     24 C20         1.9580  -54.4740  -31.5660 C.3       1 8WC        -0.0071
     25 C21         0.4490  -54.4010  -31.7140 C.3       1 8WC        -0.0333
     26 C22         0.5320  -51.9850  -31.7100 C.3       1 8WC        -0.0333
     27 C23         2.0430  -52.0130  -31.5720 C.3       1 8WC        -0.0071
     28 C24         5.6550  -50.7560  -34.2980 C.ar      1 8WC         0.0391
     29 C3          8.5410  -50.6130  -37.5930 C.ar      1 8WC        -0.0589
     30 H1          6.7616  -51.4695  -40.8798 H         1 8WC         0.0562
     31 H2          5.6134  -51.8190  -38.7492 H         1 8WC         0.0613
     32 H3          0.1268  -53.1776  -30.1151 H         1 8WC         0.2013
     33 H4         -1.0762  -53.1344  -31.2378 H         1 8WC         0.2013
     34 H5          4.6941  -54.8472  -36.8247 H         1 8WC         0.0650
     35 H6          5.3099  -56.8376  -38.1270 H         1 8WC         0.0716
     36 H7          9.4004  -55.5343  -38.1693 H         1 8WC         0.0716
     37 H8          8.7770  -53.5562  -36.8431 H         1 8WC         0.0650
     38 H9         10.2496  -50.0460  -41.1410 H         1 8WC         0.0395
     39 H10         8.6555  -49.7153  -41.9000 H         1 8WC         0.0395
     40 H11         9.3190  -51.3846  -41.8951 H         1 8WC         0.0395
     41 H12         5.2920  -54.0967  -34.4598 H         1 8WC         0.0669
     42 H13         4.4372  -53.4781  -31.2109 H         1 8WC         0.0619
     43 H14         4.4271  -54.1424  -32.8799 H         1 8WC         0.0619
     44 H15         2.2401  -53.2528  -33.3019 H         1 8WC         0.0331
     45 H16        10.1879  -50.0062  -38.8121 H         1 8WC         0.0562
     46 H17         2.2269  -54.4711  -30.4994 H         1 8WC         0.0320
     47 H18         2.3329  -55.3950  -32.0362 H         1 8WC         0.0320
     48 H19         0.1908  -54.4112  -32.7832 H         1 8WC         0.0814
     49 H20        -0.0043  -55.2724  -31.2189 H         1 8WC         0.0814
     50 H21         0.1429  -51.0852  -31.2110 H         1 8WC         0.0814
     51 H22         0.2699  -51.9545  -32.7779 H         1 8WC         0.0814
     52 H23         2.4753  -51.1217  -32.0501 H         1 8WC         0.0320
     53 H24         2.3176  -52.0274  -30.5069 H         1 8WC         0.0320
     54 H25         5.4131  -49.9241  -33.6465 H         1 8WC         0.0759
     55 H26         9.0477  -50.3497  -36.6716 H         1 8WC         0.0613
@<TRIPOS>BOND
     1    2    1 ar 
     2    1   18 ar 
     3    3    2 ar 
     4    5    3 1  
     5    3   29 ar 
     6   25    4 1  
     7    4   26 1  
     8    6    5 ar 
     9    7    5 ar 
    10    6    8 1  
    11   19    6 ar 
    12   28    7 ar 
    13    8    9 ar 
    14    8   14 ar 
    15    9   10 ar 
    16   10   11 ar 
    17   11   12 1  
    18   13   11 ar 
    19   12   15 3  
    20   14   13 ar 
    21   18   16 1  
    22   17   20 1  
    23   21   17 1  
    24   23   18 ar 
    25   20   19 ar 
    26   20   28 ar 
    27   22   21 1  
    28   24   22 1  
    29   22   27 1  
    30   29   23 ar 
    31   24   25 1  
    32   26   27 1  
    33    1   30 1  
    34    2   31 1  
    35    4   32 1  
    36    4   33 1  
    37    9   34 1  
    38   10   35 1  
    39   13   36 1  
    40   14   37 1  
    41   16   38 1  
    42   16   39 1  
    43   16   40 1  
    44   19   41 1  
    45   21   42 1  
    46   21   43 1  
    47   22   44 1  
    48   23   45 1  
    49   24   46 1  
    50   24   47 1  
    51   25   48 1  
    52   25   49 1  
    53   26   50 1  
    54   26   51 1  
    55   27   52 1  
    56   27   53 1  
    57   28   54 1  
    58   29   55 1  
@<TRIPOS>SUBSTRUCTURE
     1 8WC         1

