### 
### Created by X-TOOL on Wed Jan  1 15:39:38 2020
### 

@<TRIPOS>MOLECULE
5yjf_ligand
   23    23     1     0     0
SMALL
GAST_HUCK


@<TRIPOS>ATOM
      1 C4         -4.2910   -6.6830   10.2630 C.ar      1 8WO         0.0521
      2 C5         -4.6620   -5.3850   10.0030 C.ar      1 8WO         0.0938
      3 C2         -4.0370   -7.0100    7.9000 C.ar      1 8WO         0.0913
      4 C3         -3.9790   -7.4900    9.1940 C.ar      1 8WO         0.1574
      5 C1         -4.7040   -4.9320    8.7010 C.ar      1 8WO         0.2756
      6 C6         -3.5950   -8.8870    9.4710 C.2       1 8WO         0.2762
      7 C8         -4.4440   -5.2380    6.3270 C.3       1 8WO         0.0174
      8 C7         -5.3360   -2.9920    9.6840 C.3       1 8WO         0.0976
      9 N1         -4.3960   -5.7420    7.6890 N.ar      1 8WO        -0.2619
     10 N2         -3.1680   -9.5730    8.3480 N.am      1 8WO        -0.2867
     11 O1         -3.6800   -9.3240   10.6220 O.2       1 8WO        -0.3295
     12 O2         -5.0690   -3.6240    8.4420 O.3       1 8WO        -0.2227
     13 H1         -4.2458   -7.0586   11.2788 H         1 8WO         0.0981
     14 H2         -4.9207   -4.7197   10.8188 H         1 8WO         0.1198
     15 H3         -3.7935   -7.6565    7.0646 H         1 8WO         0.1285
     16 H4         -4.1610   -6.0398    5.6292 H         1 8WO         0.0415
     17 H5         -3.7431   -4.3967    6.2224 H         1 8WO         0.0415
     18 H6         -5.4642   -4.8960    6.0983 H         1 8WO         0.0415
     19 H7         -5.6297   -1.9467    9.5078 H         1 8WO         0.0671
     20 H8         -4.4323   -3.0182   10.3106 H         1 8WO         0.0671
     21 H9         -6.1530   -3.5210   10.1965 H         1 8WO         0.0671
     22 H10        -2.8838  -10.5287    8.4239 H         1 8WO         0.1836
     23 H11        -3.1436   -9.1131    7.4604 H         1 8WO         0.1836
@<TRIPOS>BOND
     1    1    2 ar 
     2    1    4 ar 
     3    2    5 ar 
     4    4    3 ar 
     5    3    9 ar 
     6    4    6 1  
     7    5    9 ar 
     8    5   12 1  
     9    6   10 am 
    10    6   11 2  
    11    9    7 1  
    12   12    8 1  
    13    1   13 1  
    14    2   14 1  
    15    3   15 1  
    16    7   16 1  
    17    7   17 1  
    18    7   18 1  
    19    8   19 1  
    20    8   20 1  
    21    8   21 1  
    22   10   22 1  
    23   10   23 1  
@<TRIPOS>SUBSTRUCTURE
     1 8WO         1

