### 
### Created by X-TOOL on Wed Jan  1 15:39:37 2020
### 

@<TRIPOS>MOLECULE
5yji_ligand
   23    23     1     0     0
SMALL
GAST_HUCK


@<TRIPOS>ATOM
      1 C4         16.6500   18.0640   15.6090 C.ar      1 8WO         0.0521
      2 C5         16.8520   17.0450   14.7050 C.ar      1 8WO         0.0938
      3 C2         14.6020   18.6160   14.4830 C.ar      1 8WO         0.0913
      4 C3         15.5170   18.8410   15.4870 C.ar      1 8WO         0.1574
      5 C1         15.9150   16.8430   13.7130 C.ar      1 8WO         0.2756
      6 C6         15.3050   19.9360   16.4380 C.2       1 8WO         0.2762
      7 C8         13.8780   17.3820   12.5700 C.3       1 8WO         0.0174
      8 C7         17.1040   14.9390   13.1060 C.3       1 8WO         0.0976
      9 N1         14.8370   17.6230   13.6350 N.ar      1 8WO        -0.2619
     10 N2         14.0070   20.3530   16.5710 N.am      1 8WO        -0.2867
     11 O1         16.2700   20.4050   17.0220 O.2       1 8WO        -0.3295
     12 O2         16.0600   15.8380   12.7670 O.3       1 8WO        -0.2227
     13 H1         17.3668   18.2516   16.4003 H         1 8WO         0.0981
     14 H2         17.7306   16.4136   14.7717 H         1 8WO         0.1198
     15 H3         13.7153   19.2323   14.3881 H         1 8WO         0.1285
     16 H4         13.0542   18.1068   12.6475 H         1 8WO         0.0415
     17 H5         13.4780   16.3613   12.6607 H         1 8WO         0.0415
     18 H6         14.3758   17.4955   11.5957 H         1 8WO         0.0415
     19 H7         17.1839   14.1613   12.3321 H         1 8WO         0.0671
     20 H8         16.8832   14.4696   14.0760 H         1 8WO         0.0671
     21 H9         18.0543   15.4890   13.1726 H         1 8WO         0.0671
     22 H10        13.7827   21.0962   17.2013 H         1 8WO         0.1836
     23 H11        13.2837   19.9142   16.0378 H         1 8WO         0.1836
@<TRIPOS>BOND
     1    1    2 ar 
     2    1    4 ar 
     3    2    5 ar 
     4    4    3 ar 
     5    3    9 ar 
     6    4    6 1  
     7    5    9 ar 
     8    5   12 1  
     9    6   10 am 
    10    6   11 2  
    11    9    7 1  
    12   12    8 1  
    13    1   13 1  
    14    2   14 1  
    15    3   15 1  
    16    7   16 1  
    17    7   17 1  
    18    7   18 1  
    19    8   19 1  
    20    8   20 1  
    21    8   21 1  
    22   10   22 1  
    23   10   23 1  
@<TRIPOS>SUBSTRUCTURE
     1 8WO         1

