### 
### Created by X-TOOL on Mon Sep 10 21:13:33 2018
### 

@<TRIPOS>MOLECULE
5yjk_ligand
   66    68     1     0     0
SMALL
GAST_HUCK


@<TRIPOS>ATOM
      1 C1         18.9440   38.3110   22.9260 C.2       1 8VX         0.1895
      2 O2         17.8390   38.4270   23.4440 O.2       1 8VX        -0.3960
      3 CL2        16.4780   34.2500   17.4410 Cl        1 8VX        -0.0828
      4 C9         17.1550   35.7860   17.7790 C.ar      1 8VX         0.0218
      5 C10        17.1700   36.2830   19.0810 C.ar      1 8VX        -0.0548
      6 C8         17.6830   36.5470   16.7380 C.ar      1 8VX        -0.0636
      7 C7         18.2620   37.7820   16.9830 C.ar      1 8VX        -0.0389
      8 C6         18.3020   38.3080   18.2830 C.ar      1 8VX         0.0930
      9 O23        18.8430   39.5200   18.5630 O.3       1 8VX        -0.3246
     10 C24        19.4270   40.3080   17.5410 C.3       1 8VX         0.0579
     11 C5         17.7290   37.5450   19.3250 C.ar      1 8VX        -0.0105
     12 C4         17.7060   37.9910   20.7600 C.3       1 8VX         0.0007
     13 C3         19.0400   37.8250   21.4810 C.3       1 8VX         0.0769
     14 C11        19.6590   36.4170   21.3350 C.3       1 8VX         0.0486
     15 N12        21.0690   36.2570   21.6410 N.pl3     1 8VX        -0.3044
     16 C13        21.8960   37.0800   22.3920 C.2       1 8VX         0.1137
     17 N14        23.1400   36.8940   22.6080 N.2       1 8VX        -0.2604
     18 N62        23.7270   35.7890   22.0690 N.pl3     1 8VX        -0.3004
     19 C63        24.6790   36.1200   20.9960 C.3       1 8VX         0.0147
     20 C68        24.1020   34.8120   23.0790 C.3       1 8VX         0.0147
     21 C15        21.3940   38.3840   23.0180 C.3       1 8VX         0.1034
     22 N16        20.0580   38.5060   23.6120 N.am      1 8VX        -0.2369
     23 C17        20.0270   38.9770   25.0030 C.3       1 8VX         0.1312
     24 C19        19.4380   40.3680   25.1590 C.2       1 8VX         0.2265
     25 O30        19.8300   41.1890   24.3490 O.2       1 8VX        -0.3826
     26 N20        18.5550   40.5770   26.1430 N.am      1 8VX        -0.2322
     27 C21        17.8870   41.7820   26.4730 C.ar      1 8VX         0.0681
     28 C25        18.1190   43.0300   25.8400 C.ar      1 8VX        -0.0165
     29 C29        16.9340   41.7470   27.4980 C.ar      1 8VX        -0.0412
     30 C28        16.2330   42.9080   27.8640 C.ar      1 8VX        -0.0738
     31 C27        16.4600   44.1320   27.2190 C.ar      1 8VX        -0.0524
     32 C26        17.4210   44.1970   26.2040 C.ar      1 8VX         0.0745
     33 S31        17.8090   45.7080   25.3040 S.o2      1 8VX        -0.0092
     34 O32        18.3160   45.2690   24.0200 O.2       1 8VX        -0.1699
     35 O33        16.6430   46.5570   25.1430 O.2       1 8VX        -0.1699
     36 C72        19.1300   46.6540   26.1290 C.3       1 8VX         0.0593
     37 H1         16.7543   35.7005   19.8952 H         1 8VX         0.0532
     38 H2         17.6403   36.1681   15.7233 H         1 8VX         0.0538
     39 H3         18.6882   38.3472   16.1621 H         1 8VX         0.0522
     40 H4         19.8046   41.2467   17.9724 H         1 8VX         0.0575
     41 H5         18.6705   40.5346   16.7752 H         1 8VX         0.0575
     42 H6         20.2594   39.7546   17.0817 H         1 8VX         0.0575
     43 H7         16.9478   37.3996   21.2943 H         1 8VX         0.0431
     44 H8         17.4277   39.0548   20.7875 H         1 8VX         0.0431
     45 H9         19.7423   38.5063   20.9785 H         1 8VX         0.0578
     46 H10        19.5132   36.1023   20.2911 H         1 8VX         0.0548
     47 H11        19.1011   35.7437   22.0024 H         1 8VX         0.0548
     48 H12        21.5169   35.4175   21.2466 H         1 8VX         0.1815
     49 H13        25.1207   35.1940   20.5992 H         1 8VX         0.0465
     50 H14        25.4756   36.7632   21.3981 H         1 8VX         0.0465
     51 H15        24.1521   36.6500   20.1889 H         1 8VX         0.0465
     52 H16        24.5696   33.9431   22.5928 H         1 8VX         0.0465
     53 H17        23.2046   34.4871   23.6260 H         1 8VX         0.0465
     54 H18        24.8154   35.2667   23.7820 H         1 8VX         0.0465
     55 H19        21.4473   39.1447   22.2252 H         1 8VX         0.0749
     56 H20        22.1081   38.6354   23.8161 H         1 8VX         0.0749
     57 H21        21.0569   38.9898   25.3892 H         1 8VX         0.0773
     58 H22        19.4220   38.2745   25.5950 H         1 8VX         0.0773
     59 H23        18.3405   39.7856   26.7154 H         1 8VX         0.2257
     60 H24        18.8585   43.0870   25.0495 H         1 8VX         0.0521
     61 H25        16.7351   40.8148   28.0143 H         1 8VX         0.0502
     62 H26        15.5011   42.8565   28.6620 H         1 8VX         0.0578
     63 H27        15.8991   45.0152   27.5025 H         1 8VX         0.0506
     64 H28        19.3406   47.5677   25.5539 H         1 8VX         0.0468
     65 H29        20.0402   46.0391   26.1866 H         1 8VX         0.0468
     66 H30        18.8066   46.9264   27.1445 H         1 8VX         0.0468
@<TRIPOS>BOND
     1    1    2 2  
     2   13    1 1  
     3    1   22 am 
     4    4    3 1  
     5    5    4 ar 
     6    4    6 ar 
     7   11    5 ar 
     8    7    6 ar 
     9    8    7 ar 
    10    8    9 1  
    11   11    8 ar 
    12    9   10 1  
    13   12   11 1  
    14   12   13 1  
    15   13   14 1  
    16   14   15 1  
    17   15   16 1  
    18   16   17 2  
    19   16   21 1  
    20   17   18 1  
    21   18   19 1  
    22   18   20 1  
    23   21   22 1  
    24   22   23 1  
    25   23   24 1  
    26   24   25 2  
    27   24   26 am 
    28   26   27 1  
    29   27   28 ar 
    30   27   29 ar 
    31   28   32 ar 
    32   29   30 ar 
    33   30   31 ar 
    34   31   32 ar 
    35   32   33 1  
    36   33   34 2  
    37   33   35 2  
    38   33   36 1  
    39    5   37 1  
    40    6   38 1  
    41    7   39 1  
    42   10   40 1  
    43   10   41 1  
    44   10   42 1  
    45   12   43 1  
    46   12   44 1  
    47   13   45 1  
    48   14   46 1  
    49   14   47 1  
    50   15   48 1  
    51   19   49 1  
    52   19   50 1  
    53   19   51 1  
    54   20   52 1  
    55   20   53 1  
    56   20   54 1  
    57   21   55 1  
    58   21   56 1  
    59   23   57 1  
    60   23   58 1  
    61   26   59 1  
    62   28   60 1  
    63   29   61 1  
    64   30   62 1  
    65   31   63 1  
    66   36   64 1  
    67   36   65 1  
    68   36   66 1  
@<TRIPOS>SUBSTRUCTURE
     1 8VX         1

