### 
### Created by X-TOOL on Mon Sep 10 21:13:30 2018
### 

@<TRIPOS>MOLECULE
5yjm_ligand
   73    76     1     0     0
SMALL
GAST_HUCK


@<TRIPOS>ATOM
      1 C1         -9.5190  -16.7380   -6.0850 C.2       1 8W3         0.2159
      2 O2         -8.5670  -17.2150   -5.4810 O.2       1 8W3        -0.3859
      3 CL2       -14.0620  -15.1080   -0.4390 Cl        1 8W3        -0.0828
      4 C9        -13.0530  -14.4950   -1.5850 C.ar      1 8W3         0.0218
      5 C10       -12.1690  -15.3190   -2.2700 C.ar      1 8W3        -0.0548
      6 C8        -13.1250  -13.1220   -1.7910 C.ar      1 8W3        -0.0636
      7 C7        -12.2810  -12.5790   -2.7430 C.ar      1 8W3        -0.0389
      8 C6        -11.3480  -13.3640   -3.4580 C.ar      1 8W3         0.0930
      9 O23       -10.4990  -12.9840   -4.4580 O.3       1 8W3        -0.3246
     10 C24       -10.3870  -11.6340   -4.8920 C.3       1 8W3         0.0579
     11 C5        -11.2990  -14.7250   -3.1850 C.ar      1 8W3        -0.0104
     12 C4        -10.3050  -15.5350   -3.9220 C.3       1 8W3         0.0012
     13 C3        -10.6310  -16.0430   -5.3110 C.3       1 8W3         0.0819
     14 C11       -12.0540  -16.5900   -5.4820 C.3       1 8W3         0.0495
     15 N12       -12.6080  -16.8510   -6.7640 N.pl3     1 8W3        -0.3019
     16 C13       -12.0880  -16.6140   -7.9950 C.2       1 8W3         0.1355
     17 N14       -12.7030  -16.8990   -9.0550 N.2       1 8W3        -0.1775
     18 O62       -14.0150  -17.3690   -8.7790 O.3       1 8W3        -0.2219
     19 C63       -14.7490  -17.8590   -9.8090 C.ar      1 8W3         0.1221
     20 C68       -14.3150  -17.9490  -11.1410 C.ar      1 8W3        -0.0298
     21 C67       -15.1720  -18.5280  -12.1090 C.ar      1 8W3        -0.0713
     22 C66       -16.3980  -19.0910  -11.7520 C.ar      1 8W3        -0.0738
     23 C65       -16.8140  -19.0120  -10.4190 C.ar      1 8W3        -0.0713
     24 C64       -15.9740  -18.4430   -9.4570 C.ar      1 8W3        -0.0298
     25 C15       -10.7090  -16.0340   -8.1670 C.3       1 8W3         0.1281
     26 N16        -9.6840  -16.8250   -7.4700 N.am      1 8W3        -0.1534
     27 C17        -8.8430  -17.5560   -8.3230 C.2       1 8W3         0.2947
     28 O18        -9.0200  -17.5890   -9.4980 O.2       1 8W3        -0.3911
     29 N19        -7.8980  -18.3130   -7.8050 N.am      1 8W3        -0.2537
     30 C20        -6.9490  -19.0970   -8.5830 C.3       1 8W3         0.0745
     31 C30        -7.5160  -20.5220   -8.6790 C.3       1 8W3        -0.0227
     32 C35        -6.5380  -21.5710   -8.4190 C.3       1 8W3        -0.0613
     33 C21        -5.7180  -18.6270   -7.8580 C.ar      1 8W3        -0.0272
     34 C25        -5.2130  -19.2200   -6.6610 C.ar      1 8W3        -0.0376
     35 C26        -4.1040  -18.6970   -5.9890 C.ar      1 8W3         0.0436
     36 N57        -3.6310  -19.3830   -4.8860 N.pl3     1 8W3        -0.3354
     37 C29        -5.1300  -17.4280   -8.3030 C.ar      1 8W3        -0.0674
     38 C28        -4.0350  -16.8730   -7.6310 C.ar      1 8W3        -0.0654
     39 C27        -3.4920  -17.4920   -6.4720 C.ar      1 8W3         0.0203
     40 C31        -2.3010  -16.8220   -5.8110 C.2       1 8W3         0.0516
     41 O32        -1.8130  -15.7440   -6.2960 O.co2     1 8W3        -0.5667
     42 O33        -1.8000  -17.3640   -4.7770 O.co2     1 8W3        -0.5667
     43 H1        -12.1555  -16.3894   -2.0991 H         1 8W3         0.0532
     44 H2        -13.8142  -12.5024   -1.2287 H         1 8W3         0.0538
     45 H3        -12.3370  -11.5159   -2.9475 H         1 8W3         0.0522
     46 H4         -9.6461  -11.5697   -5.7025 H         1 8W3         0.0575
     47 H5        -10.0649  -11.0037   -4.0500 H         1 8W3         0.0575
     48 H6        -11.3633  -11.2847   -5.2591 H         1 8W3         0.0575
     49 H7        -10.0903  -16.4179   -3.3020 H         1 8W3         0.0431
     50 H8         -9.3970  -14.9207   -4.0122 H         1 8W3         0.0431
     51 H9        -10.7017  -15.0971   -5.8679 H         1 8W3         0.0583
     52 H10       -12.7239  -15.8639   -4.9984 H         1 8W3         0.0549
     53 H11       -12.0868  -17.5421   -4.9320 H         1 8W3         0.0549
     54 H12       -13.5425  -17.2841   -6.7583 H         1 8W3         0.1822
     55 H13       -13.3362  -17.5800  -11.4253 H         1 8W3         0.0539
     56 H14       -14.8689  -18.5339  -13.1497 H         1 8W3         0.0586
     57 H15       -17.0171  -19.5810  -12.4948 H         1 8W3         0.0515
     58 H16       -17.7877  -19.3919  -10.1317 H         1 8W3         0.0586
     59 H17       -16.2765  -18.4536   -8.4161 H         1 8W3         0.0539
     60 H18       -10.7020  -15.0107   -7.7636 H         1 8W3         0.0805
     61 H19       -10.4671  -16.0070   -9.2397 H         1 8W3         0.0805
     62 H20        -7.8272  -18.3521   -6.8083 H         1 8W3         0.1883
     63 H21        -6.8733  -18.7413   -9.6211 H         1 8W3         0.0721
     64 H22        -7.9163  -20.6668   -9.6933 H         1 8W3         0.0307
     65 H23        -8.3303  -20.6198   -7.9460 H         1 8W3         0.0307
     66 H24        -7.0229  -22.5544   -8.5074 H         1 8W3         0.0232
     67 H25        -6.1336  -21.4517   -7.4030 H         1 8W3         0.0232
     68 H26        -5.7195  -21.4987   -9.1503 H         1 8W3         0.0232
     69 H27        -5.7034  -20.1006   -6.2621 H         1 8W3         0.0459
     70 H28        -4.1019  -20.2444   -4.5744 H         1 8W3         0.1734
     71 H29        -2.8077  -19.0327   -4.3758 H         1 8W3         0.1734
     72 H30        -5.5305  -16.9281   -9.1775 H         1 8W3         0.0458
     73 H31        -3.5930  -15.9548   -8.0008 H         1 8W3         0.0601
@<TRIPOS>BOND
     1    1    2 2  
     2   13    1 1  
     3    1   26 am 
     4    4    3 1  
     5    5    4 ar 
     6    4    6 ar 
     7   11    5 ar 
     8    7    6 ar 
     9    8    7 ar 
    10    8    9 1  
    11   11    8 ar 
    12    9   10 1  
    13   12   11 1  
    14   12   13 1  
    15   13   14 1  
    16   14   15 1  
    17   15   16 1  
    18   16   17 2  
    19   16   25 1  
    20   17   18 1  
    21   18   19 1  
    22   19   20 ar 
    23   19   24 ar 
    24   20   21 ar 
    25   21   22 ar 
    26   22   23 ar 
    27   23   24 ar 
    28   25   26 1  
    29   26   27 am 
    30   27   28 2  
    31   27   29 am 
    32   29   30 1  
    33   30   31 1  
    34   30   33 1  
    35   31   32 1  
    36   33   34 ar 
    37   33   37 ar 
    38   34   35 ar 
    39   35   36 1  
    40   35   39 ar 
    41   37   38 ar 
    42   38   39 ar 
    43   39   40 1  
    44   40   41 ar 
    45   40   42 ar 
    46    5   43 1  
    47    6   44 1  
    48    7   45 1  
    49   10   46 1  
    50   10   47 1  
    51   10   48 1  
    52   12   49 1  
    53   12   50 1  
    54   13   51 1  
    55   14   52 1  
    56   14   53 1  
    57   15   54 1  
    58   20   55 1  
    59   21   56 1  
    60   22   57 1  
    61   23   58 1  
    62   24   59 1  
    63   25   60 1  
    64   25   61 1  
    65   29   62 1  
    66   30   63 1  
    67   31   64 1  
    68   31   65 1  
    69   32   66 1  
    70   32   67 1  
    71   32   68 1  
    72   34   69 1  
    73   36   70 1  
    74   36   71 1  
    75   37   72 1  
    76   38   73 1  
@<TRIPOS>SUBSTRUCTURE
     1 8W3         1

