### 
### Created by X-TOOL on Mon Aug  2 16:11:37 2021
### 

@<TRIPOS>MOLECULE
5yjo_ligand
   64    67     1     0     0
SMALL
GAST_HUCK


@<TRIPOS>ATOM
      1 CAA        18.8950   -1.8620  123.0830 C.ar      1 MOL         0.0379
      2 CAB        18.6990   -1.9600  121.7130 C.ar      1 MOL        -0.0036
      3 CAC        17.5770   -1.3780  121.1310 C.ar      1 MOL        -0.0495
      4 CAD        16.6490   -0.7040  121.9200 C.ar      1 MOL        -0.0428
      5 CAE        16.8540   -0.6010  123.2950 C.ar      1 MOL         0.0508
      6 CAF        17.9730   -1.1880  123.8700 C.ar      1 MOL        -0.0254
      7 CAH        20.8860   -3.0840  122.9520 C.ar      1 MOL         0.0341
      8 CAI        20.7450   -3.2020  121.5650 C.ar      1 MOL        -0.0071
      9 CAJ        19.6340   -2.6390  120.9420 C.ar      1 MOL        -0.0368
     10 CAK        21.9760   -3.6040  123.6540 C.3       1 MOL         0.0058
     11 CAL        22.7880   -4.5750  122.8330 C.3       1 MOL         0.0131
     12 CAM        23.0190   -3.9550  121.4790 C.3       1 MOL        -0.0330
     13 CAN        21.6740   -3.8870  120.7830 C.3       1 MOL        -0.0130
     14 CAO        24.1250   -4.8010  123.5440 C.3       1 MOL        -0.0302
     15 CAR        15.9590    0.0650  124.1280 C.2       1 MOL         0.2081
     16 CAU        15.1320    2.0980  125.2010 C.3       1 MOL         0.0541
     17 CAV        15.7590    3.2800  125.9560 C.3       1 MOL         0.0562
     18 CAX        17.7910    3.1690  124.4290 C.3       1 MOL         0.0587
     19 CAY        17.0770    2.1800  123.5270 C.3       1 MOL         0.0620
     20 CAZ        16.4130    2.9310  122.3680 C.3       1 MOL        -0.0399
     21 CBA        16.8900    5.3040  125.1040 C.2       1 MOL         0.3222
     22 CBD        14.9370    6.5200  124.8970 C.3       1 MOL         0.0771
     23 CBE        15.4050    7.6900  124.0310 C.3       1 MOL        -0.0280
     24 CBF        14.3090    8.7500  123.9760 C.3       1 MOL        -0.0629
     25 NAG        19.9680   -2.4150  123.6620 N.ar      1 MOL        -0.3006
     26 NAP        25.0760   -5.5240  122.6880 N.4       1 MOL         0.2189
     27 NAS        16.0710    1.3970  124.2870 N.am      1 MOL        -0.2657
     28 NAW        16.8020    3.9700  125.1610 N.am      1 MOL        -0.2448
     29 OAT        15.1450   -0.5980  124.7680 O.2       1 MOL        -0.3842
     30 OBB        17.7860    5.8140  124.4310 O.2       1 MOL        -0.3774
     31 OBC        15.9940    6.0880  125.7650 O.3       1 MOL        -0.2638
     32 H1         17.4251   -1.4497  120.0601 H         1 MOL         0.0631
     33 H2         15.7698   -0.2607  121.4666 H         1 MOL         0.0650
     34 H3         18.1271   -1.1191  124.9408 H         1 MOL         0.0687
     35 H4         19.5007   -2.7294  119.8700 H         1 MOL         0.0669
     36 H5         21.6026   -4.1253  124.5478 H         1 MOL         0.0467
     37 H6         22.6269   -2.7718  123.9600 H         1 MOL         0.0467
     38 H7         22.2526   -5.5298  122.7251 H         1 MOL         0.0380
     39 H8         23.7151   -4.5744  120.8944 H         1 MOL         0.0294
     40 H9         23.4358   -2.9435  121.5936 H         1 MOL         0.0294
     41 H10        21.7914   -3.3645  119.8222 H         1 MOL         0.0432
     42 H11        21.3095   -4.9090  120.6025 H         1 MOL         0.0432
     43 H12        23.9491   -5.3879  124.4575 H         1 MOL         0.0818
     44 H13        24.5563   -3.8253  123.8124 H         1 MOL         0.0818
     45 H14        14.2880    2.4765  124.6057 H         1 MOL         0.0542
     46 H15        14.7628    1.3721  125.9404 H         1 MOL         0.0542
     47 H16        16.2136    2.9046  126.8847 H         1 MOL         0.0542
     48 H17        14.9667    4.0024  126.2015 H         1 MOL         0.0542
     49 H18        18.4205    3.8331  123.8185 H         1 MOL         0.0544
     50 H19        18.4218    2.6221  125.1453 H         1 MOL         0.0544
     51 H20        17.8201    1.4818  123.1144 H         1 MOL         0.0575
     52 H21        15.8956    2.2132  121.7146 H         1 MOL         0.0252
     53 H22        17.1809    3.4657  121.7897 H         1 MOL         0.0252
     54 H23        15.6858    3.6531  122.7677 H         1 MOL         0.0252
     55 H24        14.6373    5.6847  124.2470 H         1 MOL         0.0611
     56 H25        14.0769    6.8392  125.5039 H         1 MOL         0.0611
     57 H26        15.6195    7.3308  123.0137 H         1 MOL         0.0288
     58 H27        16.3163    8.1267  124.4655 H         1 MOL         0.0288
     59 H28        14.6445    9.5923  123.3532 H         1 MOL         0.0231
     60 H29        14.0946    9.1089  124.9934 H         1 MOL         0.0231
     61 H30        13.3977    8.3131  123.5416 H         1 MOL         0.0231
     62 H31        25.9429   -5.6555  123.1853 H         1 MOL         0.1994
     63 H32        25.2470   -4.9902  121.8502 H         1 MOL         0.1994
     64 H33        24.6905   -6.4221  122.4414 H         1 MOL         0.1994
@<TRIPOS>BOND
     1    1    2 ar 
     2    6    1 ar 
     3    1   25 ar 
     4    3    2 ar 
     5    2    9 ar 
     6    4    3 ar 
     7    5    4 ar 
     8    5    6 ar 
     9   15    5 1  
    10    7    8 ar 
    11    7   10 1  
    12   25    7 ar 
    13    9    8 ar 
    14    8   13 1  
    15   10   11 1  
    16   11   12 1  
    17   11   14 1  
    18   13   12 1  
    19   14   26 1  
    20   27   15 am 
    21   15   29 2  
    22   17   16 1  
    23   16   27 1  
    24   28   17 1  
    25   18   19 1  
    26   28   18 1  
    27   19   20 1  
    28   19   27 1  
    29   21   28 am 
    30   21   30 2  
    31   31   21 1  
    32   22   23 1  
    33   22   31 1  
    34   23   24 1  
    35    3   32 1  
    36    4   33 1  
    37    6   34 1  
    38    9   35 1  
    39   10   36 1  
    40   10   37 1  
    41   11   38 1  
    42   12   39 1  
    43   12   40 1  
    44   13   41 1  
    45   13   42 1  
    46   14   43 1  
    47   14   44 1  
    48   16   45 1  
    49   16   46 1  
    50   17   47 1  
    51   17   48 1  
    52   18   49 1  
    53   18   50 1  
    54   19   51 1  
    55   20   52 1  
    56   20   53 1  
    57   20   54 1  
    58   22   55 1  
    59   22   56 1  
    60   23   57 1  
    61   23   58 1  
    62   24   59 1  
    63   24   60 1  
    64   24   61 1  
    65   26   62 1  
    66   26   63 1  
    67   26   64 1  
@<TRIPOS>SUBSTRUCTURE
     1 MOL         1

