### 
### Created by X-TOOL on Mon Sep 10 21:13:31 2018
### 

@<TRIPOS>MOLECULE
5yjp_ligand
   67    69     1     0     0
SMALL
GAST_HUCK


@<TRIPOS>ATOM
      1 C1         -9.4110  -16.6290   -5.9350 C.2       1 8W6         0.2158
      2 O2         -8.4990  -17.0440   -5.2050 O.2       1 8W6        -0.3859
      3 CL2       -14.0700  -15.0780   -0.4570 Cl        1 8W6        -0.0828
      4 C9        -12.9950  -14.3770   -1.5660 C.ar      1 8W6         0.0218
      5 C8        -12.9820  -13.0120   -1.7860 C.ar      1 8W6        -0.0636
      6 C7        -12.1300  -12.4540   -2.7030 C.ar      1 8W6        -0.0389
      7 C6        -11.1860  -13.2770   -3.4230 C.ar      1 8W6         0.0930
      8 O23       -10.2650  -12.8800   -4.3500 O.3       1 8W6        -0.3246
      9 C24       -10.0860  -11.5190   -4.7730 C.3       1 8W6         0.0579
     10 C10       -12.0860  -15.2040   -2.2130 C.ar      1 8W6        -0.0548
     11 C5        -11.1550  -14.6330   -3.1190 C.ar      1 8W6        -0.0104
     12 C4        -10.1880  -15.5150   -3.8400 C.3       1 8W6         0.0011
     13 C3        -10.5280  -15.7800   -5.2800 C.3       1 8W6         0.0817
     14 C11       -11.8290  -16.6170   -5.4340 C.3       1 8W6         0.0487
     15 N12       -12.4070  -16.7260   -6.7460 N.pl3     1 8W6        -0.3044
     16 C13       -11.8900  -16.5300   -8.0050 C.2       1 8W6         0.1280
     17 N14       -12.6270  -16.7710   -9.0180 N.2       1 8W6        -0.2042
     18 O62       -13.9190  -17.2070   -8.7550 O.3       1 8W6        -0.2891
     19 C63       -14.4750  -17.8140   -9.9360 C.3       1 8W6         0.0725
     20 C64       -15.8800  -18.3010   -9.6040 C.3       1 8W6        -0.0372
     21 C15       -10.4430  -16.0710   -8.1630 C.3       1 8W6         0.1260
     22 N16        -9.4170  -16.7740   -7.3220 N.am      1 8W6        -0.1541
     23 C17        -8.4560  -17.4900   -8.0840 C.2       1 8W6         0.2946
     24 O18        -8.5350  -17.5510   -9.3070 O.2       1 8W6        -0.3911
     25 N19        -7.5220  -18.1960   -7.4070 N.am      1 8W6        -0.2535
     26 C20        -6.3830  -18.9660   -7.9920 C.3       1 8W6         0.0774
     27 C30        -6.4740  -20.4680   -7.7510 C.3       1 8W6        -0.0225
     28 C35        -7.3840  -21.1560   -8.6850 C.3       1 8W6        -0.0613
     29 C21        -5.2390  -18.2130   -7.2550 C.ar      1 8W6        -0.0153
     30 C29        -4.8340  -18.5690   -5.9450 C.ar      1 8W6        -0.0544
     31 C28        -3.8640  -17.8270   -5.2570 C.ar      1 8W6        -0.0542
     32 C25        -4.6030  -17.1290   -7.8760 C.ar      1 8W6        -0.0544
     33 C26        -3.6120  -16.3740   -7.1960 C.ar      1 8W6        -0.0542
     34 C27        -3.2390  -16.7040   -5.8700 C.ar      1 8W6         0.0032
     35 C31        -2.1650  -15.9280   -5.1830 C.2       1 8W6         0.0584
     36 O33        -1.6500  -14.9220   -5.8380 O.co2     1 8W6        -0.5625
     37 O32        -1.8520  -16.2520   -3.9740 O.co2     1 8W6        -0.5625
     38 H1        -13.6554  -12.3741   -1.2251 H         1 8W6         0.0538
     39 H2        -12.1647  -11.3867   -2.8895 H         1 8W6         0.0522
     40 H3         -9.2838  -11.4710   -5.5241 H         1 8W6         0.0575
     41 H4         -9.8144  -10.8984   -3.9064 H         1 8W6         0.0575
     42 H5        -11.0226  -11.1454   -5.2125 H         1 8W6         0.0575
     43 H6        -12.0877  -16.2721   -2.0282 H         1 8W6         0.0532
     44 H7        -10.1485  -16.4806   -3.3147 H         1 8W6         0.0431
     45 H8         -9.1977  -15.0376   -3.8047 H         1 8W6         0.0431
     46 H9        -10.6370  -14.8196   -5.8052 H         1 8W6         0.0583
     47 H10       -12.5882  -16.1663   -4.7779 H         1 8W6         0.0547
     48 H11       -11.6051  -17.6372   -5.0889 H         1 8W6         0.0547
     49 H12       -13.3987  -17.0043   -6.7420 H         1 8W6         0.1809
     50 H13       -13.8501  -18.6640  -10.2473 H         1 8W6         0.0609
     51 H14       -14.5196  -17.0745  -10.7491 H         1 8W6         0.0609
     52 H15       -16.3255  -18.7696  -10.4939 H         1 8W6         0.0255
     53 H16       -16.4992  -17.4478   -9.2901 H         1 8W6         0.0255
     54 H17       -15.8297  -19.0373   -8.7883 H         1 8W6         0.0255
     55 H18       -10.4034  -15.0008   -7.9117 H         1 8W6         0.0796
     56 H19       -10.1622  -16.2107   -9.2173 H         1 8W6         0.0796
     57 H20        -7.6021  -18.2035   -6.4102 H         1 8W6         0.1883
     58 H21        -6.3124  -18.8091   -9.0785 H         1 8W6         0.0723
     59 H22        -6.8348  -20.6355   -6.7255 H         1 8W6         0.0307
     60 H23        -5.4687  -20.9006   -7.8613 H         1 8W6         0.0307
     61 H24        -7.4012  -22.2315   -8.4548 H         1 8W6         0.0232
     62 H25        -7.0318  -21.0075   -9.7164 H         1 8W6         0.0232
     63 H26        -8.3979  -20.7425   -8.5806 H         1 8W6         0.0232
     64 H27        -5.2827  -19.4315   -5.4656 H         1 8W6         0.0565
     65 H28        -3.5869  -18.1109   -4.2482 H         1 8W6         0.0634
     66 H29        -4.8724  -16.8632   -8.8918 H         1 8W6         0.0565
     67 H30        -3.1366  -15.5377   -7.6957 H         1 8W6         0.0634
@<TRIPOS>BOND
     1    1    2 2  
     2   13    1 1  
     3    1   22 am 
     4    4    3 1  
     5    4    5 ar 
     6   10    4 ar 
     7    6    5 ar 
     8    7    6 ar 
     9    7    8 1  
    10   11    7 ar 
    11    8    9 1  
    12   11   10 ar 
    13   12   11 1  
    14   12   13 1  
    15   13   14 1  
    16   14   15 1  
    17   15   16 1  
    18   16   17 2  
    19   16   21 1  
    20   17   18 1  
    21   18   19 1  
    22   19   20 1  
    23   21   22 1  
    24   22   23 am 
    25   23   24 2  
    26   23   25 am 
    27   25   26 1  
    28   26   27 1  
    29   26   29 1  
    30   27   28 1  
    31   29   30 ar 
    32   29   32 ar 
    33   30   31 ar 
    34   31   34 ar 
    35   32   33 ar 
    36   33   34 ar 
    37   34   35 1  
    38   35   36 ar 
    39   35   37 ar 
    40    5   38 1  
    41    6   39 1  
    42    9   40 1  
    43    9   41 1  
    44    9   42 1  
    45   10   43 1  
    46   12   44 1  
    47   12   45 1  
    48   13   46 1  
    49   14   47 1  
    50   14   48 1  
    51   15   49 1  
    52   19   50 1  
    53   19   51 1  
    54   20   52 1  
    55   20   53 1  
    56   20   54 1  
    57   21   55 1  
    58   21   56 1  
    59   25   57 1  
    60   26   58 1  
    61   27   59 1  
    62   27   60 1  
    63   28   61 1  
    64   28   62 1  
    65   28   63 1  
    66   30   64 1  
    67   31   65 1  
    68   32   66 1  
    69   33   67 1  
@<TRIPOS>SUBSTRUCTURE
     1 8W6         1

