### 
### Created by X-TOOL on Mon Aug  2 16:09:59 2021
### 

@<TRIPOS>MOLECULE
5ykp_ligand
   47    48     1     0     0
SMALL
GAST_HUCK


@<TRIPOS>ATOM
      1 C5         12.0730    1.9200   18.5550 C.3       1 OVA         0.0265
      2 C4         13.4890    2.4340   18.5420 C.2       1 OVA         0.1368
      3 C3         13.9340    3.0090   19.8680 C.3       1 OVA         0.1646
      4 C2         13.0070    4.1910   20.2110 C.3       1 OVA         0.1671
      5 C1         11.5280    3.6690   20.3460 C.3       1 OVA         0.1014
      6 C6         11.0780    2.9630   19.0560 C.3       1 OVA        -0.0052
      7 O11        11.5240    2.7340   21.4330 O.3       1 OVA        -0.3855
      8 C11        10.5210    4.7370   20.7630 C.3       1 OVA        -0.0329
      9 C21        13.4750    4.9570   21.4430 C.3       1 OVA         0.1303
     10 C22        13.0770    6.3700   21.5620 C.3       1 OVA         0.0943
     11 C23        12.9020    7.0740   22.8850 C.3       1 OVA        -0.0179
     12 C24        11.7570    6.5690   23.7030 C.2       1 OVA        -0.1067
     13 C25        10.6050    7.1660   23.9870 C.2       1 OVA        -0.0870
     14 C2A        13.8850    4.1270   22.6370 C.3       1 OVA        -0.0301
     15 O2A        14.4280    6.0200   21.1620 O.3       1 OVA        -0.3603
     16 C2B         9.4980    6.4540   24.7120 C.3       1 OVA        -0.0406
     17 C2C        10.2670    8.5660   23.6240 C.3       1 OVA        -0.0406
     18 O31        15.2740    3.4670   19.8470 O.3       1 OVA        -0.3574
     19 C31        16.2230    2.3970   19.9180 C.3       1 OVA         0.0400
     20 O41        14.1680    2.4790   17.5300 O.2       1 OVA        -0.3887
     21 O1         13.1010    5.0710   19.0660 O.3       1 OVA        -0.3778
     22 H1         12.0230    1.0400   19.2131 H         1 OVA         0.0496
     23 H2         11.7938    1.6290   17.5316 H         1 OVA         0.0496
     24 H3         13.8409    2.2314   20.6404 H         1 OVA         0.0863
     25 H4         10.1173    2.4633   19.2494 H         1 OVA         0.0319
     26 H5         10.9449    3.7225   18.2715 H         1 OVA         0.0319
     27 H6         10.6462    2.3904   21.5505 H         1 OVA         0.2103
     28 H7         10.8659    5.2256   21.6862 H         1 OVA         0.0258
     29 H8          9.5417    4.2684   20.9400 H         1 OVA         0.0258
     30 H9         10.4296    5.4869   19.9635 H         1 OVA         0.0258
     31 H10        12.3642    6.7851   20.8342 H         1 OVA         0.0641
     32 H11        12.7389    8.1437   22.6873 H         1 OVA         0.0365
     33 H12        13.8255    6.9456   23.4686 H         1 OVA         0.0365
     34 H13        11.8853    5.5732   24.1246 H         1 OVA         0.0243
     35 H14        14.1377    3.1088   22.3063 H         1 OVA         0.0259
     36 H15        13.0537    4.0833   23.3561 H         1 OVA         0.0259
     37 H16        14.7621    4.5846   23.1179 H         1 OVA         0.0259
     38 H17         8.6443    7.1361   24.8382 H         1 OVA         0.0375
     39 H18         9.8564    6.1286   25.6997 H         1 OVA         0.0375
     40 H19         9.1829    5.5762   24.1288 H         1 OVA         0.0375
     41 H20        11.1180    9.0243   23.0988 H         1 OVA         0.0375
     42 H21        10.0481    9.1389   24.5371 H         1 OVA         0.0375
     43 H22         9.3847    8.5717   22.9671 H         1 OVA         0.0375
     44 H23        17.2426    2.8093   19.8981 H         1 OVA         0.0526
     45 H24        16.0826    1.7247   19.0588 H         1 OVA         0.0526
     46 H25        16.0729    1.8351   20.8517 H         1 OVA         0.0526
     47 H26        13.9931    5.3869   18.9832 H         1 OVA         0.2107
@<TRIPOS>BOND
     1    1    2 1  
     2    1    6 1  
     3    2    3 1  
     4    2   20 2  
     5    3    4 1  
     6    3   18 1  
     7    4    5 1  
     8    4    9 1  
     9    4   21 1  
    10    5    6 1  
    11    5    7 1  
    12    5    8 1  
    13    9   10 1  
    14    9   14 1  
    15    9   15 1  
    16   10   11 1  
    17   10   15 1  
    18   11   12 1  
    19   12   13 2  
    20   13   16 1  
    21   13   17 1  
    22   18   19 1  
    23    1   22 1  
    24    1   23 1  
    25    3   24 1  
    26    6   25 1  
    27    6   26 1  
    28    7   27 1  
    29    8   28 1  
    30    8   29 1  
    31    8   30 1  
    32   10   31 1  
    33   11   32 1  
    34   11   33 1  
    35   12   34 1  
    36   14   35 1  
    37   14   36 1  
    38   14   37 1  
    39   16   38 1  
    40   16   39 1  
    41   16   40 1  
    42   17   41 1  
    43   17   42 1  
    44   17   43 1  
    45   19   44 1  
    46   19   45 1  
    47   19   46 1  
    48   21   47 1  
@<TRIPOS>SUBSTRUCTURE
     1 OVA         1

