### 
### Created by X-TOOL on Wed Jan  1 15:39:37 2020
### 

@<TRIPOS>MOLECULE
5yl2_ligand
   49    51     1     0     0
SMALL
GAST_HUCK


@<TRIPOS>ATOM
      1 C01        16.8830  220.5290   47.7130 C.3       1 8WU         0.0587
      2 O02        17.1910  221.9300   47.7170 O.3       1 8WU        -0.3201
      3 C03        17.4580  222.5370   46.5190 C.ar      1 8WU         0.1264
      4 C04        17.3090  221.8820   45.3290 C.ar      1 8WU        -0.0340
      5 C05        17.5900  222.5590   44.0950 C.ar      1 8WU        -0.0672
      6 C06        18.0220  223.8830   44.1160 C.ar      1 8WU        -0.0330
      7 C07        18.3020  224.5620   42.7620 C.2       1 8WU        -0.0503
      8 C08        18.9130  225.7960   42.5940 C.2       1 8WU        -0.0148
      9 C09        19.0860  226.3610   41.1870 C.2       1 8WU         0.1339
     10 O10        19.9470  227.1650   40.9530 O.2       1 8WU        -0.3903
     11 C11        18.1560  225.8970   40.0290 C.ar      1 8WU         0.0734
     12 C12        18.7250  225.6560   38.7910 C.ar      1 8WU        -0.0387
     13 C13        17.9070  225.2270   37.6860 C.ar      1 8WU        -0.0106
     14 C14        16.5200  225.0430   37.8780 C.ar      1 8WU         0.1387
     15 O15        15.7270  224.6120   36.7920 O.3       1 8WU        -0.2987
     16 C16        16.0150  223.3010   36.4410 C.3       1 8WU         0.0679
     17 C17        15.9130  225.2940   39.1720 C.ar      1 8WU         0.1114
     18 C18        14.4780  225.1180   39.3810 C.2       1 8WU        -0.0106
     19 C19        13.8540  225.7150   40.5250 C.2       1 8WU        -0.0805
     20 C20        14.7230  226.5380   41.4910 C.3       1 8WU         0.0334
     21 C21        14.7760  228.0690   41.1590 C.3       1 8WU        -0.0831
     22 C22        14.1480  226.6140   42.8840 C.3       1 8WU        -0.0831
     23 O23        16.1040  225.9840   41.5470 O.3       1 8WU        -0.3614
     24 C24        16.7040  225.7160   40.2140 C.ar      1 8WU         0.1350
     25 C25        18.1610  224.5610   45.3230 C.ar      1 8WU        -0.0287
     26 C26        17.8900  223.8990   46.5290 C.ar      1 8WU         0.1221
     27 O27        18.0380  224.5790   47.7300 O.3       1 8WU        -0.3356
     28 H1         16.6942  220.1922   48.7430 H         1 8WU         0.0577
     29 H2         17.7313  219.9682   47.2936 H         1 8WU         0.0577
     30 H3         15.9873  220.3522   47.0995 H         1 8WU         0.0577
     31 H4         16.9782  220.8498   45.3170 H         1 8WU         0.0531
     32 H5         17.4665  222.0419   43.1503 H         1 8WU         0.0547
     33 H6         17.9951  224.0296   41.8629 H         1 8WU         0.0730
     34 H7         19.2660  226.3565   43.4584 H         1 8WU         0.0593
     35 H8         19.7916  225.7907   38.6521 H         1 8WU         0.0789
     36 H9         18.3525  225.0467   36.7144 H         1 8WU         0.0533
     37 H10        15.3804  223.0003   35.5943 H         1 8WU         0.0596
     38 H11        15.8195  222.6404   37.2985 H         1 8WU         0.0596
     39 H12        17.0734  223.2229   36.1517 H         1 8WU         0.0596
     40 H13        13.8872  224.5380   38.6735 H         1 8WU         0.1244
     41 H14        12.7877  225.5886   40.7063 H         1 8WU         0.0473
     42 H15        15.4147  228.5815   41.8934 H         1 8WU         0.0076
     43 H16        13.7600  228.4886   41.2006 H         1 8WU         0.0076
     44 H17        15.1905  228.2113   40.1501 H         1 8WU         0.0076
     45 H18        14.0365  225.5980   43.2906 H         1 8WU         0.0076
     46 H19        13.1641  227.1046   42.8483 H         1 8WU         0.0076
     47 H20        14.8242  227.1947   43.5286 H         1 8WU         0.0076
     48 H21        18.4778  225.5977   45.3310 H         1 8WU         0.0541
     49 H22        18.9380  224.8699   47.8191 H         1 8WU         0.2444
@<TRIPOS>BOND
     1    1    2 1  
     2    2    3 1  
     3    3    4 ar 
     4    3   26 ar 
     5    4    5 ar 
     6    5    6 ar 
     7    6    7 1  
     8    6   25 ar 
     9    7    8 2  
    10    8    9 1  
    11    9   10 2  
    12    9   11 1  
    13   11   12 ar 
    14   11   24 ar 
    15   12   13 ar 
    16   13   14 ar 
    17   14   15 1  
    18   14   17 ar 
    19   15   16 1  
    20   17   18 1  
    21   17   24 ar 
    22   18   19 2  
    23   19   20 1  
    24   20   21 1  
    25   20   22 1  
    26   20   23 1  
    27   23   24 1  
    28   25   26 ar 
    29   26   27 1  
    30    1   28 1  
    31    1   29 1  
    32    1   30 1  
    33    4   31 1  
    34    5   32 1  
    35    7   33 1  
    36    8   34 1  
    37   12   35 1  
    38   13   36 1  
    39   16   37 1  
    40   16   38 1  
    41   16   39 1  
    42   18   40 1  
    43   19   41 1  
    44   21   42 1  
    45   21   43 1  
    46   21   44 1  
    47   22   45 1  
    48   22   46 1  
    49   22   47 1  
    50   25   48 1  
    51   27   49 1  
@<TRIPOS>SUBSTRUCTURE
     1 8WU         1

