### 
### Created by X-TOOL on Wed Jan  1 15:39:38 2020
### 

@<TRIPOS>MOLECULE
5ylj_ligand
   50    52     1     0     0
SMALL
GAST_HUCK


@<TRIPOS>ATOM
      1 C1         16.3990  220.6900   48.4430 C.3       1 8X0         0.0611
      2 O2         17.0600  220.1810   47.3210 O.3       1 8X0        -0.3169
      3 C3         17.3870  221.0800   46.2810 C.ar      1 8X0         0.0973
      4 C4         17.8850  222.3510   46.5250 C.ar      1 8X0        -0.0267
      5 C5         18.2170  223.2420   45.4110 C.ar      1 8X0        -0.0565
      6 C6         18.0490  222.7750   44.1020 C.ar      1 8X0        -0.0237
      7 C7         18.3780  223.6640   42.8330 C.2       1 8X0        -0.0475
      8 C8         18.8420  224.9940   42.8450 C.2       1 8X0        -0.0152
      9 C9         19.0570  225.6900   41.4740 C.2       1 8X0         0.1267
     10 O10        19.8870  226.6080   41.3620 O.2       1 8X0        -0.3908
     11 C11        18.2600  225.2510   40.2860 C.ar      1 8X0         0.0416
     12 C12        18.8900  225.0810   39.0340 C.ar      1 8X0        -0.0666
     13 C13        18.1380  224.6540   37.9070 C.ar      1 8X0        -0.0437
     14 C14        16.7570  224.3880   38.0290 C.ar      1 8X0         0.0898
     15 O15        16.0310  223.9520   36.8940 O.3       1 8X0        -0.3244
     16 C16        16.1790  222.5530   36.6510 C.3       1 8X0         0.0587
     17 C17        16.0940  224.5500   39.3200 C.ar      1 8X0         0.0212
     18 C18        14.6500  224.2870   39.5030 C.3       1 8X0        -0.0193
     19 C19        13.9480  224.8810   40.6510 C.3       1 8X0        -0.0133
     20 C20        14.7570  225.6090   41.7500 C.3       1 8X0         0.0874
     21 C21        14.1650  225.4750   43.1230 C.3       1 8X0        -0.0315
     22 C22        14.8130  227.1290   41.6270 C.3       1 8X0        -0.0315
     23 O23        16.1760  225.1480   41.7670 O.3       1 8X0        -0.3133
     24 C24        16.8380  224.9750   40.4050 C.ar      1 8X0         0.1051
     25 C25        17.5320  221.4600   43.8510 C.ar      1 8X0        -0.0565
     26 C26        17.2100  220.6130   44.9220 C.ar      1 8X0        -0.0267
     27 H1         16.2140  219.8765   49.1599 H         1 8X0         0.0581
     28 H2         15.4401  221.1320   48.1345 H         1 8X0         0.0581
     29 H3         17.0229  221.4619   48.9173 H         1 8X0         0.0581
     30 H4         18.0293  222.6868   47.5455 H         1 8X0         0.0561
     31 H5         18.5859  224.2443   45.5966 H         1 8X0         0.0633
     32 H6         18.2314  223.2027   41.8575 H         1 8X0         0.0733
     33 H7         19.0423  225.5143   43.7805 H         1 8X0         0.0592
     34 H8         19.9513  225.2770   38.9324 H         1 8X0         0.0559
     35 H9         18.6275  224.5317   36.9476 H         1 8X0         0.0453
     36 H10        15.5961  222.2717   35.7616 H         1 8X0         0.0577
     37 H11        15.8141  221.9889   37.5220 H         1 8X0         0.0577
     38 H12        17.2408  222.3205   36.4821 H         1 8X0         0.0577
     39 H13        14.5305  223.1965   39.5836 H         1 8X0         0.0380
     40 H14        14.1414  224.6455   38.5959 H         1 8X0         0.0380
     41 H15        13.3990  224.0663   41.1458 H         1 8X0         0.0313
     42 H16        13.2328  225.6113   40.2447 H         1 8X0         0.0313
     43 H17        14.7921  226.0159   43.8470 H         1 8X0         0.0261
     44 H18        14.1190  224.4115   43.4003 H         1 8X0         0.0261
     45 H19        13.1502  225.8995   43.1278 H         1 8X0         0.0261
     46 H20        15.2352  227.4024   40.6487 H         1 8X0         0.0261
     47 H21        15.4469  227.5385   42.4272 H         1 8X0         0.0261
     48 H22        13.7973  227.5418   41.7163 H         1 8X0         0.0261
     49 H23        17.3899  221.1204   42.8314 H         1 8X0         0.0633
     50 H24        16.8310  219.6151   44.7332 H         1 8X0         0.0561
@<TRIPOS>BOND
     1    1    2 1  
     2    2    3 1  
     3    3    4 ar 
     4    3   26 ar 
     5    4    5 ar 
     6    5    6 ar 
     7    6    7 1  
     8    6   25 ar 
     9    7    8 2  
    10    8    9 1  
    11    9   10 2  
    12    9   11 1  
    13   11   12 ar 
    14   11   24 ar 
    15   12   13 ar 
    16   13   14 ar 
    17   14   15 1  
    18   14   17 ar 
    19   15   16 1  
    20   17   18 1  
    21   17   24 ar 
    22   18   19 1  
    23   19   20 1  
    24   20   21 1  
    25   20   22 1  
    26   20   23 1  
    27   23   24 1  
    28   25   26 ar 
    29    1   27 1  
    30    1   28 1  
    31    1   29 1  
    32    4   30 1  
    33    5   31 1  
    34    7   32 1  
    35    8   33 1  
    36   12   34 1  
    37   13   35 1  
    38   16   36 1  
    39   16   37 1  
    40   16   38 1  
    41   18   39 1  
    42   18   40 1  
    43   19   41 1  
    44   19   42 1  
    45   21   43 1  
    46   21   44 1  
    47   21   45 1  
    48   22   46 1  
    49   22   47 1  
    50   22   48 1  
    51   25   49 1  
    52   26   50 1  
@<TRIPOS>SUBSTRUCTURE
     1 8X0         1

