### 
### Created by X-TOOL on Wed Jan  1 15:39:37 2020
### 

@<TRIPOS>MOLECULE
5yls_ligand
   52    54     1     0     0
SMALL
GAST_HUCK


@<TRIPOS>ATOM
      1 C1         16.9710  221.8660   47.4920 C.3       1 Y50         0.0583
      2 O2         16.6030  223.2680   47.4770 O.3       1 Y50        -0.3220
      3 C3         17.0030  224.0200   46.3520 C.ar      1 Y50         0.1156
      4 C4         16.7750  223.5300   45.0490 C.ar      1 Y50        -0.0368
      5 C5         17.1690  224.2930   43.9330 C.ar      1 Y50        -0.0693
      6 C6         17.7900  225.5500   44.1140 C.ar      1 Y50        -0.0362
      7 C7         18.1970  226.3470   42.7860 C.2       1 Y50        -0.0509
      8 C8         18.4770  227.6530   42.7330 C.2       1 Y50        -0.0154
      9 C9         18.7930  228.2590   41.3860 C.2       1 Y50         0.1268
     10 O10        19.6120  229.0930   41.2940 O.2       1 Y50        -0.3908
     11 C11        18.0360  227.7960   40.1260 C.ar      1 Y50         0.0416
     12 C12        18.7400  227.6560   38.9010 C.ar      1 Y50        -0.0666
     13 C13        18.0630  227.2220   37.7180 C.ar      1 Y50        -0.0437
     14 C14        16.6730  226.9170   37.7570 C.ar      1 Y50         0.0898
     15 O15        16.0120  226.4750   36.5580 O.3       1 Y50        -0.3244
     16 C16        16.1740  225.1020   36.3210 C.3       1 Y50         0.0587
     17 C17        15.9430  227.0500   39.0010 C.ar      1 Y50         0.0212
     18 C18        14.5310  226.7580   39.0930 C.3       1 Y50        -0.0193
     19 C19        13.7440  227.3560   40.1580 C.3       1 Y50        -0.0133
     20 C20        14.4680  228.0500   41.3430 C.3       1 Y50         0.0874
     21 C21        13.7310  227.8330   42.6640 C.3       1 Y50        -0.0315
     22 C22        14.4960  229.5620   41.2970 C.3       1 Y50        -0.0315
     23 O23        15.8810  227.6220   41.4570 O.3       1 Y50        -0.3133
     24 C24        16.6280  227.4860   40.1580 C.ar      1 Y50         0.1051
     25 C25        18.0030  226.0660   45.4300 C.ar      1 Y50        -0.0401
     26 C26        17.6190  225.2910   46.5430 C.ar      1 Y50         0.0716
     27 N27        17.8380  225.7950   47.8850 N.pl3     1 Y50        -0.3392
     28 H1         16.6012  221.3998   48.4172 H         1 Y50         0.0576
     29 H2         18.0662  221.7739   47.4474 H         1 Y50         0.0576
     30 H3         16.5248  221.3604   46.6230 H         1 Y50         0.0576
     31 H4         16.2971  222.5674   44.9070 H         1 Y50         0.0525
     32 H5         16.9956  223.9153   42.9318 H         1 Y50         0.0530
     33 H6         18.2496  225.7826   41.8562 H         1 Y50         0.0729
     34 H7         18.4773  228.2627   43.6353 H         1 Y50         0.0593
     35 H8         19.7999  227.8800   38.8619 H         1 Y50         0.0559
     36 H9         18.6108  227.1249   36.7877 H         1 Y50         0.0453
     37 H10        15.6488  224.8253   35.3950 H         1 Y50         0.0577
     38 H11        15.7556  224.5325   37.1640 H         1 Y50         0.0577
     39 H12        17.2446  224.8715   36.2181 H         1 Y50         0.0577
     40 H13        14.4362  225.6673   39.1992 H         1 Y50         0.0380
     41 H14        14.0763  227.0748   38.1428 H         1 Y50         0.0380
     42 H15        13.1235  226.5551   40.5864 H         1 Y50         0.0313
     43 H16        13.0957  228.1123   39.6915 H         1 Y50         0.0313
     44 H17        14.2752  228.3392   43.4749 H         1 Y50         0.0261
     45 H18        13.6723  226.7557   42.8785 H         1 Y50         0.0261
     46 H19        12.7150  228.2479   42.5895 H         1 Y50         0.0261
     47 H20        15.0075  229.8915   40.3806 H         1 Y50         0.0261
     48 H21        15.0349  229.9457   42.1759 H         1 Y50         0.0261
     49 H22        13.4660  229.9481   41.3010 H         1 Y50         0.0261
     50 H23        18.4544  227.0415   45.5703 H         1 Y50         0.0510
     51 H24        17.5580  225.2300   48.6994 H         1 Y50         0.1685
     52 H25        18.2736  226.7180   48.0238 H         1 Y50         0.1685
@<TRIPOS>BOND
     1    1    2 1  
     2    2    3 1  
     3    3    4 ar 
     4    3   26 ar 
     5    4    5 ar 
     6    5    6 ar 
     7    6    7 1  
     8    6   25 ar 
     9    7    8 2  
    10    8    9 1  
    11    9   10 2  
    12    9   11 1  
    13   11   12 ar 
    14   11   24 ar 
    15   12   13 ar 
    16   13   14 ar 
    17   14   15 1  
    18   14   17 ar 
    19   15   16 1  
    20   17   18 1  
    21   17   24 ar 
    22   18   19 1  
    23   19   20 1  
    24   20   21 1  
    25   20   22 1  
    26   20   23 1  
    27   23   24 1  
    28   25   26 ar 
    29   26   27 1  
    30    1   28 1  
    31    1   29 1  
    32    1   30 1  
    33    4   31 1  
    34    5   32 1  
    35    7   33 1  
    36    8   34 1  
    37   12   35 1  
    38   13   36 1  
    39   16   37 1  
    40   16   38 1  
    41   16   39 1  
    42   18   40 1  
    43   18   41 1  
    44   19   42 1  
    45   19   43 1  
    46   21   44 1  
    47   21   45 1  
    48   21   46 1  
    49   22   47 1  
    50   22   48 1  
    51   22   49 1  
    52   25   50 1  
    53   27   51 1  
    54   27   52 1  
@<TRIPOS>SUBSTRUCTURE
     1 Y50         1

