### 
### Created by X-TOOL on Wed Jan  1 15:39:35 2020
### 

@<TRIPOS>MOLECULE
5ylt_ligand
   45    48     1     0     0
SMALL
GAST_HUCK


@<TRIPOS>ATOM
      1 C1        -44.5610   -0.0790  -14.5540 C.ar      1 C7N        -0.0594
      2 C2        -43.4210   -0.9190  -14.3810 C.ar      1 C7N        -0.0220
      3 C3        -43.2160   -2.1550  -15.1690 C.2       1 C7N        -0.0530
      4 C4        -42.7030   -3.4300  -14.7770 C.2       1 C7N        -0.0553
      5 C5        -41.9740   -3.8160  -13.5130 C.ar      1 C7N        -0.0295
      6 C6        -41.9600   -5.1790  -13.0490 C.ar      1 C7N        -0.0301
      7 C7        -41.3190   -5.6620  -11.8950 C.ar      1 C7N         0.0832
      8 C9        -40.6110   -4.7040  -11.1100 C.ar      1 C7N        -0.0379
      9 C10       -40.6210   -3.3870  -11.5360 C.ar      1 C7N        -0.0687
     10 C11       -41.2560   -2.8490  -12.7170 C.ar      1 C7N        -0.0375
     11 C12       -41.1980   -1.3650  -13.1480 C.2       1 C7N        -0.0277
     12 C13       -39.9640   -0.7700  -13.3920 C.2       1 C7N        -0.0420
     13 C14       -39.7940    0.7490  -13.7950 C.3       1 C7N         0.0228
     14 C15       -38.5580    0.9370  -14.7160 C.3       1 C7N        -0.0206
     15 C17       -36.2680    0.4840  -15.2170 C.3       1 C7N        -0.0427
     16 C18       -37.4900   -1.0810  -13.9470 C.3       1 C7N        -0.0206
     17 C19       -38.6130   -1.3710  -12.9450 C.3       1 C7N         0.0228
     18 C20       -42.4400   -0.5290  -13.3950 C.ar      1 C7N        -0.0296
     19 C21       -42.7520    0.6650  -12.6710 C.ar      1 C7N        -0.0622
     20 C22       -43.8590    1.4690  -12.8590 C.ar      1 C7N        -0.0684
     21 C23       -44.8030    1.0880  -13.8340 C.ar      1 C7N        -0.0675
     22 N16       -37.3770    0.3250  -14.1900 N.4       1 C7N         0.2367
     23 O8        -41.3180   -6.9760  -11.4760 O.3       1 C7N        -0.3362
     24 H1        -45.2917   -0.3703  -15.2999 H         1 C7N         0.0599
     25 H2        -43.5024   -2.0809  -16.2170 H         1 C7N         0.0640
     26 H3        -42.8603   -4.2370  -15.4911 H         1 C7N         0.0633
     27 H4        -42.4970   -5.9046  -13.6491 H         1 C7N         0.0524
     28 H5        -40.0829   -4.9976  -10.2100 H         1 C7N         0.0541
     29 H6        -40.0911   -2.6771  -10.9112 H         1 C7N         0.0532
     30 H7        -39.6608    1.3516  -12.8844 H         1 C7N         0.0513
     31 H8        -40.6959    1.0844  -14.3280 H         1 C7N         0.0513
     32 H9        -38.3711    2.0141  -14.8381 H         1 C7N         0.0844
     33 H10       -38.7788    0.4897  -15.6964 H         1 C7N         0.0844
     34 H11       -35.3461    0.0205  -14.8358 H         1 C7N         0.0778
     35 H12       -36.0908    1.5536  -15.4028 H         1 C7N         0.0778
     36 H13       -36.5643   -0.0071  -16.1556 H         1 C7N         0.0778
     37 H14       -37.7106   -1.5942  -14.8946 H         1 C7N         0.0844
     38 H15       -36.5385   -1.4544  -13.5405 H         1 C7N         0.0844
     39 H16       -38.7258   -2.4606  -12.8451 H         1 C7N         0.0513
     40 H17       -38.3385   -0.9399  -11.9709 H         1 C7N         0.0513
     41 H18       -42.0520    0.9677  -11.9007 H         1 C7N         0.0550
     42 H19       -43.9983    2.3696  -12.2720 H         1 C7N         0.0606
     43 H20       -45.6893    1.6846  -14.0175 H         1 C7N         0.0564
     44 H21       -37.1291    0.7887  -13.3300 H         1 C7N         0.2035
     45 H22       -40.4242   -7.2964  -11.4442 H         1 C7N         0.2467
@<TRIPOS>BOND
     1    1    2 ar 
     2    1   21 ar 
     3    2    3 1  
     4    2   18 ar 
     5    3    4 2  
     6    4    5 1  
     7    5    6 ar 
     8    5   10 ar 
     9    6    7 ar 
    10    7    8 ar 
    11    7   23 1  
    12    8    9 ar 
    13    9   10 ar 
    14   10   11 1  
    15   11   12 2  
    16   11   18 1  
    17   12   13 1  
    18   12   17 1  
    19   13   14 1  
    20   14   22 1  
    21   22   15 1  
    22   17   16 1  
    23   16   22 1  
    24   18   19 ar 
    25   19   20 ar 
    26   20   21 ar 
    27    1   24 1  
    28    3   25 1  
    29    4   26 1  
    30    6   27 1  
    31    8   28 1  
    32    9   29 1  
    33   13   30 1  
    34   13   31 1  
    35   14   32 1  
    36   14   33 1  
    37   15   34 1  
    38   15   35 1  
    39   15   36 1  
    40   16   37 1  
    41   16   38 1  
    42   17   39 1  
    43   17   40 1  
    44   19   41 1  
    45   20   42 1  
    46   21   43 1  
    47   22   44 1  
    48   23   45 1  
@<TRIPOS>SUBSTRUCTURE
     1 C7N         1

