### 
### Created by X-TOOL on Wed Jan  1 15:39:38 2020
### 

@<TRIPOS>MOLECULE
5ylu_ligand
   41    43     1     0     0
SMALL
GAST_HUCK


@<TRIPOS>ATOM
      1 CAL        49.3660  -16.0720   -2.7750 C.2       1 HKT         0.0873
      2 CAM        49.2150  -17.2790   -3.6420 C.ar      1 HKT         0.0295
      3 CAN        48.4400  -14.5220   -5.4710 C.ar      1 HKT         0.1523
      4 CAO        49.0760  -14.0340   -1.8820 C.2       1 HKT         0.0547
      5 CAP        49.9830  -14.7130   -1.0670 C.2       1 HKT        -0.0248
      6 CAQ        50.1520  -15.9790   -1.6290 C.2       1 HKT        -0.0729
      7 CAR        50.2790  -17.8580   -4.3190 C.ar      1 HKT         0.1364
      8 CAS        47.9500  -17.8680   -3.7010 C.ar      1 HKT        -0.0601
      9 CAT        48.3140  -15.5900   -6.3740 C.ar      1 HKT         0.0398
     10 CAU        49.2600  -13.4700   -5.8790 C.ar      1 HKT        -0.0134
     11 CAV        50.6700  -14.1690    0.1870 C.3       1 HKT        -0.0213
     12 CAW        50.0410  -19.0060   -5.0640 C.ar      1 HKT        -0.0324
     13 CAX        47.6960  -19.0030   -4.4420 C.ar      1 HKT        -0.0704
     14 CAY        49.8980  -13.5090   -7.1250 C.ar      1 HKT        -0.0315
     15 CAZ        48.7620  -19.5700   -5.1240 C.ar      1 HKT        -0.0683
     16 CBA        49.7240  -14.6000   -7.9690 C.ar      1 HKT         0.0116
     17 CBB        49.7320  -15.7150    1.7400 C.3       1 HKT        -0.0441
     18 FAB        51.5290  -17.3450   -4.2840 F         1 HKT        -0.1855
     19 NAI        48.7500  -14.8940   -2.8570 N.am      1 HKT        -0.1365
     20 NAJ        48.9300  -15.6090   -7.5800 N.ar      1 HKT        -0.2944
     21 NAK        49.8300  -14.2880    1.3960 N.4       1 HKT         0.2312
     22 OAC        47.1860  -13.2050   -3.6850 O.2       1 HKT        -0.1336
     23 OAD        46.5170  -15.3380   -3.9840 O.2       1 HKT        -0.1336
     24 SAA        47.6960  -14.5050   -4.0190 S.o2      1 HKT         0.1241
     25 H1         48.7093  -13.0168   -1.7526 H         1 HKT         0.0746
     26 H2         50.7938  -16.7660   -1.2357 H         1 HKT         0.0220
     27 H3         47.1375  -17.4161   -3.1435 H         1 HKT         0.0569
     28 H4         47.6969  -16.4360   -6.0936 H         1 HKT         0.0848
     29 H5         49.4044  -12.6162   -5.2269 H         1 HKT         0.0760
     30 H6         50.9059  -13.1067    0.0259 H         1 HKT         0.0892
     31 H7         51.6016  -14.7310    0.3494 H         1 HKT         0.0892
     32 H8         50.8567  -19.4709   -5.6059 H         1 HKT         0.0590
     33 H9         46.7028  -19.4347   -4.4894 H         1 HKT         0.0571
     34 H10        50.5307  -12.6844   -7.4330 H         1 HKT         0.0713
     35 H11        48.6016  -20.4654   -5.7136 H         1 HKT         0.0568
     36 H12        50.2240  -14.6350   -8.9301 H         1 HKT         0.0827
     37 H13        49.1100  -15.8334    2.6395 H         1 HKT         0.0777
     38 H14        50.7380  -16.1152    1.9345 H         1 HKT         0.0777
     39 H15        49.2747  -16.2633    0.9033 H         1 HKT         0.0777
     40 H16        48.9112  -13.9161    1.2127 H         1 HKT         0.2018
     41 H17        50.2522  -13.7804    2.1577 H         1 HKT         0.2018
@<TRIPOS>BOND
     1    1    2 1  
     2    1    6 2  
     3   19    1 1  
     4    2    7 ar 
     5    2    8 ar 
     6    3    9 ar 
     7    3   10 ar 
     8   24    3 1  
     9    4    5 2  
    10   19    4 1  
    11    5    6 1  
    12    5   11 1  
    13    7   12 ar 
    14    7   18 1  
    15    8   13 ar 
    16    9   20 ar 
    17   10   14 ar 
    18   11   21 1  
    19   12   15 ar 
    20   13   15 ar 
    21   14   16 ar 
    22   20   16 ar 
    23   21   17 1  
    24   19   24 am 
    25   24   22 2  
    26   24   23 2  
    27    4   25 1  
    28    6   26 1  
    29    8   27 1  
    30    9   28 1  
    31   10   29 1  
    32   11   30 1  
    33   11   31 1  
    34   12   32 1  
    35   13   33 1  
    36   14   34 1  
    37   15   35 1  
    38   16   36 1  
    39   17   37 1  
    40   17   38 1  
    41   17   39 1  
    42   21   40 1  
    43   21   41 1  
@<TRIPOS>SUBSTRUCTURE
     1 HKT         1

