### 
### Created by X-TOOL on Wed Jan  1 15:39:38 2020
### 

@<TRIPOS>MOLECULE
5ylv_ligand
   42    44     1     0     0
SMALL
GAST_HUCK


@<TRIPOS>ATOM
      1 C10        51.0550  -10.9990   -6.6310 C.3       1 8WX         0.0734
      2 C11        50.5970  -15.7550   -8.9870 C.ar      1 8WX        -0.0050
      3 C12        51.3470  -14.6600   -9.4110 C.ar      1 8WX        -0.0408
      4 C13        49.1470  -12.0570   -4.4560 C.3       1 8WX         0.0350
      5 C14        49.6140  -18.0380   -7.3740 C.3       1 8WX         0.1090
      6 C15        48.7210  -18.9590   -6.5570 C.ar      1 8WX        -0.0120
      7 C16        48.9340  -19.1240   -5.2000 C.ar      1 8WX        -0.0577
      8 C17        47.6820  -19.6400   -7.1570 C.ar      1 8WX        -0.0577
      9 C18        50.2170  -10.0020   -7.4270 C.3       1 8WX        -0.0120
     10 C19        48.1240  -19.9450   -4.4400 C.ar      1 8WX        -0.0685
     11 C20        46.8700  -20.4550   -6.3910 C.ar      1 8WX        -0.0685
     12 C21        47.0830  -20.6210   -5.0330 C.ar      1 8WX        -0.0687
     13 C5         50.4550  -12.3850   -6.6340 C.2       1 8WX         0.1355
     14 C6         49.9020  -14.4450   -7.0980 C.ar      1 8WX         0.2164
     15 C7         49.6090  -12.8350   -5.6500 C.2       1 8WX         0.1712
     16 C8         49.8680  -15.6410   -7.8110 C.ar      1 8WX         0.1745
     17 C9         51.3410  -13.4800   -8.6590 C.ar      1 8WX         0.0018
     18 N2         50.6240  -13.3870   -7.5210 N.ar      1 8WX        -0.2667
     19 N3         49.2800  -14.1030   -5.9500 N.pl3     1 8WX        -0.2004
     20 N4         50.8330   -9.7760   -8.7350 N.4       1 8WX         0.2221
     21 O1         49.1140  -16.6890   -7.3430 O.3       1 8WX        -0.2872
     22 H1         51.1288  -10.6480   -5.5911 H         1 8WX         0.0708
     23 H2         52.0608  -11.0483   -7.0736 H         1 8WX         0.0708
     24 H3         50.5830  -16.6740   -9.5617 H         1 8WX         0.0665
     25 H4         51.9333  -14.7220  -10.3206 H         1 8WX         0.0687
     26 H5         48.4764  -12.6821   -3.8481 H         1 8WX         0.0567
     27 H6         48.6078  -11.1583   -4.7901 H         1 8WX         0.0567
     28 H7         50.0175  -11.7594   -3.8530 H         1 8WX         0.0567
     29 H8         49.6397  -18.3901   -8.4158 H         1 8WX         0.0789
     30 H9         50.6312  -18.0561   -6.9556 H         1 8WX         0.0789
     31 H10        49.7534  -18.5982   -4.7234 H         1 8WX         0.0557
     32 H11        47.5038  -19.5367   -8.2213 H         1 8WX         0.0557
     33 H12        50.1624   -9.0499   -6.8788 H         1 8WX         0.0870
     34 H13        49.2026  -10.4044   -7.5649 H         1 8WX         0.0870
     35 H14        48.3084  -20.0565   -3.3776 H         1 8WX         0.0599
     36 H15        46.0465  -20.9769   -6.8649 H         1 8WX         0.0599
     37 H16        46.4419  -21.2710   -4.4485 H         1 8WX         0.0559
     38 H17        51.9210  -12.6286   -8.9962 H         1 8WX         0.0760
     39 H18        48.6585  -14.7108   -5.3975 H         1 8WX         0.2651
     40 H19        50.2778   -9.1174   -9.2585 H         1 8WX         0.1998
     41 H20        50.8829  -10.6480   -9.2381 H         1 8WX         0.1998
     42 H21        51.7625   -9.4068   -8.6094 H         1 8WX         0.1998
@<TRIPOS>BOND
     1    1    9 1  
     2   13    1 1  
     3    2    3 ar 
     4   16    2 ar 
     5    3   17 ar 
     6   15    4 1  
     7    5    6 1  
     8   21    5 1  
     9    6    7 ar 
    10    6    8 ar 
    11    7   10 ar 
    12    8   11 ar 
    13    9   20 1  
    14   10   12 ar 
    15   11   12 ar 
    16   15   13 2  
    17   18   13 1  
    18   16   14 ar 
    19   14   18 ar 
    20   14   19 1  
    21   19   15 1  
    22   16   21 1  
    23   17   18 ar 
    24    1   22 1  
    25    1   23 1  
    26    2   24 1  
    27    3   25 1  
    28    4   26 1  
    29    4   27 1  
    30    4   28 1  
    31    5   29 1  
    32    5   30 1  
    33    7   31 1  
    34    8   32 1  
    35    9   33 1  
    36    9   34 1  
    37   10   35 1  
    38   11   36 1  
    39   12   37 1  
    40   17   38 1  
    41   19   39 1  
    42   20   40 1  
    43   20   41 1  
    44   20   42 1  
@<TRIPOS>SUBSTRUCTURE
     1 8WX         1

