### 
### Created by X-TOOL on Wed Jan  1 15:39:36 2020
### 

@<TRIPOS>MOLECULE
5yof_ligand
   53    52     1     0     0
SMALL
GAST_HUCK


@<TRIPOS>ATOM
      1 N         -14.0540   16.8280  -13.3990 N.am      1 7HS        -0.2658
      2 CA        -12.6110   16.5660  -13.3680 C.3       1 7HS         0.1309
      3 CAA       -16.0080   18.2030  -13.8130 C.3       1 7HS         0.0258
      4 CAB       -14.4880   18.0080  -13.8330 C.2       1 7HS         0.1751
      5 CAN       -10.7150   14.9730  -16.2680 C.3       1 7HS         0.1129
      6 CAO        -9.3450   14.4430  -15.8200 C.2       1 7HS         0.1245
      7 CAQ       -10.6280   15.6960  -17.6200 C.3       1 7HS        -0.0105
      8 CAR       -12.0410   16.0240  -18.1260 C.3       1 7HS        -0.0155
      9 CAS       -12.7780   14.7310  -18.4840 C.3       1 7HS         0.0627
     10 CAU       -14.8240   15.3810  -19.7180 C.cat     1 7HS         0.2882
     11 C         -12.2560   15.5580  -14.4650 C.2       1 7HS         0.2040
     12 O         -12.9410   14.5550  -14.6530 O.2       1 7HS        -0.3944
     13 NAM       -11.1860   15.8690  -15.2060 N.am      1 7HS        -0.2650
     14 NAT       -14.2200   15.0000  -18.5870 N.pl3     1 7HS        -0.2723
     15 NAV       -16.1470   15.6080  -19.7270 N.pl3     1 7HS        -0.2849
     16 NAW       -14.1050   15.5390  -20.8410 N.pl3     1 7HS        -0.2849
     17 OAC       -13.7310   18.8860  -14.2420 O.2       1 7HS        -0.3972
     18 OAX        -9.2660   13.8140  -14.7470 O.2       1 7HS        -0.3725
     19 CB        -12.2020   16.0940  -11.9550 C.3       1 7HS        -0.0122
     20 CG        -11.9800   17.3480  -11.0920 C.3       1 7HS        -0.0440
     21 CD        -11.9940   17.0280   -9.5950 C.3       1 7HS        -0.0124
     22 CE        -11.7000   18.3060   -8.8020 C.3       1 7HS        -0.0354
     23 NZ        -11.8080   18.0490   -7.3520 N.4       1 7HS         0.2185
     24 H1        -14.7026   16.1289  -13.0979 H         1 7HS         0.1882
     25 H2        -12.0766   17.5036  -13.5810 H         1 7HS         0.0800
     26 H3        -16.2539   19.2067  -14.1900 H         1 7HS         0.0467
     27 H4        -16.3777   18.0977  -12.7824 H         1 7HS         0.0467
     28 H5        -16.4834   17.4446  -14.4524 H         1 7HS         0.0467
     29 H6        -11.4151   14.1307  -16.3705 H         1 7HS         0.0790
     30 H7         -8.4585   14.6137  -16.4290 H         1 7HS         0.1373
     31 H8        -10.1204   15.0474  -18.3491 H         1 7HS         0.0314
     32 H9        -10.0576   16.6288  -17.4994 H         1 7HS         0.0314
     33 H10       -11.9699   16.6627  -19.0188 H         1 7HS         0.0301
     34 H11       -12.5965   16.5547  -17.3388 H         1 7HS         0.0301
     35 H12       -12.6005   13.9791  -17.7009 H         1 7HS         0.0689
     36 H13       -12.4062   14.3519  -19.4474 H         1 7HS         0.0689
     37 H14       -10.6998   16.7256  -15.0332 H         1 7HS         0.1884
     38 H15       -14.7971   14.8888  -17.7411 H         1 7HS         0.2642
     39 H16       -16.6133   15.9014  -20.5973 H         1 7HS         0.2615
     40 H17       -16.6959   15.4887  -18.8636 H         1 7HS         0.2615
     41 H18       -13.0900   15.3642  -20.8315 H         1 7HS         0.2615
     42 H19       -14.5685   15.8350  -21.7119 H         1 7HS         0.2615
     43 H20       -11.2733   15.5071  -12.0097 H         1 7HS         0.0312
     44 H21       -13.0012   15.4760  -11.5200 H         1 7HS         0.0312
     45 H22       -12.7793   18.0724  -11.3071 H         1 7HS         0.0269
     46 H23       -11.0061   17.7888  -11.3511 H         1 7HS         0.0269
     47 H24       -11.2255   16.2729   -9.3733 H         1 7HS         0.0317
     48 H25       -12.9830   16.6389   -9.3115 H         1 7HS         0.0317
     49 H26       -12.4237   19.0838   -9.0870 H         1 7HS         0.0813
     50 H27       -10.6813   18.6502   -9.0341 H         1 7HS         0.0813
     51 H28       -11.6121   18.8978   -6.8448 H         1 7HS         0.1994
     52 H29       -11.1445   17.3382   -7.0864 H         1 7HS         0.1994
     53 H30       -12.7411   17.7356   -7.1349 H         1 7HS         0.1994
@<TRIPOS>BOND
     1    2    1 1  
     2    1    4 am 
     3   11    2 1  
     4    2   19 1  
     5    4    3 1  
     6    4   17 2  
     7    5    6 1  
     8    5    7 1  
     9   13    5 1  
    10    6   18 2  
    11    7    8 1  
    12    8    9 1  
    13    9   14 1  
    14   14   10 ar 
    15   10   15 ar 
    16   10   16 ar 
    17   11   12 2  
    18   11   13 am 
    19   19   20 1  
    20   20   21 1  
    21   21   22 1  
    22   22   23 1  
    23    1   24 1  
    24    2   25 1  
    25    3   26 1  
    26    3   27 1  
    27    3   28 1  
    28    5   29 1  
    29    6   30 1  
    30    7   31 1  
    31    7   32 1  
    32    8   33 1  
    33    8   34 1  
    34    9   35 1  
    35    9   36 1  
    36   13   37 1  
    37   14   38 1  
    38   15   39 1  
    39   15   40 1  
    40   16   41 1  
    41   16   42 1  
    42   19   43 1  
    43   19   44 1  
    44   20   45 1  
    45   20   46 1  
    46   21   47 1  
    47   21   48 1  
    48   22   49 1  
    49   22   50 1  
    50   23   51 1  
    51   23   52 1  
    52   23   53 1  
@<TRIPOS>SUBSTRUCTURE
     1 7HS         1

