### 
### Created by X-TOOL on Mon Aug  2 16:12:21 2021
### 

@<TRIPOS>MOLECULE
5yov_ligand
   60    62     1     0     0
SMALL
GAST_HUCK


@<TRIPOS>ATOM
      1 C13       -19.9710   -8.0940   79.8090 C.3       1 MOL        -0.0458
      2 C15       -26.0670   -8.2140   79.3690 C.2       1 MOL         0.2143
      3 C17       -26.0200   -7.9540   76.9580 C.ar      1 MOL         0.0613
      4 C20       -24.9200   -8.1470   74.5970 C.ar      1 MOL        -0.0717
      5 C21       -24.7980   -6.6570   74.5140 C.ar      1 MOL        -0.0673
      6 C22       -25.2980   -5.8300   75.6460 C.ar      1 MOL        -0.0805
      7 C24       -22.0370   -7.8750   76.2510 C.3       1 MOL        -0.0308
      8 C26       -20.0270   -8.0720   75.1620 C.3       1 MOL        -0.0510
      9 C28       -25.5920  -10.3030   75.9010 C.3       1 MOL        -0.0364
     10 C01       -24.9310   -6.4100   80.6520 C.ar      1 MOL        -0.0681
     11 C02       -24.8930   -7.3770   79.5300 C.ar      1 MOL         0.0272
     12 C03       -23.7350   -7.6900   78.7050 C.ar      1 MOL        -0.0371
     13 C04       -22.5090   -6.8470   78.9790 C.ar      1 MOL         0.0701
     14 C05       -22.5460   -5.8790   80.0280 C.ar      1 MOL         0.0946
     15 C06       -23.7580   -5.6180   80.8950 C.ar      1 MOL        -0.0450
     16 N07       -21.2440   -7.0850   78.2000 N.pl3     1 MOL        -0.3104
     17 C08       -20.2430   -6.9270   78.7640 C.3       1 MOL         0.0216
     18 C09       -20.1950   -5.3850   79.6950 C.2       1 MOL         0.1981
     19 N10       -21.3190   -5.0560   80.2210 N.am      1 MOL        -0.2256
     20 O11       -19.2220   -4.8060   79.8000 O.2       1 MOL        -0.3711
     21 C12       -21.4760   -3.9210   80.9940 C.3       1 MOL         0.0436
     22 C14       -21.3330   -8.2290   77.2610 C.3       1 MOL         0.0355
     23 N16       -26.5870   -8.5350   78.1110 N.am      1 MOL        -0.2424
     24 O18       -26.4020   -8.6670   80.4360 O.2       1 MOL        -0.3823
     25 C19       -25.5000   -8.8040   75.8310 C.ar      1 MOL        -0.0301
     26 C23       -25.8650   -6.4790   76.8320 C.ar      1 MOL        -0.0536
     27 C25       -20.8930   -7.0990   75.3940 C.3       1 MOL        -0.0510
     28 C27       -19.9670   -8.6980   76.5610 C.3       1 MOL        -0.0308
     29 C29       -24.2300   -6.0020   73.2830 C.3       1 MOL        -0.0396
     30 H1        -19.0159   -7.9106   80.3230 H         1 MOL         0.0248
     31 H2        -19.9232   -9.0568   79.2792 H         1 MOL         0.0248
     32 H3        -20.7855   -8.1219   80.5477 H         1 MOL         0.0248
     33 H4        -24.5901   -8.7603   73.7663 H         1 MOL         0.0457
     34 H5        -25.2429   -4.7487   75.5935 H         1 MOL         0.0463
     35 H6        -22.8610   -7.2053   76.5382 H         1 MOL         0.0287
     36 H7        -22.4413   -8.7415   75.7073 H         1 MOL         0.0287
     37 H8        -19.0483   -7.6830   74.8445 H         1 MOL         0.0266
     38 H9        -20.4005   -8.7829   74.4103 H         1 MOL         0.0266
     39 H10       -26.0355  -10.5986   76.8633 H         1 MOL         0.0361
     40 H11       -24.5850  -10.7367   75.8128 H         1 MOL         0.0361
     41 H12       -26.2229  -10.6705   75.0782 H         1 MOL         0.0361
     42 H13       -25.8156   -6.3038   81.2694 H         1 MOL         0.0523
     43 H14       -23.7501   -8.4686   77.9510 H         1 MOL         0.0511
     44 H15       -23.7416   -4.8612   81.6709 H         1 MOL         0.0476
     45 H16       -19.4212   -6.9032   78.0332 H         1 MOL         0.0506
     46 H17       -20.2835   -5.9682   79.3017 H         1 MOL         0.0506
     47 H18       -20.1715   -6.2954   79.0979 H         1 MOL         0.1613
     48 H19       -22.5202   -3.8494   81.3323 H         1 MOL         0.0550
     49 H20       -21.2223   -3.0327   80.3969 H         1 MOL         0.0550
     50 H21       -20.8105   -3.9776   81.8680 H         1 MOL         0.0550
     51 H22       -21.7888   -9.0785   77.7906 H         1 MOL         0.0545
     52 H23       -27.3543   -9.1711   78.0299 H         1 MOL         0.2204
     53 H24       -26.1870   -5.8543   77.6573 H         1 MOL         0.0465
     54 H25       -20.4363   -6.2864   75.9780 H         1 MOL         0.0266
     55 H26       -21.3005   -6.6927   74.4565 H         1 MOL         0.0266
     56 H27       -19.0950   -8.3250   77.1183 H         1 MOL         0.0287
     57 H28       -19.9187   -9.7950   76.4958 H         1 MOL         0.0287
     58 H29       -23.9176   -6.7762   72.5668 H         1 MOL         0.0362
     59 H30       -23.3607   -5.3884   73.5620 H         1 MOL         0.0362
     60 H31       -24.9967   -5.3629   72.8208 H         1 MOL         0.0362
@<TRIPOS>BOND
     1   17    1 1  
     2   11    2 1  
     3    2   23 am 
     4    2   24 2  
     5   23    3 1  
     6    3   25 ar 
     7    3   26 ar 
     8    4    5 ar 
     9   25    4 ar 
    10    6    5 ar 
    11    5   29 1  
    12   26    6 ar 
    13   22    7 1  
    14    7   27 1  
    15   27    8 1  
    16    8   28 1  
    17   25    9 1  
    18   11   10 ar 
    19   15   10 ar 
    20   12   11 ar 
    21   13   12 ar 
    22   13   14 ar 
    23   16   13 1  
    24   14   15 ar 
    25   14   19 1  
    26   16   17 1  
    27   16   22 1  
    28   19   18 am 
    29   18   20 2  
    30   19   21 1  
    31   22   28 1  
    32    1   30 1  
    33    1   31 1  
    34    1   32 1  
    35    4   33 1  
    36    6   34 1  
    37    7   35 1  
    38    7   36 1  
    39    8   37 1  
    40    8   38 1  
    41    9   39 1  
    42    9   40 1  
    43    9   41 1  
    44   10   42 1  
    45   12   43 1  
    46   15   44 1  
    47   17   45 1  
    48   17   46 1  
    49   18   47 1  
    50   21   48 1  
    51   21   49 1  
    52   21   50 1  
    53   22   51 1  
    54   23   52 1  
    55   26   53 1  
    56   27   54 1  
    57   27   55 1  
    58   28   56 1  
    59   28   57 1  
    60   29   58 1  
    61   29   59 1  
    62   29   60 1  
@<TRIPOS>SUBSTRUCTURE
     1 MOL         1

