### 
### Created by X-TOOL on Wed Jan  1 15:39:37 2020
### 

@<TRIPOS>MOLECULE
5yp5_ligand
   68    71     1     0     0
SMALL
GAST_HUCK


@<TRIPOS>ATOM
      1 N1        -27.3930   -3.2670  -26.5690 N.am      1 4CZ        -0.1878
      2 C4        -25.0790    1.7090  -26.4950 C.ar      1 4CZ        -0.0433
      3 C5        -25.6230    0.7680  -27.3780 C.ar      1 4CZ        -0.0561
      4 C6        -26.5040   -0.2100  -26.8990 C.ar      1 4CZ        -0.0234
      5 C7        -27.0520   -1.1760  -27.7550 C.3       1 4CZ         0.0789
      6 C8        -26.5210   -2.5500  -27.2980 C.2       1 4CZ         0.2289
      7 C10       -27.2140   -6.2790  -24.7360 C.2       1 4CZ         0.0249
      8 C13       -24.6880   -7.8140  -23.8530 C.ar      1 4CZ         0.0310
      9 C15       -24.0880   -6.9400  -21.6480 C.ar      1 4CZ        -0.0632
     10 C17       -23.8030   -9.2910  -22.1450 C.ar      1 4CZ        -0.0546
     11 C20       -24.4630  -11.5680  -23.5900 C.3       1 4CZ        -0.0361
     12 C21       -23.7320  -12.6330  -24.4160 C.3       1 4CZ        -0.0607
     13 C22       -25.9290  -11.9660  -23.4150 C.3       1 4CZ        -0.0607
     14 C24       -27.8260   -8.4520  -23.9080 C.ar      1 4CZ        -0.0545
     15 C26       -29.0720   -8.6160  -21.8370 C.ar      1 4CZ        -0.0621
     16 C28       -28.4320   -6.4590  -22.7200 C.ar      1 4CZ        -0.0545
     17 C19       -24.3780  -10.2140  -24.3140 C.3       1 4CZ        -0.0133
     18 C18       -24.2970   -9.1090  -23.4430 C.ar      1 4CZ        -0.0245
     19 C16       -23.7050   -8.2200  -21.2550 C.ar      1 4CZ        -0.0643
     20 C14       -24.5710   -6.7540  -22.9420 C.ar      1 4CZ        -0.0508
     21 C12       -25.1720   -7.5390  -25.1470 C.2       1 4CZ         0.1486
     22 O4        -24.7540   -8.1360  -26.1370 O.2       1 4CZ        -0.3882
     23 C11       -26.0090   -6.5070  -25.3070 C.2       1 4CZ         0.0954
     24 S2        -25.6720   -5.2670  -26.3350 S.3       1 4CZ         0.0329
     25 C23       -27.8130   -7.0590  -23.8180 C.ar      1 4CZ        -0.0159
     26 C27       -29.0630   -7.2260  -21.7360 C.ar      1 4CZ        -0.0616
     27 C25       -28.4490   -9.2250  -22.9270 C.ar      1 4CZ        -0.0616
     28 N2        -27.7710   -5.1120  -25.1450 N.2       1 4CZ        -0.3000
     29 C9        -27.0380   -4.4420  -26.0460 C.2       1 4CZ         0.2156
     30 O3        -25.3770   -2.9070  -27.5830 O.2       1 4CZ        -0.3758
     31 C29       -26.8260   -0.2450  -25.5400 C.ar      1 4CZ        -0.0561
     32 C30       -26.2820    0.6920  -24.6650 C.ar      1 4CZ        -0.0433
     33 C3        -25.4140    1.6770  -25.1330 C.ar      1 4CZ         0.0815
     34 S1        -24.7220    2.8740  -23.9420 S.o2      1 4CZ        -0.0061
     35 O1        -24.5910    4.2660  -24.5840 O.2       1 4CZ        -0.1702
     36 O2        -25.6090    2.9290  -22.6990 O.2       1 4CZ        -0.1702
     37 C2        -23.0600    2.2880  -23.4450 C.3       1 4CZ         0.0672
     38 C1        -23.1610    0.8250  -23.0090 C.3       1 4CZ        -0.0454
     39 H1        -28.3171   -2.9164  -26.4170 H         1 4CZ         0.2444
     40 H2        -24.3963    2.4652  -26.8654 H         1 4CZ         0.0619
     41 H3        -25.3629    0.7964  -28.4299 H         1 4CZ         0.0561
     42 H4        -26.7422   -0.9790  -28.7919 H         1 4CZ         0.0667
     43 H5        -28.1499   -1.1566  -27.6903 H         1 4CZ         0.0667
     44 H6        -24.0119   -6.1049  -20.9610 H         1 4CZ         0.0571
     45 H7        -23.4918  -10.2793  -21.8265 H         1 4CZ         0.0568
     46 H8        -23.9883  -11.4838  -22.6013 H         1 4CZ         0.0319
     47 H9        -23.7918  -13.6024  -23.8996 H         1 4CZ         0.0234
     48 H10       -22.6770  -12.3450  -24.5343 H         1 4CZ         0.0234
     49 H11       -24.2028  -12.7157  -25.4067 H         1 4CZ         0.0234
     50 H12       -26.4488  -11.1991  -22.8220 H         1 4CZ         0.0234
     51 H13       -25.9867  -12.9334  -22.8946 H         1 4CZ         0.0234
     52 H14       -26.4061  -12.0517  -24.4024 H         1 4CZ         0.0234
     53 H15       -27.3467   -8.9390  -24.7495 H         1 4CZ         0.0620
     54 H16       -29.5577   -9.2175  -21.0771 H         1 4CZ         0.0614
     55 H17       -28.4233   -5.3789  -22.6287 H         1 4CZ         0.0620
     56 H18       -25.2754  -10.0979  -24.9394 H         1 4CZ         0.0442
     57 H19       -23.4832  -10.2180  -24.9537 H         1 4CZ         0.0442
     58 H20       -23.3286   -8.3856  -20.2520 H         1 4CZ         0.0634
     59 H21       -24.8656   -5.7586  -23.2543 H         1 4CZ         0.0648
     60 H22       -29.5448   -6.7400  -20.8953 H         1 4CZ         0.0617
     61 H23       -28.4489  -10.3056  -23.0124 H         1 4CZ         0.0617
     62 H24       -27.5022   -1.0047  -25.1650 H         1 4CZ         0.0561
     63 H25       -26.5356    0.6550  -23.6117 H         1 4CZ         0.0619
     64 H26       -22.6882    2.8978  -22.6085 H         1 4CZ         0.0500
     65 H27       -22.3686    2.3728  -24.2963 H         1 4CZ         0.0500
     66 H28       -22.1669    0.4627  -22.7081 H         1 4CZ         0.0245
     67 H29       -23.5345    0.2177  -23.8466 H         1 4CZ         0.0245
     68 H30       -23.8541    0.7428  -22.1588 H         1 4CZ         0.0245
@<TRIPOS>BOND
     1    1    6 am 
     2   29    1 1  
     3    3    2 ar 
     4    2   33 ar 
     5    4    3 ar 
     6    5    4 1  
     7    4   31 ar 
     8    6    5 1  
     9    6   30 2  
    10   23    7 2  
    11    7   25 1  
    12    7   28 1  
    13    8   18 ar 
    14    8   20 ar 
    15   21    8 1  
    16    9   19 ar 
    17   20    9 ar 
    18   18   10 ar 
    19   10   19 ar 
    20   11   12 1  
    21   11   13 1  
    22   17   11 1  
    23   25   14 ar 
    24   14   27 ar 
    25   26   15 ar 
    26   27   15 ar 
    27   25   16 ar 
    28   16   26 ar 
    29   18   17 1  
    30   21   22 2  
    31   23   21 1  
    32   24   23 1  
    33   24   29 1  
    34   28   29 2  
    35   31   32 ar 
    36   32   33 ar 
    37   33   34 1  
    38   34   35 2  
    39   34   36 2  
    40   34   37 1  
    41   37   38 1  
    42    1   39 1  
    43    2   40 1  
    44    3   41 1  
    45    5   42 1  
    46    5   43 1  
    47    9   44 1  
    48   10   45 1  
    49   11   46 1  
    50   12   47 1  
    51   12   48 1  
    52   12   49 1  
    53   13   50 1  
    54   13   51 1  
    55   13   52 1  
    56   14   53 1  
    57   15   54 1  
    58   16   55 1  
    59   17   56 1  
    60   17   57 1  
    61   19   58 1  
    62   20   59 1  
    63   26   60 1  
    64   27   61 1  
    65   31   62 1  
    66   32   63 1  
    67   37   64 1  
    68   37   65 1  
    69   38   66 1  
    70   38   67 1  
    71   38   68 1  
@<TRIPOS>SUBSTRUCTURE
     1 4CZ         1

