### 
### Created by X-TOOL on Wed Jan  1 15:39:38 2020
### 

@<TRIPOS>MOLECULE
5yp6_ligand
   64    66     1     0     0
SMALL
GAST_HUCK


@<TRIPOS>ATOM
      1 N1         27.2640   -3.3820  -12.3050 N.am      1 4CX        -0.2262
      2 C4         24.9840    1.6730  -12.3380 C.ar      1 4CX        -0.0433
      3 C5         25.5600    0.7150  -11.5090 C.ar      1 4CX        -0.0562
      4 C6         26.4760   -0.1940  -12.0350 C.ar      1 4CX        -0.0237
      5 C7         27.1070   -1.2640  -11.1450 C.3       1 4CX         0.0764
      6 C8         26.4730   -2.6060  -11.5530 C.2       1 4CX         0.2159
      7 C10        26.0310   -5.4460  -12.1430 C.ar      1 4CX        -0.0106
      8 C13        25.9660   -8.3740  -14.3690 C.ar      1 4CX         0.0004
      9 C15        26.3700  -10.7510  -14.2220 C.ar      1 4CX        -0.0428
     10 C17        25.1110  -12.4630  -15.5240 C.3       1 4CX        -0.0073
     11 C20        24.2410  -14.6510  -14.5900 C.3       1 4CX        -0.0605
     12 C21        24.6690   -9.9270  -15.6930 C.ar      1 4CX         0.1033
     13 C22        24.9570   -8.6110  -15.3030 C.ar      1 4CX        -0.0180
     14 C24        27.2220   -6.2590  -14.5550 C.ar      1 4CX         0.0327
     15 C26        27.8880   -6.6570  -15.8850 C.3       1 4CX         0.3632
     16 C28        26.2270    0.8040  -14.2170 C.ar      1 4CX        -0.0433
     17 C18        24.3710  -13.1460  -14.3620 C.3       1 4CX        -0.0345
     18 C19        23.0010  -12.5080  -14.1130 C.3       1 4CX        -0.0605
     19 C16        25.3750  -11.0010  -15.1590 C.ar      1 4CX        -0.0015
     20 C23        23.6480  -10.2200  -16.6520 C.1       1 4CX         0.0955
     21 N2         22.8230  -10.3940  -17.4210 N.1       1 4CX        -0.3341
     22 C14        26.6640   -9.4500  -13.8280 C.ar      1 4CX        -0.0451
     23 C12        26.3100   -7.1010  -13.9090 C.ar      1 4CX        -0.0019
     24 C25        27.5070   -5.0130  -13.9850 C.ar      1 4CX        -0.0156
     25 F2         26.9550   -6.7510  -16.8320 F         1 4CX        -0.2311
     26 F3         28.5100   -7.8220  -15.7530 F         1 4CX        -0.2311
     27 F1         28.7660   -5.7310  -16.2640 F         1 4CX        -0.2311
     28 C11        25.7350   -6.6870  -12.7040 C.ar      1 4CX        -0.0356
     29 C9         26.9200   -4.5890  -12.7920 C.ar      1 4CX         0.0943
     30 O3         25.3210   -2.8760  -11.2180 O.2       1 4CX        -0.3816
     31 C27        26.8030   -0.1530  -13.3860 C.ar      1 4CX        -0.0562
     32 C3         25.3230    1.7220  -13.6910 C.ar      1 4CX         0.0815
     33 S          24.5830    2.9140  -14.7350 S.o2      1 4CX        -0.0061
     34 O1         24.4160    4.2120  -13.9970 O.2       1 4CX        -0.1702
     35 O2         25.4170    3.1250  -15.9710 O.2       1 4CX        -0.1702
     36 C2         22.9390    2.2750  -15.2220 C.3       1 4CX         0.0672
     37 C1         23.0470    0.8480  -15.7630 C.3       1 4CX        -0.0454
     38 H1         28.1783   -3.0394  -12.5209 H         1 4CX         0.2270
     39 H2         24.2713    2.3819  -11.9324 H         1 4CX         0.0619
     40 H3         25.2971    0.6760  -10.4581 H         1 4CX         0.0561
     41 H4         26.8954   -1.0506  -10.0869 H         1 4CX         0.0665
     42 H5         28.1952   -1.2951  -11.3024 H         1 4CX         0.0665
     43 H6         25.5726   -5.1482  -11.2069 H         1 4CX         0.0761
     44 H7         26.9231  -11.5789  -13.7934 H         1 4CX         0.0598
     45 H8         24.4929  -12.5099  -16.4327 H         1 4CX         0.0467
     46 H9         26.0672  -12.9761  -15.7041 H         1 4CX         0.0467
     47 H10        23.7082  -15.1056  -13.7418 H         1 4CX         0.0234
     48 H11        25.2430  -15.0969  -14.6751 H         1 4CX         0.0234
     49 H12        23.6782  -14.8342  -15.5172 H         1 4CX         0.0234
     50 H13        24.3990   -7.7829  -15.7247 H         1 4CX         0.0749
     51 H14        26.4818    0.8340  -15.2702 H         1 4CX         0.0619
     52 H15        24.9749  -12.9987  -13.4545 H         1 4CX         0.0322
     53 H16        23.1238  -11.4268  -13.9523 H         1 4CX         0.0234
     54 H17        22.5419  -12.9612  -13.2220 H         1 4CX         0.0234
     55 H18        22.3534  -12.6777  -14.9858 H         1 4CX         0.0234
     56 H19        27.4422   -9.2727  -13.0945 H         1 4CX         0.0712
     57 H20        28.2072   -4.3552  -14.4870 H         1 4CX         0.0684
     58 H21        25.0425   -7.3468  -12.1939 H         1 4CX         0.0667
     59 H22        27.5084   -0.8683  -13.7933 H         1 4CX         0.0561
     60 H23        22.5165    2.9250  -16.0023 H         1 4CX         0.0500
     61 H24        22.2766    2.2781  -14.3438 H         1 4CX         0.0500
     62 H25        22.0477    0.4874  -16.0482 H         1 4CX         0.0245
     63 H26        23.4655    0.1918  -14.9857 H         1 4CX         0.0245
     64 H27        23.7054    0.8387  -16.6442 H         1 4CX         0.0245
@<TRIPOS>BOND
     1    1    6 am 
     2   29    1 1  
     3    3    2 ar 
     4    2   32 ar 
     5    4    3 ar 
     6    5    4 1  
     7    4   31 ar 
     8    6    5 1  
     9    6   30 2  
    10   28    7 ar 
    11    7   29 ar 
    12    8   13 ar 
    13    8   22 ar 
    14   23    8 1  
    15    9   19 ar 
    16   22    9 ar 
    17   10   17 1  
    18   19   10 1  
    19   17   11 1  
    20   13   12 ar 
    21   12   19 ar 
    22   12   20 1  
    23   14   15 1  
    24   23   14 ar 
    25   14   24 ar 
    26   15   25 1  
    27   15   26 1  
    28   15   27 1  
    29   31   16 ar 
    30   16   32 ar 
    31   17   18 1  
    32   20   21 3  
    33   23   28 ar 
    34   24   29 ar 
    35   32   33 1  
    36   33   34 2  
    37   33   35 2  
    38   33   36 1  
    39   36   37 1  
    40    1   38 1  
    41    2   39 1  
    42    3   40 1  
    43    5   41 1  
    44    5   42 1  
    45    7   43 1  
    46    9   44 1  
    47   10   45 1  
    48   10   46 1  
    49   11   47 1  
    50   11   48 1  
    51   11   49 1  
    52   13   50 1  
    53   16   51 1  
    54   17   52 1  
    55   18   53 1  
    56   18   54 1  
    57   18   55 1  
    58   22   56 1  
    59   24   57 1  
    60   28   58 1  
    61   31   59 1  
    62   36   60 1  
    63   36   61 1  
    64   37   62 1  
    65   37   63 1  
    66   37   64 1  
@<TRIPOS>SUBSTRUCTURE
     1 4CX         1

