### 
### Created by X-TOOL on Mon Aug  2 16:12:21 2021
### 

@<TRIPOS>MOLECULE
5ypp_ligand
   19    18     1     0     0
SMALL
GAST_HUCK


@<TRIPOS>ATOM
      1 N          13.7360   39.4980    0.0910 N.4       1 VAL         0.2329
      2 CA         13.1160   38.7850    1.2030 C.3       1 VAL         0.0307
      3 C          12.0370   39.6530    1.8510 C.2       1 VAL         0.0847
      4 O          11.7780   40.7740    1.4120 O.co2     1 VAL        -0.5642
      5 CB         14.1760   38.3370    2.2380 C.3       1 VAL         0.0084
      6 CG1        15.2370   37.4710    1.5640 C.3       1 VAL        -0.0559
      7 CG2        14.8090   39.5380    2.9170 C.3       1 VAL        -0.0559
      8 OXT        11.3830   39.2600    2.8180 O.co2     1 VAL        -0.5642
      9 H1         13.0253   39.7778   -0.5667 H         1 VAL         0.2010
     10 H2         14.3991   38.8933   -0.3679 H         1 VAL         0.2010
     11 H3         14.2118   40.3154    0.4395 H         1 VAL         0.2010
     12 H4         12.6321   37.8819    0.8027 H         1 VAL         0.1027
     13 H5         13.6741   37.7324    3.0078 H         1 VAL         0.0369
     14 H6         15.9836   37.1594    2.3093 H         1 VAL         0.0235
     15 H7         15.7314   38.0489    0.7693 H         1 VAL         0.0235
     16 H8         14.7607   36.5806    1.1278 H         1 VAL         0.0235
     17 H9         14.0253   40.1447    3.3941 H         1 VAL         0.0235
     18 H10        15.3383   40.1457    2.1684 H         1 VAL         0.0235
     19 H11        15.5221   39.1939    3.6806 H         1 VAL         0.0235
@<TRIPOS>BOND
     1    1    2 1  
     2    2    3 1  
     3    2    5 1  
     4    3    4 ar 
     5    3    8 ar 
     6    5    6 1  
     7    5    7 1  
     8    1    9 1  
     9    1   10 1  
    10    1   11 1  
    11    2   12 1  
    12    5   13 1  
    13    6   14 1  
    14    6   15 1  
    15    6   16 1  
    16    7   17 1  
    17    7   18 1  
    18    7   19 1  
@<TRIPOS>SUBSTRUCTURE
     1 VAL         1

