### 
### Created by X-TOOL on Mon Aug  2 16:12:21 2021
### 

@<TRIPOS>MOLECULE
5ypw_ligand
   19    18     1     0     0
SMALL
GAST_HUCK


@<TRIPOS>ATOM
      1 N         -20.7550   15.6210  -29.0360 N.4       1 VAL         0.2329
      2 CA        -22.1210   15.5130  -29.5230 C.3       1 VAL         0.0307
      3 C         -22.4990   14.0390  -29.6440 C.2       1 VAL         0.0847
      4 O         -23.6400   13.6860  -30.0030 O.co2     1 VAL        -0.5642
      5 CB        -22.2860   16.2490  -30.8610 C.3       1 VAL         0.0084
      6 CG1       -22.0440   17.7420  -30.6650 C.3       1 VAL        -0.0559
      7 CG2       -21.3280   15.6730  -31.9000 C.3       1 VAL        -0.0559
      8 OXT       -21.6480   13.1820  -29.3580 O.co2     1 VAL        -0.5642
      9 H1        -20.6713   15.1314  -28.1588 H         1 VAL         0.2010
     10 H2        -20.5218   16.5925  -28.9021 H         1 VAL         0.2010
     11 H3        -20.1250   15.2139  -29.7094 H         1 VAL         0.2010
     12 H4        -22.7917   15.9842  -28.7894 H         1 VAL         0.1027
     13 H5        -23.3163   16.1051  -31.2184 H         1 VAL         0.0369
     14 H6        -22.1638   18.2622  -31.6268 H         1 VAL         0.0235
     15 H7        -21.0236   17.9015  -30.2865 H         1 VAL         0.0235
     16 H8        -22.7701   18.1392  -29.9404 H         1 VAL         0.0235
     17 H9        -21.5231   14.5974  -32.0222 H         1 VAL         0.0235
     18 H10       -20.2909   15.8217  -31.5648 H         1 VAL         0.0235
     19 H11       -21.4795   16.1846  -32.8619 H         1 VAL         0.0235
@<TRIPOS>BOND
     1    1    2 1  
     2    2    3 1  
     3    2    5 1  
     4    3    4 ar 
     5    3    8 ar 
     6    5    6 1  
     7    5    7 1  
     8    1    9 1  
     9    1   10 1  
    10    1   11 1  
    11    2   12 1  
    12    5   13 1  
    13    6   14 1  
    14    6   15 1  
    15    6   16 1  
    16    7   17 1  
    17    7   18 1  
    18    7   19 1  
@<TRIPOS>SUBSTRUCTURE
     1 VAL         1

