### 
### Created by X-TOOL on Mon Aug  2 16:12:21 2021
### 

@<TRIPOS>MOLECULE
5ypy_ligand
   19    18     1     0     0
SMALL
GAST_HUCK


@<TRIPOS>ATOM
      1 N         -16.5760   19.1710   29.7210 N.4       1 VAL         0.2329
      2 CA        -17.2380   19.0300   31.0220 C.3       1 VAL         0.0307
      3 C         -17.5130   17.5470   31.3100 C.2       1 VAL         0.0847
      4 O         -17.2050   16.7020   30.4380 O.co2     1 VAL        -0.5642
      5 CB        -18.5340   19.8490   31.0720 C.3       1 VAL         0.0084
      6 CG1       -18.2370   21.3580   30.8300 C.3       1 VAL        -0.0559
      7 CG2       -19.5370   19.3350   30.0500 C.3       1 VAL        -0.0559
      8 OXT       -18.0570   17.1800   32.3750 O.co2     1 VAL        -0.5642
      9 H1        -15.7290   18.6245   29.7140 H         1 VAL         0.2010
     10 H2        -16.3515   20.1406   29.5615 H         1 VAL         0.2010
     11 H3        -17.1924   18.8447   28.9932 H         1 VAL         0.2010
     12 H4        -16.5604   19.4139   31.7988 H         1 VAL         0.1027
     13 H5        -18.9739   19.7386   32.0741 H         1 VAL         0.0369
     14 H6        -19.1772   21.9277   30.8696 H         1 VAL         0.0235
     15 H7        -17.7720   21.4863   29.8414 H         1 VAL         0.0235
     16 H8        -17.5521   21.7263   31.6080 H         1 VAL         0.0235
     17 H9        -19.7353   18.2690   30.2350 H         1 VAL         0.0235
     18 H10       -19.1261   19.4611   29.0375 H         1 VAL         0.0235
     19 H11       -20.4747   19.9032   30.1386 H         1 VAL         0.0235
@<TRIPOS>BOND
     1    1    2 1  
     2    2    3 1  
     3    2    5 1  
     4    3    4 ar 
     5    3    8 ar 
     6    5    6 1  
     7    5    7 1  
     8    1    9 1  
     9    1   10 1  
    10    1   11 1  
    11    2   12 1  
    12    5   13 1  
    13    6   14 1  
    14    6   15 1  
    15    6   16 1  
    16    7   17 1  
    17    7   18 1  
    18    7   19 1  
@<TRIPOS>SUBSTRUCTURE
     1 VAL         1

