### 
### Created by X-TOOL on Wed Jan  1 15:39:35 2020
### 

@<TRIPOS>MOLECULE
5yql_ligand
   48    50     1     0     0
SMALL
GAST_HUCK


@<TRIPOS>ATOM
      1 C11       -16.3200   -7.5580  -21.2800 C.ar      1 A2I        -0.0818
      2 C14       -16.6060   -8.7390  -18.7930 C.ar      1 A2I        -0.0381
      3 N15       -16.2480   -6.5200  -17.7200 N.am      1 A2I        -0.2346
      4 C16       -16.4830   -6.9510  -16.3470 C.2       1 A2I         0.2164
      5 C22       -13.9810   -3.4220  -18.0920 C.ar      1 A2I         0.0267
      6 C23       -12.8430   -2.6960  -17.7850 C.ar      1 A2I        -0.0162
      7 C24       -12.2320   -2.8780  -16.5500 C.ar      1 A2I         0.0267
      8 C1        -12.8780  -12.8720  -22.0440 C.ar      1 A2I        -0.0729
      9 C2        -13.8190  -12.6310  -23.0300 C.ar      1 A2I        -0.0706
     10 C3        -15.0900  -12.2140  -22.6820 C.ar      1 A2I        -0.0329
     11 C4        -15.4290  -12.0320  -21.3470 C.ar      1 A2I         0.0939
     12 C5        -14.4820  -12.2740  -20.3600 C.ar      1 A2I        -0.0329
     13 C6        -13.2090  -12.6950  -20.7100 C.ar      1 A2I        -0.0706
     14 O7        -16.7350  -11.6110  -21.0470 O.3       1 A2I        -0.3058
     15 C8        -16.9800  -10.9970  -19.8070 C.3       1 A2I         0.1010
     16 C9        -16.7030   -9.5050  -19.9420 C.ar      1 A2I        -0.0267
     17 C10       -16.5580   -8.9160  -21.1880 C.ar      1 A2I        -0.0731
     18 C12       -16.2180   -6.7940  -20.1300 C.ar      1 A2I        -0.0481
     19 C13       -16.3660   -7.3810  -18.8850 C.ar      1 A2I         0.0594
     20 O17       -16.8120   -8.0580  -16.0700 O.2       1 A2I        -0.3837
     21 C18       -16.3240   -5.9100  -15.2370 C.3       1 A2I         0.1085
     22 S19       -14.5650   -5.6090  -14.8590 S.3       1 A2I        -0.0372
     23 C20       -13.8420   -4.4160  -16.0240 C.ar      1 A2I         0.1492
     24 N21       -14.4430   -4.2620  -17.1870 N.ar      1 A2I        -0.2660
     25 N25       -12.7470   -3.7440  -15.6900 N.ar      1 A2I        -0.2660
     26 C26       -10.9700   -2.0850  -16.2060 C.3       1 A2I        -0.0129
     27 C27       -14.7020   -3.2760  -19.4360 C.3       1 A2I        -0.0129
     28 H1        -16.2132   -7.0910  -22.2524 H         1 A2I         0.0561
     29 H2        -16.7183   -9.2046  -17.8205 H         1 A2I         0.0438
     30 H3        -15.9877   -5.5663  -17.8704 H         1 A2I         0.2255
     31 H4        -12.4326   -1.9927  -18.5006 H         1 A2I         0.0590
     32 H5        -11.8810  -13.1996  -22.3156 H         1 A2I         0.0523
     33 H6        -13.5596  -12.7691  -24.0734 H         1 A2I         0.0589
     34 H7        -15.8266  -12.0279  -23.4552 H         1 A2I         0.0542
     35 H8        -14.7387  -12.1336  -19.3162 H         1 A2I         0.0542
     36 H9        -12.4711  -12.8861  -19.9393 H         1 A2I         0.0589
     37 H10       -16.3183  -11.4292  -19.0419 H         1 A2I         0.0776
     38 H11       -18.0290  -11.1545  -19.5160 H         1 A2I         0.0776
     39 H12       -16.6310   -9.5180  -22.0865 H         1 A2I         0.0431
     40 H13       -16.0212   -5.7306  -20.2048 H         1 A2I         0.0447
     41 H14       -16.8285   -6.2735  -14.3296 H         1 A2I         0.0655
     42 H15       -16.7875   -4.9666  -15.5612 H         1 A2I         0.0655
     43 H16       -10.6299   -2.3572  -15.1959 H         1 A2I         0.0441
     44 H17       -11.1928   -1.0083  -16.2401 H         1 A2I         0.0441
     45 H18       -10.1798   -2.3192  -16.9345 H         1 A2I         0.0441
     46 H19       -15.5748   -3.9451  -19.4584 H         1 A2I         0.0441
     47 H20       -14.0143   -3.5430  -20.2520 H         1 A2I         0.0441
     48 H21       -15.0346   -2.2352  -19.5625 H         1 A2I         0.0441
@<TRIPOS>BOND
     1    1   17 ar 
     2   18    1 ar 
     3    2   16 ar 
     4   19    2 ar 
     5    4    3 am 
     6    3   19 1  
     7    4   20 2  
     8   21    4 1  
     9    5    6 ar 
    10   24    5 ar 
    11    5   27 1  
    12    6    7 ar 
    13    7   25 ar 
    14    7   26 1  
    15    9    8 ar 
    16   13    8 ar 
    17   10    9 ar 
    18   11   10 ar 
    19   11   12 ar 
    20   14   11 1  
    21   12   13 ar 
    22   15   14 1  
    23   16   15 1  
    24   16   17 ar 
    25   19   18 ar 
    26   22   21 1  
    27   23   22 1  
    28   23   24 ar 
    29   23   25 ar 
    30    1   28 1  
    31    2   29 1  
    32    3   30 1  
    33    6   31 1  
    34    8   32 1  
    35    9   33 1  
    36   10   34 1  
    37   12   35 1  
    38   13   36 1  
    39   15   37 1  
    40   15   38 1  
    41   17   39 1  
    42   18   40 1  
    43   21   41 1  
    44   21   42 1  
    45   26   43 1  
    46   26   44 1  
    47   26   45 1  
    48   27   46 1  
    49   27   47 1  
    50   27   48 1  
@<TRIPOS>SUBSTRUCTURE
     1 A2I         1

