### 
### Created by X-TOOL on Wed Jan  1 15:39:35 2020
### 

@<TRIPOS>MOLECULE
5yqn_ligand
   62    65     1     0     0
SMALL
GAST_HUCK


@<TRIPOS>ATOM
      1 N01       -16.1580   -6.6980  -17.6460 N.am      1 L55        -0.2346
      2 C02       -16.2920   -7.7340  -18.6690 C.ar      1 L55         0.0594
      3 C03       -16.0940   -9.0470  -18.2800 C.ar      1 L55        -0.0381
      4 C04       -16.1960  -10.0820  -19.1890 C.ar      1 L55        -0.0267
      5 C05       -16.5020   -9.8080  -20.5100 C.ar      1 L55        -0.0731
      6 C06       -16.6910   -8.4820  -20.9150 C.ar      1 L55        -0.0818
      7 C07       -16.5820   -7.4420  -19.9880 C.ar      1 L55        -0.0481
      8 C08       -15.9660  -11.4930  -18.6130 C.3       1 L55         0.1006
      9 O09       -16.2230  -12.4980  -19.5560 O.3       1 L55        -0.3097
     10 C10       -15.0460  -12.9610  -20.1820 C.ar      1 L55         0.0803
     11 C11       -14.5420  -12.2190  -21.2370 C.ar      1 L55        -0.0482
     12 C12       -13.3940  -12.6280  -21.8840 C.ar      1 L55        -0.0837
     13 C13       -12.7550  -13.7760  -21.4570 C.ar      1 L55        -0.0523
     14 C14       -13.2290  -14.5230  -20.3940 C.ar      1 L55         0.0561
     15 C15       -14.3980  -14.1210  -19.7460 C.ar      1 L55        -0.0139
     16 N16       -12.4550  -15.7230  -20.0630 N.am      1 L55        -0.2401
     17 C17       -12.0730  -16.2020  -18.7370 C.2       1 L55         0.2119
     18 O18       -12.3740  -15.6550  -17.7250 O.2       1 L55        -0.3876
     19 C19       -11.2430  -17.4950  -18.7550 C.2       1 L55         0.0710
     20 C20       -10.5220  -17.9200  -19.8620 C.2       1 L55         0.0144
     21 N21        -9.9320  -19.0590  -19.5590 N.2       1 L55        -0.2122
     22 N22       -10.2510  -19.3970  -18.2760 N.pl3     1 L55        -0.2024
     23 C23       -11.0490  -18.4600  -17.7700 C.2       1 L55         0.0755
     24 C24        -9.7690  -20.6040  -17.6050 C.3       1 L55         0.0625
     25 C25       -16.6870   -6.9030  -16.2880 C.2       1 L55         0.2164
     26 O26       -17.2480   -7.9060  -16.0000 O.2       1 L55        -0.3837
     27 C27       -16.5170   -5.8070  -15.2180 C.3       1 L55         0.1085
     28 S28       -14.7410   -5.6330  -14.8200 S.3       1 L55        -0.0372
     29 C29       -14.0640   -4.4300  -16.0070 C.ar      1 L55         0.1492
     30 N30       -12.9590   -3.7820  -15.7170 N.ar      1 L55        -0.2660
     31 C31       -12.4550   -2.9020  -16.5650 C.ar      1 L55         0.0267
     32 C32       -13.1100   -2.6730  -17.7640 C.ar      1 L55        -0.0162
     33 C33       -14.2700   -3.3670  -18.0400 C.ar      1 L55         0.0267
     34 N34       -14.7120   -4.2230  -17.1360 N.ar      1 L55        -0.2660
     35 C35       -15.0280   -3.1580  -19.3450 C.3       1 L55        -0.0129
     36 C36       -11.1670   -2.1560  -16.2400 C.3       1 L55        -0.0129
     37 H1        -15.7005   -5.8381  -17.8722 H         1 L55         0.2255
     38 H2        -15.8551   -9.2668  -17.2457 H         1 L55         0.0438
     39 H3        -16.5948  -10.6156  -21.2270 H         1 L55         0.0431
     40 H4        -16.9226   -8.2609  -21.9506 H         1 L55         0.0561
     41 H5        -16.7239   -6.4140  -20.3013 H         1 L55         0.0447
     42 H6        -16.6339  -11.6370  -17.7509 H         1 L55         0.0776
     43 H7        -14.9196  -11.5752  -18.2840 H         1 L55         0.0776
     44 H8        -15.0500  -11.3157  -21.5549 H         1 L55         0.0418
     45 H9        -12.9989  -12.0564  -22.7160 H         1 L55         0.0551
     46 H10       -11.8567  -14.1005  -21.9696 H         1 L55         0.0414
     47 H11       -14.7966  -14.6978  -18.9193 H         1 L55         0.0419
     48 H12       -12.1526  -16.2797  -20.8367 H         1 L55         0.2242
     49 H13       -10.4552  -17.4014  -20.8172 H         1 L55         0.0690
     50 H14       -11.4735  -18.4497  -16.7672 H         1 L55         0.1092
     51 H15       -10.1707  -20.6398  -16.5816 H         1 L55         0.0609
     52 H16        -8.6698  -20.5883  -17.5670 H         1 L55         0.0609
     53 H17       -10.1041  -21.4916  -18.1616 H         1 L55         0.0609
     54 H18       -17.0722   -6.0880  -14.3109 H         1 L55         0.0655
     55 H19       -16.9036   -4.8521  -15.6036 H         1 L55         0.0655
     56 H20       -12.7160   -1.9574  -18.4765 H         1 L55         0.0590
     57 H21       -15.9171   -3.8055  -19.3603 H         1 L55         0.0441
     58 H22       -14.3750   -3.4117  -20.1930 H         1 L55         0.0441
     59 H23       -15.3393   -2.1059  -19.4238 H         1 L55         0.0441
     60 H24       -10.9187   -1.4753  -17.0677 H         1 L55         0.0441
     61 H25       -10.3494   -2.8788  -16.1020 H         1 L55         0.0441
     62 H26       -11.3029   -1.5752  -15.3158 H         1 L55         0.0441
@<TRIPOS>BOND
     1    1    2 1  
     2    1   25 am 
     3    2    3 ar 
     4    2    7 ar 
     5    3    4 ar 
     6    4    5 ar 
     7    4    8 1  
     8    5    6 ar 
     9    6    7 ar 
    10    8    9 1  
    11    9   10 1  
    12   10   11 ar 
    13   10   15 ar 
    14   11   12 ar 
    15   12   13 ar 
    16   13   14 ar 
    17   14   15 ar 
    18   14   16 1  
    19   16   17 am 
    20   17   18 2  
    21   17   19 1  
    22   19   20 1  
    23   19   23 2  
    24   20   21 2  
    25   21   22 1  
    26   22   23 1  
    27   22   24 1  
    28   25   26 2  
    29   25   27 1  
    30   27   28 1  
    31   28   29 1  
    32   29   30 ar 
    33   29   34 ar 
    34   30   31 ar 
    35   31   32 ar 
    36   31   36 1  
    37   32   33 ar 
    38   33   34 ar 
    39   33   35 1  
    40    1   37 1  
    41    3   38 1  
    42    5   39 1  
    43    6   40 1  
    44    7   41 1  
    45    8   42 1  
    46    8   43 1  
    47   11   44 1  
    48   12   45 1  
    49   13   46 1  
    50   15   47 1  
    51   16   48 1  
    52   20   49 1  
    53   23   50 1  
    54   24   51 1  
    55   24   52 1  
    56   24   53 1  
    57   27   54 1  
    58   27   55 1  
    59   32   56 1  
    60   35   57 1  
    61   35   58 1  
    62   35   59 1  
    63   36   60 1  
    64   36   61 1  
    65   36   62 1  
@<TRIPOS>SUBSTRUCTURE
     1 L55         1

