### 
### Created by X-TOOL on Wed Jan  1 15:39:35 2020
### 

@<TRIPOS>MOLECULE
5yqo_ligand
   62    65     1     0     0
SMALL
GAST_HUCK


@<TRIPOS>ATOM
      1 C11       -14.1330  -13.1250  -19.8960 C.ar      1 L5C        -0.0456
      2 C13       -12.2160  -14.4080  -19.2360 C.ar      1 L5C         0.0547
      3 C14       -11.7520  -13.3550  -18.4700 C.ar      1 L5C        -0.0491
      4 C15       -12.4880  -12.1850  -18.4090 C.ar      1 L5C        -0.0456
      5 C17       -11.6910  -16.7520  -18.4460 C.2       1 L5C         0.2092
      6 C19       -10.8510  -17.9890  -18.7320 C.2       1 L5C         0.0704
      7 C20       -10.1970  -18.2250  -19.9300 C.2       1 L5C         0.0143
      8 N01       -16.3380   -6.2960  -17.6130 N.am      1 L5C        -0.2346
      9 C02       -16.2740   -7.1780  -18.7670 C.ar      1 L5C         0.0594
     10 C03       -15.9910   -8.5290  -18.6650 C.ar      1 L5C        -0.0381
     11 C04       -15.9230   -9.2900  -19.8220 C.ar      1 L5C        -0.0272
     12 C05       -16.1200   -8.7160  -21.0600 C.ar      1 L5C        -0.0731
     13 C06       -16.3910   -7.3620  -21.1590 C.ar      1 L5C        -0.0818
     14 C07       -16.4600   -6.5970  -20.0080 C.ar      1 L5C        -0.0481
     15 C08       -15.6250  -10.7800  -19.7300 C.3       1 L5C         0.0977
     16 O09       -14.3940  -10.8600  -19.0340 O.3       1 L5C        -0.3154
     17 C10       -13.6820  -12.0690  -19.1230 C.ar      1 L5C         0.0787
     18 C12       -13.3930  -14.2970  -19.9580 C.ar      1 L5C        -0.0491
     19 N16       -11.4750  -15.6470  -19.3480 N.am      1 L5C        -0.2439
     20 O18       -12.4730  -16.7080  -17.5550 O.2       1 L5C        -0.3891
     21 N21        -9.5810  -19.3850  -19.8270 N.2       1 L5C        -0.2122
     22 N22        -9.8250  -19.9050  -18.5930 N.pl3     1 L5C        -0.2025
     23 C23       -10.6000  -19.0710  -17.9150 C.2       1 L5C         0.0754
     24 C24        -9.3080  -21.1760  -18.1120 C.3       1 L5C         0.0625
     25 C25       -16.6620   -6.7090  -16.2620 C.2       1 L5C         0.2164
     26 O26       -16.9250   -7.8270  -15.9860 O.2       1 L5C        -0.3837
     27 C27       -16.6590   -5.6090  -15.1980 C.3       1 L5C         0.1085
     28 S28       -14.9440   -5.2220  -14.6820 S.3       1 L5C        -0.0372
     29 C29       -14.0890   -4.1720  -15.9050 C.ar      1 L5C         0.1492
     30 N30       -12.9410   -3.6010  -15.5840 N.ar      1 L5C        -0.2660
     31 C31       -12.3020   -2.8290  -16.4490 C.ar      1 L5C         0.0267
     32 C32       -12.8620   -2.6340  -17.7100 C.ar      1 L5C        -0.0162
     33 C33       -14.0650   -3.2390  -18.0090 C.ar      1 L5C         0.0267
     34 N34       -14.6400   -3.9960  -17.0890 N.ar      1 L5C        -0.2660
     35 C35       -14.7040   -3.0490  -19.3850 C.3       1 L5C        -0.0129
     36 C36       -10.9780   -2.1730  -16.0900 C.3       1 L5C        -0.0129
     37 H1        -15.0603  -13.0367  -20.4505 H         1 L5C         0.0507
     38 H2        -10.8207  -13.4450  -17.9225 H         1 L5C         0.0478
     39 H3        -12.1366  -11.3562  -17.8052 H         1 L5C         0.0507
     40 H4        -10.1928  -17.5699  -20.8000 H         1 L5C         0.0690
     41 H5        -16.1429   -5.3268  -17.7634 H         1 L5C         0.2255
     42 H6        -15.8251   -8.9850  -17.6957 H         1 L5C         0.0438
     43 H7        -16.0627   -9.3245  -21.9553 H         1 L5C         0.0431
     44 H8        -16.5477   -6.9052  -22.1295 H         1 L5C         0.0561
     45 H9        -16.6614   -5.5343  -20.0797 H         1 L5C         0.0447
     46 H10       -15.5317  -11.2193  -20.7341 H         1 L5C         0.0770
     47 H11       -16.4189  -11.3005  -19.1743 H         1 L5C         0.0770
     48 H12       -13.7351  -15.1238  -20.5699 H         1 L5C         0.0478
     49 H13       -10.7925  -15.7396  -20.0730 H         1 L5C         0.2208
     50 H14       -10.9700  -19.2137  -16.9008 H         1 L5C         0.1091
     51 H15        -9.6598  -21.3496  -17.0844 H         1 L5C         0.0609
     52 H16        -8.2083  -21.1527  -18.1240 H         1 L5C         0.0609
     53 H17        -9.6648  -21.9872  -18.7636 H         1 L5C         0.0609
     54 H18       -17.2323   -5.9497  -14.3232 H         1 L5C         0.0655
     55 H19       -17.1257   -4.7031  -15.6122 H         1 L5C         0.0655
     56 H20       -12.3596   -2.0159  -18.4452 H         1 L5C         0.0590
     57 H21       -15.6516   -3.6059  -19.4292 H         1 L5C         0.0441
     58 H22       -14.0213   -3.4247  -20.1614 H         1 L5C         0.0441
     59 H23       -14.8989   -1.9797  -19.5543 H         1 L5C         0.0441
     60 H24       -10.6200   -1.5786  -16.9436 H         1 L5C         0.0441
     61 H25       -10.2377   -2.9497  -15.8478 H         1 L5C         0.0441
     62 H26       -11.1185   -1.5160  -15.2190 H         1 L5C         0.0441
@<TRIPOS>BOND
     1   17    1 ar 
     2    1   18 ar 
     3    3    2 ar 
     4   18    2 ar 
     5    2   19 1  
     6    4    3 ar 
     7   17    4 ar 
     8    5    6 1  
     9   19    5 am 
    10    5   20 2  
    11    6    7 1  
    12    6   23 2  
    13    7   21 2  
    14    9    8 1  
    15    8   25 am 
    16   10    9 ar 
    17    9   14 ar 
    18   11   10 ar 
    19   11   12 ar 
    20   15   11 1  
    21   12   13 ar 
    22   13   14 ar 
    23   16   15 1  
    24   16   17 1  
    25   21   22 1  
    26   22   23 1  
    27   22   24 1  
    28   25   26 2  
    29   25   27 1  
    30   27   28 1  
    31   28   29 1  
    32   29   30 ar 
    33   29   34 ar 
    34   30   31 ar 
    35   31   32 ar 
    36   31   36 1  
    37   32   33 ar 
    38   33   34 ar 
    39   33   35 1  
    40    1   37 1  
    41    3   38 1  
    42    4   39 1  
    43    7   40 1  
    44    8   41 1  
    45   10   42 1  
    46   12   43 1  
    47   13   44 1  
    48   14   45 1  
    49   15   46 1  
    50   15   47 1  
    51   18   48 1  
    52   19   49 1  
    53   23   50 1  
    54   24   51 1  
    55   24   52 1  
    56   24   53 1  
    57   27   54 1  
    58   27   55 1  
    59   32   56 1  
    60   35   57 1  
    61   35   58 1  
    62   35   59 1  
    63   36   60 1  
    64   36   61 1  
    65   36   62 1  
@<TRIPOS>SUBSTRUCTURE
     1 L5C         1

