### 
### Created by X-TOOL on Wed Jan  1 15:39:37 2020
### 

@<TRIPOS>MOLECULE
5yqw_ligand
   57    58     1     0     0
SMALL
GAST_HUCK


@<TRIPOS>ATOM
      1 C1A       -16.5830    2.0940   21.9050 C.3       1 CBS         0.1854
      2 C2A       -15.1740    2.6820   22.1500 C.3       1 CBS         0.1210
      3 C3A       -14.4860    2.9440   20.7650 C.3       1 CBS         0.1111
      4 C4A       -14.5500    1.7130   19.8850 C.3       1 CBS         0.1116
      5 C5A       -16.0140    1.2820   19.7550 C.3       1 CBS         0.1130
      6 C6A       -16.1790   -0.0380   18.9750 C.3       1 CBS         0.0730
      7 C7A       -14.9660    4.1270   24.2200 C.2       1 CBS         0.1733
      8 C8A       -15.2270    5.5450   24.7780 C.3       1 CBS         0.0257
      9 N2A       -15.2680    3.9480   22.9090 N.am      1 CBS        -0.2766
     10 O1A       -17.1630    1.7700   23.1790 O.3       1 CBS        -0.3404
     11 O3A       -13.0870    3.2760   21.0210 O.3       1 CBS        -0.3867
     12 O4A       -14.1580    2.1930   18.5650 O.3       1 CBS        -0.3865
     13 O5A       -16.4770    0.9120   21.1150 O.3       1 CBS        -0.3408
     14 O6A       -15.2840   -1.1080   19.3070 O.3       1 CBS        -0.3924
     15 O7A       -14.5480    3.1830   24.8930 O.2       1 CBS        -0.3974
     16 C1B       -20.7900    0.8420   24.8930 C.3       1 CBS         0.1823
     17 C2B       -20.5130    0.0870   23.5700 C.3       1 CBS         0.1208
     18 C3B       -18.9420    0.1370   23.3520 C.3       1 CBS         0.1114
     19 C4B       -18.6340    1.6390   23.2080 C.3       1 CBS         0.1181
     20 C5B       -19.0690    2.3520   24.4690 C.3       1 CBS         0.1133
     21 C6B       -18.7820    3.8400   24.3940 C.3       1 CBS         0.0730
     22 C7B       -22.2050   -1.7900   23.2720 C.2       1 CBS         0.1733
     23 C8B       -22.5750   -3.2580   23.3080 C.3       1 CBS         0.0257
     24 N2B       -20.9080   -1.3690   23.6730 N.am      1 CBS        -0.2766
     25 O1B       -22.1520    0.7910   25.1940 O.3       1 CBS        -0.3651
     26 O3B       -18.6350   -0.5520   22.1070 O.3       1 CBS        -0.3867
     27 O5B       -20.5360    2.2310   24.5160 O.3       1 CBS        -0.3409
     28 O6B       -19.2990    4.4190   23.1680 O.3       1 CBS        -0.3924
     29 O7B       -23.0180   -0.9480   22.8650 O.2       1 CBS        -0.3974
     30 H1        -17.2112    2.8316   21.3842 H         1 CBS         0.0935
     31 H2        -14.5746    1.9611   22.7254 H         1 CBS         0.0633
     32 H3        -14.9853    3.7821   20.2567 H         1 CBS         0.0645
     33 H4        -13.9093    0.8988   20.2544 H         1 CBS         0.0647
     34 H5        -16.6148    2.0884   19.3092 H         1 CBS         0.0647
     35 H6        -16.0431    0.1886   17.9072 H         1 CBS         0.0584
     36 H7        -17.2042   -0.3982   19.1459 H         1 CBS         0.0584
     37 H8        -14.9491    5.5772   25.8418 H         1 CBS         0.0467
     38 H9        -16.2937    5.7909   24.6701 H         1 CBS         0.0467
     39 H10       -14.6238    6.2757   24.2192 H         1 CBS         0.0467
     40 H11       -15.5856    4.7519   22.4062 H         1 CBS         0.1857
     41 H12       -12.6477    3.4486   20.1965 H         1 CBS         0.2100
     42 H13       -14.2562    1.4914   17.9321 H         1 CBS         0.2100
     43 H14       -14.3888   -0.8301   19.1524 H         1 CBS         0.2095
     44 H15       -20.1658    0.4861   25.7259 H         1 CBS         0.0932
     45 H16       -21.0463    0.5666   22.7360 H         1 CBS         0.0633
     46 H17       -18.3938   -0.3117   24.1935 H         1 CBS         0.0645
     47 H18       -19.1092    2.0648   22.3120 H         1 CBS         0.0650
     48 H19       -18.5911    1.9060   25.3537 H         1 CBS         0.0647
     49 H20       -17.6939    3.9968   24.4325 H         1 CBS         0.0584
     50 H21       -19.2550    4.3392   25.2525 H         1 CBS         0.0584
     51 H22       -23.6122   -3.3832   22.9637 H         1 CBS         0.0467
     52 H23       -22.4824   -3.6344   24.3374 H         1 CBS         0.0467
     53 H24       -21.8992   -3.8228   22.6489 H         1 CBS         0.0467
     54 H25       -20.2539   -2.0386   24.0248 H         1 CBS         0.1857
     55 H26       -22.3398    1.3882   25.9085 H         1 CBS         0.2126
     56 H27       -17.7144   -0.4382   21.9021 H         1 CBS         0.2100
     57 H28       -19.1039    5.3486   23.1513 H         1 CBS         0.2095
@<TRIPOS>BOND
     1    1    2 1  
     2   10    1 1  
     3    1   13 1  
     4    2    3 1  
     5    2    9 1  
     6    3    4 1  
     7    3   11 1  
     8    5    4 1  
     9    4   12 1  
    10    5    6 1  
    11   13    5 1  
    12    6   14 1  
    13    7    8 1  
    14    9    7 am 
    15    7   15 2  
    16   19   10 1  
    17   17   16 1  
    18   16   25 1  
    19   16   27 1  
    20   17   18 1  
    21   24   17 1  
    22   18   19 1  
    23   18   26 1  
    24   19   20 1  
    25   20   21 1  
    26   27   20 1  
    27   21   28 1  
    28   22   23 1  
    29   22   24 am 
    30   22   29 2  
    31    1   30 1  
    32    2   31 1  
    33    3   32 1  
    34    4   33 1  
    35    5   34 1  
    36    6   35 1  
    37    6   36 1  
    38    8   37 1  
    39    8   38 1  
    40    8   39 1  
    41    9   40 1  
    42   11   41 1  
    43   12   42 1  
    44   14   43 1  
    45   16   44 1  
    46   17   45 1  
    47   18   46 1  
    48   19   47 1  
    49   20   48 1  
    50   21   49 1  
    51   21   50 1  
    52   23   51 1  
    53   23   52 1  
    54   23   53 1  
    55   24   54 1  
    56   25   55 1  
    57   26   56 1  
    58   28   57 1  
@<TRIPOS>SUBSTRUCTURE
     1 CBS         1

