### 
### Created by X-TOOL on Mon Aug  2 16:12:21 2021
### 

@<TRIPOS>MOLECULE
5yqx_ligand
   38    41     1     0     0
SMALL
GAST_HUCK


@<TRIPOS>ATOM
      1 CAU       -13.3010   -0.5660    5.3750 C.2       1 E0K        -0.0803
      2 CAV       -12.0690   -0.2580    5.9430 C.2       1 E0K        -0.0803
      3 CAT       -13.1590   -0.8020    6.7740 C.3       1 E0K         0.0000
      4 CAR       -13.6820    0.2400    7.8190 C.3       1 E0K         0.0050
      5 CAP       -15.1340   -0.1120    8.0770 C.3       1 E0K         0.1720
      6 CAO       -15.6440    0.6490    9.1670 C.2       1 E0K         0.2336
      7 OAS       -16.1660    1.7620    9.0300 O.2       1 E0K        -0.3834
      8 NAN       -15.3920    0.2190   10.4700 N.am      1 E0K        -0.2367
      9 OAQ       -15.2250   -1.5390    8.3470 O.3       1 E0K        -0.3014
     10 CAL       -14.7350   -1.9760    9.5700 C.ar      1 E0K         0.1108
     11 CAM       -14.1340   -3.2210    9.6730 C.ar      1 E0K        -0.0479
     12 CAK       -14.7680   -1.0860   10.6490 C.ar      1 E0K         0.0921
     13 CAJ       -14.2650   -1.4940   11.8790 C.ar      1 E0K        -0.0541
     14 CAI       -13.7070   -2.7710   11.9990 C.ar      1 E0K        -0.0880
     15 CAH       -13.6850   -3.6730   10.9410 C.ar      1 E0K        -0.0623
     16 CAA       -13.1170   -4.9340   11.0400 C.2       1 E0K         0.0082
     17 CAB       -13.6150   -6.1210   10.5450 C.2       1 E0K         0.1410
     18 CAF       -14.9210   -6.4170    9.8310 C.3       1 E0K         0.0108
     19 OAC       -12.7940   -7.1250   10.8040 O.3       1 E0K        -0.1770
     20 NAD       -11.7140   -6.5570   11.5330 N.2       1 E0K        -0.1692
     21 CAE       -11.9540   -5.2440   11.6710 C.2       1 E0K         0.0203
     22 CAG       -10.9340   -4.3630   12.3320 C.3       1 E0K        -0.0275
     23 H1        -13.9305   -0.6017    4.4871 H         1 E0K         0.0575
     24 H2        -11.0496    0.1124    5.8456 H         1 E0K         0.0575
     25 H3        -13.1680   -1.8249    7.1784 H         1 E0K         0.0388
     26 H4        -13.6031    1.2594    7.4134 H         1 E0K         0.0328
     27 H5        -13.1014    0.1701    8.7507 H         1 E0K         0.0328
     28 H6        -15.7257    0.1205    7.1793 H         1 E0K         0.0894
     29 H7        -15.6319    0.7882   11.2564 H         1 E0K         0.2214
     30 H8        -14.0083   -3.8428    8.7940 H         1 E0K         0.0438
     31 H9        -14.3047   -0.8303   12.7351 H         1 E0K         0.0458
     32 H10       -13.2772   -3.0675   12.9489 H         1 E0K         0.0434
     33 H11       -14.9696   -7.4880    9.5846 H         1 E0K         0.0460
     34 H12       -14.9753   -5.8250    8.9055 H         1 E0K         0.0460
     35 H13       -15.7648   -6.1527   10.4854 H         1 E0K         0.0460
     36 H14       -10.1203   -4.9833   12.7358 H         1 E0K         0.0377
     37 H15       -11.4089   -3.8027   13.1509 H         1 E0K         0.0377
     38 H16       -10.5253   -3.6574   11.5937 H         1 E0K         0.0377
@<TRIPOS>BOND
     1    1    2 2  
     2    1    3 1  
     3    2    3 1  
     4    3    4 1  
     5    4    5 1  
     6    5    6 1  
     7    5    9 1  
     8    6    7 2  
     9    6    8 am 
    10    8   12 1  
    11    9   10 1  
    12   10   11 ar 
    13   10   12 ar 
    14   11   15 ar 
    15   12   13 ar 
    16   13   14 ar 
    17   14   15 ar 
    18   15   16 1  
    19   16   17 2  
    20   16   21 1  
    21   17   18 1  
    22   17   19 1  
    23   19   20 1  
    24   20   21 2  
    25   21   22 1  
    26    1   23 1  
    27    2   24 1  
    28    3   25 1  
    29    4   26 1  
    30    4   27 1  
    31    5   28 1  
    32    8   29 1  
    33   11   30 1  
    34   13   31 1  
    35   14   32 1  
    36   18   33 1  
    37   18   34 1  
    38   18   35 1  
    39   22   36 1  
    40   22   37 1  
    41   22   38 1  
@<TRIPOS>SUBSTRUCTURE
     1 E0K         1

