### 
### Created by X-TOOL on Mon Aug  2 16:10:00 2021
### 

@<TRIPOS>MOLECULE
5yr4_ligand
   52    53     1     0     0
SMALL
GAST_HUCK


@<TRIPOS>ATOM
      1 C1         11.2580    3.7000   20.3360 C.3       1 TN4         0.0714
      2 C2         12.6730    4.3110   20.1780 C.3       1 TN4         0.0479
      3 C3         13.6590    3.1460   19.8850 C.3       1 TN4         0.0968
      4 C4         13.3530    2.4580   18.5840 C.3       1 TN4         0.1146
      5 C5         11.9350    1.8930   18.6400 C.3       1 TN4        -0.0172
      6 C6         10.9220    2.9800   19.0230 C.3       1 TN4        -0.0211
      7 C11        10.1070    4.6980   20.5390 C.3       1 TN4        -0.0356
      8 O11        11.2880    2.6690   21.3510 O.3       1 TN4        -0.3884
      9 C21        13.4550    5.0240   21.3040 C.3       1 TN4         0.1023
     10 C22        12.7040    6.2950   21.7470 C.3       1 TN4         0.0916
     11 C23        12.3720    7.0780   22.9990 C.3       1 TN4        -0.0180
     12 C24        11.0600    6.6160   23.5790 C.2       1 TN4        -0.1067
     13 C25         9.9550    7.3210   23.8480 C.2       1 TN4        -0.0870
     14 C2A        13.4550    4.2870   22.6700 C.3       1 TN4        -0.0328
     15 O2A        13.8710    6.3920   21.0520 O.3       1 TN4        -0.3631
     16 C2B         9.7100    8.7690   23.5920 C.3       1 TN4        -0.0406
     17 C2C         8.8340    6.4980   24.3640 C.3       1 TN4        -0.0406
     18 C31        16.0050    2.6520   20.0590 C.3       1 TN4         0.0369
     19 O31        14.9790    3.6650   19.8540 O.3       1 TN4        -0.3764
     20 C41        14.6370    3.5740   16.8510 C.2       1 TN4         0.3172
     21 O41        13.4170    3.4730   17.5830 O.3       1 TN4        -0.2581
     22 N42        15.0220    4.7890   16.4040 N.am      1 TN4        -0.2763
     23 O4A        15.2380    2.5390   16.6880 O.2       1 TN4        -0.3777
     24 H1         12.6118    5.0045   19.3263 H         1 TN4         0.0384
     25 H2         13.5812    2.4070   20.6960 H         1 TN4         0.0630
     26 H3         14.0776    1.6559   18.3802 H         1 TN4         0.0674
     27 H4         11.8983    1.0880   19.3887 H         1 TN4         0.0295
     28 H5         11.6705    1.4875   17.6523 H         1 TN4         0.0295
     29 H6         10.8913    3.7263   18.2155 H         1 TN4         0.0294
     30 H7          9.9323    2.5114   19.1271 H         1 TN4         0.0294
     31 H8         10.2709    5.2625   21.4688 H         1 TN4         0.0257
     32 H9          9.1549    4.1512   20.6050 H         1 TN4         0.0257
     33 H10        10.0715    5.3947   19.6885 H         1 TN4         0.0257
     34 H11        10.4387    2.2457   21.3960 H         1 TN4         0.2102
     35 H12        11.7873    6.4383   21.1562 H         1 TN4         0.0640
     36 H13        12.3007    8.1469   22.7491 H         1 TN4         0.0365
     37 H14        13.1691    6.9275   23.7420 H         1 TN4         0.0365
     38 H15        11.0030    5.5540   23.8132 H         1 TN4         0.0243
     39 H16        13.9652    3.3183   22.5639 H         1 TN4         0.0258
     40 H17        12.4180    4.1213   22.9972 H         1 TN4         0.0258
     41 H18        13.9818    4.8990   23.4169 H         1 TN4         0.0258
     42 H19         8.6980    9.0352   23.9311 H         1 TN4         0.0375
     43 H20         9.8007    8.9714   22.5146 H         1 TN4         0.0375
     44 H21        10.4504    9.3689   24.1414 H         1 TN4         0.0375
     45 H22         9.1730    5.4603   24.4994 H         1 TN4         0.0375
     46 H23         8.0013    6.5209   23.6456 H         1 TN4         0.0375
     47 H24         8.4964    6.9024   25.3297 H         1 TN4         0.0375
     48 H25        16.9982    3.1235   20.0226 H         1 TN4         0.0524
     49 H26        15.9315    1.8904   19.2687 H         1 TN4         0.0524
     50 H27        15.8604    2.1770   21.0406 H         1 TN4         0.0524
     51 H28        15.8734    4.8854   15.8884 H         1 TN4         0.1831
     52 H29        14.4556    5.5922   16.5886 H         1 TN4         0.1831
@<TRIPOS>BOND
     1    1    2 1  
     2    1    6 1  
     3    1    7 1  
     4    1    8 1  
     5    2    3 1  
     6    2    9 1  
     7    3    4 1  
     8    3   19 1  
     9    4    5 1  
    10    4   21 1  
    11    5    6 1  
    12    9   10 1  
    13    9   14 1  
    14    9   15 1  
    15   10   11 1  
    16   10   15 1  
    17   11   12 1  
    18   12   13 2  
    19   13   16 1  
    20   13   17 1  
    21   19   18 1  
    22   21   20 1  
    23   20   22 am 
    24   20   23 2  
    25    2   24 1  
    26    3   25 1  
    27    4   26 1  
    28    5   27 1  
    29    5   28 1  
    30    6   29 1  
    31    6   30 1  
    32    7   31 1  
    33    7   32 1  
    34    7   33 1  
    35    8   34 1  
    36   10   35 1  
    37   11   36 1  
    38   11   37 1  
    39   12   38 1  
    40   14   39 1  
    41   14   40 1  
    42   14   41 1  
    43   16   42 1  
    44   16   43 1  
    45   16   44 1  
    46   17   45 1  
    47   17   46 1  
    48   17   47 1  
    49   18   48 1  
    50   18   49 1  
    51   18   50 1  
    52   22   51 1  
    53   22   52 1  
@<TRIPOS>SUBSTRUCTURE
     1 TN4         1

