### 
### Created by X-TOOL on Mon Aug  2 16:10:00 2021
### 

@<TRIPOS>MOLECULE
5yr5_ligand
   47    48     1     0     0
SMALL
GAST_HUCK


@<TRIPOS>ATOM
      1 C5          5.6720    1.8110   12.4280 C.3       1 OVA         0.0265
      2 C4          5.6840    2.3650   13.8650 C.2       1 OVA         0.1368
      3 C3          4.4210    2.8970   14.4000 C.3       1 OVA         0.1646
      4 C2          4.0460    4.0870   13.5200 C.3       1 OVA         0.1671
      5 C1          3.8800    3.5940   12.0280 C.3       1 OVA         0.1014
      6 C6          5.2090    2.9420   11.5380 C.3       1 OVA        -0.0052
      7 O11         2.7650    2.6850   12.0750 O.3       1 OVA        -0.3855
      8 C11         3.3930    4.6660   11.0460 C.3       1 OVA        -0.0329
      9 C21         2.8780    4.8250   14.1570 C.3       1 OVA         0.1303
     10 C22         2.7060    6.2360   13.6310 C.3       1 OVA         0.0943
     11 C23         1.3400    6.9590   13.5720 C.3       1 OVA        -0.0179
     12 C24         0.4610    6.3830   12.4490 C.2       1 OVA        -0.1067
     13 C25         0.0800    7.0110   11.3350 C.2       1 OVA        -0.0870
     14 C2A         1.6320    4.0340   14.5430 C.3       1 OVA        -0.0301
     15 O2A         3.1160    5.9610   15.0430 O.3       1 OVA        -0.3603
     16 C2B         0.4760    8.3670   10.9570 C.3       1 OVA        -0.0406
     17 C2C        -0.7270    6.2460   10.2980 C.3       1 OVA        -0.0406
     18 O31         4.5030    3.4140   15.7460 O.3       1 OVA        -0.3574
     19 C31         4.4940    2.2550   16.5940 C.3       1 OVA         0.0400
     20 O41         6.7100    2.3830   14.4750 O.2       1 OVA        -0.3887
     21 O1          5.1980    4.9270   13.5680 O.3       1 OVA        -0.3778
     22 H1          4.9784    0.9604   12.3540 H         1 OVA         0.0496
     23 H2          6.6820    1.4869   12.1368 H         1 OVA         0.0496
     24 H3          3.6500    2.1137   14.3563 H         1 OVA         0.0863
     25 H4          5.0535    2.5486   10.5226 H         1 OVA         0.0319
     26 H5          5.9918    3.7145   11.5161 H         1 OVA         0.0319
     27 H6          2.6040    2.3379   11.2055 H         1 OVA         0.2103
     28 H7          2.4562    5.1061   11.4186 H         1 OVA         0.0258
     29 H8          3.2169    4.2084   10.0613 H         1 OVA         0.0258
     30 H9          4.1563    5.4526   10.9536 H         1 OVA         0.0258
     31 H10         3.3906    6.6187   12.8597 H         1 OVA         0.0641
     32 H11         1.5073    8.0299   13.3846 H         1 OVA         0.0365
     33 H12         0.8234    6.8315   14.5347 H         1 OVA         0.0365
     34 H13         0.1143    5.3585   12.5759 H         1 OVA         0.0243
     35 H14         1.9273    3.0373   14.9028 H         1 OVA         0.0259
     36 H15         0.9783    3.9279   13.6647 H         1 OVA         0.0259
     37 H16         1.0920    4.5663   15.3399 H         1 OVA         0.0259
     38 H17         0.0161    8.6278    9.9924 H         1 OVA         0.0375
     39 H18         1.5711    8.4174   10.8666 H         1 OVA         0.0375
     40 H19         0.1387    9.0758   11.7276 H         1 OVA         0.0375
     41 H20        -0.9682    5.2454   10.6862 H         1 OVA         0.0375
     42 H21        -0.1382    6.1486    9.3740 H         1 OVA         0.0375
     43 H22        -1.6585    6.7904   10.0836 H         1 OVA         0.0375
     44 H23         4.5545    2.5701   17.6462 H         1 OVA         0.0526
     45 H24         5.3568    1.6170   16.3522 H         1 OVA         0.0526
     46 H25         3.5638    1.6902   16.4333 H         1 OVA         0.0526
     47 H26         5.3237    5.2398   14.4562 H         1 OVA         0.2107
@<TRIPOS>BOND
     1    1    2 1  
     2    1    6 1  
     3    2    3 1  
     4    2   20 2  
     5    3    4 1  
     6    3   18 1  
     7    4    5 1  
     8    4    9 1  
     9    4   21 1  
    10    5    6 1  
    11    5    7 1  
    12    5    8 1  
    13    9   10 1  
    14    9   14 1  
    15    9   15 1  
    16   10   11 1  
    17   10   15 1  
    18   11   12 1  
    19   12   13 2  
    20   13   16 1  
    21   13   17 1  
    22   18   19 1  
    23    1   22 1  
    24    1   23 1  
    25    3   24 1  
    26    6   25 1  
    27    6   26 1  
    28    7   27 1  
    29    8   28 1  
    30    8   29 1  
    31    8   30 1  
    32   10   31 1  
    33   11   32 1  
    34   11   33 1  
    35   12   34 1  
    36   14   35 1  
    37   14   36 1  
    38   14   37 1  
    39   16   38 1  
    40   16   39 1  
    41   16   40 1  
    42   17   41 1  
    43   17   42 1  
    44   17   43 1  
    45   19   44 1  
    46   19   45 1  
    47   19   46 1  
    48   21   47 1  
@<TRIPOS>SUBSTRUCTURE
     1 OVA         1

