### 
### Created by X-TOOL on Mon Aug  2 16:10:00 2021
### 

@<TRIPOS>MOLECULE
5yr6_ligand
   52    53     1     0     0
SMALL
GAST_HUCK


@<TRIPOS>ATOM
      1 C1         20.2060   -3.6740   12.1690 C.3       1 TN4         0.0714
      2 C2         20.0080   -4.2540   13.6110 C.3       1 TN4         0.0479
      3 C3         19.6560   -3.1090   14.5900 C.3       1 TN4         0.0968
      4 C4         18.3700   -2.4330   14.1930 C.3       1 TN4         0.1146
      5 C5         18.3550   -1.9580   12.7290 C.3       1 TN4        -0.0172
      6 C6         18.8760   -3.0280   11.7610 C.3       1 TN4        -0.0211
      7 C11        20.4720   -4.7410   11.1540 C.3       1 TN4        -0.0356
      8 O11        21.3010   -2.7040   12.1720 O.3       1 TN4        -0.3884
      9 C21        21.1250   -4.9440   14.4270 C.3       1 TN4         0.1023
     10 C22        21.4440   -6.2500   13.6910 C.3       1 TN4         0.0916
     11 C23        22.6320   -7.1680   13.4070 C.3       1 TN4        -0.0180
     12 C24        23.4590   -6.5920   12.2490 C.2       1 TN4        -0.1067
     13 C25        23.8030   -7.2280   11.1230 C.2       1 TN4        -0.0870
     14 C2A        22.5260   -4.2710   14.4620 C.3       1 TN4        -0.0328
     15 O2A        20.9150   -6.2400   14.9560 O.3       1 TN4        -0.3631
     16 C2B        24.5630   -6.4580   10.1030 C.3       1 TN4        -0.0406
     17 C2C        23.4340   -8.6220   10.7880 C.3       1 TN4        -0.0406
     18 C31        19.7120   -2.5670   16.9180 C.3       1 TN4         0.0369
     19 O31        19.5890   -3.6300   15.9490 O.3       1 TN4        -0.3764
     20 C41        16.6460   -3.5340   15.5980 C.2       1 TN4         0.3172
     21 O41        17.3480   -3.4110   14.3630 O.3       1 TN4        -0.2581
     22 N42        16.1530   -4.7620   15.8730 N.am      1 TN4        -0.2763
     23 O4A        16.5230   -2.5150   16.2640 O.2       1 TN4        -0.3777
     24 H1         19.1715   -4.9639   13.5313 H         1 TN4         0.0384
     25 H2         20.4598   -2.3592   14.5483 H         1 TN4         0.0630
     26 H3         18.1905   -1.5699   14.8509 H         1 TN4         0.0674
     27 H4         18.9893   -1.0636   12.6414 H         1 TN4         0.0295
     28 H5         17.3217   -1.7033   12.4509 H         1 TN4         0.0295
     29 H6         18.1181   -3.8220   11.6890 H         1 TN4         0.0294
     30 H7         19.0116   -2.5599   10.7748 H         1 TN4         0.0294
     31 H8         21.4197   -5.2459   11.3926 H         1 TN4         0.0257
     32 H9         20.5399   -4.2873   10.1542 H         1 TN4         0.0257
     33 H10        19.6521   -5.4741   11.1691 H         1 TN4         0.0257
     34 H11        21.4008   -2.3381   11.3011 H         1 TN4         0.2102
     35 H12        20.7740   -6.4228   12.8359 H         1 TN4         0.0640
     36 H13        22.2652   -8.1683   13.1334 H         1 TN4         0.0365
     37 H14        23.2616   -7.2415   14.3060 H         1 TN4         0.0365
     38 H15        23.7997   -5.5631   12.3544 H         1 TN4         0.0243
     39 H16        22.4535   -3.2997   14.9732 H         1 TN4         0.0258
     40 H17        22.8852   -4.1182   13.4336 H         1 TN4         0.0258
     41 H18        23.2306   -4.9189   15.0041 H         1 TN4         0.0258
     42 H19        24.7746   -7.1042    9.2383 H         1 TN4         0.0375
     43 H20        25.5100   -6.1071   10.5389 H         1 TN4         0.0375
     44 H21        23.9667   -5.5931    9.7771 H         1 TN4         0.0375
     45 H22        22.8795   -9.0664   11.6277 H         1 TN4         0.0375
     46 H23        24.3459   -9.2076   10.6000 H         1 TN4         0.0375
     47 H24        22.8023   -8.6278    9.8875 H         1 TN4         0.0375
     48 H25        19.6582   -2.9880   17.9328 H         1 TN4         0.0524
     49 H26        18.8939   -1.8454   16.7765 H         1 TN4         0.0524
     50 H27        20.6776   -2.0577   16.7831 H         1 TN4         0.0524
     51 H28        15.6496   -4.9200   16.7225 H         1 TN4         0.1831
     52 H29        16.2917   -5.5126   15.2270 H         1 TN4         0.1831
@<TRIPOS>BOND
     1    1    2 1  
     2    1    6 1  
     3    1    7 1  
     4    1    8 1  
     5    2    3 1  
     6    2    9 1  
     7    3    4 1  
     8    3   19 1  
     9    4    5 1  
    10    4   21 1  
    11    5    6 1  
    12    9   10 1  
    13    9   14 1  
    14    9   15 1  
    15   10   11 1  
    16   10   15 1  
    17   11   12 1  
    18   12   13 2  
    19   13   16 1  
    20   13   17 1  
    21   19   18 1  
    22   21   20 1  
    23   20   22 am 
    24   20   23 2  
    25    2   24 1  
    26    3   25 1  
    27    4   26 1  
    28    5   27 1  
    29    5   28 1  
    30    6   29 1  
    31    6   30 1  
    32    7   31 1  
    33    7   32 1  
    34    7   33 1  
    35    8   34 1  
    36   10   35 1  
    37   11   36 1  
    38   11   37 1  
    39   12   38 1  
    40   14   39 1  
    41   14   40 1  
    42   14   41 1  
    43   16   42 1  
    44   16   43 1  
    45   16   44 1  
    46   17   45 1  
    47   17   46 1  
    48   17   47 1  
    49   18   48 1  
    50   18   49 1  
    51   18   50 1  
    52   22   51 1  
    53   22   52 1  
@<TRIPOS>SUBSTRUCTURE
     1 TN4         1

