### 
### Created by X-TOOL on Mon Aug  2 16:12:21 2021
### 

@<TRIPOS>MOLECULE
5yso_ligand
   73    76     1     0     0
SMALL
GAST_HUCK


@<TRIPOS>ATOM
      1 C10        73.5490   -1.9610  152.2860 C.ar      1 MOL         0.0340
      2 C13        72.2750   -0.8350  149.9430 C.ar      1 MOL        -0.0410
      3 C15        73.4860   -2.6740  151.1710 C.ar      1 MOL        -0.0503
      4 C17        72.4340    1.1420  148.3240 C.ar      1 MOL        -0.0393
      5 C20        73.9280    3.5020  147.6850 C.ar      1 MOL         0.0807
      6 C22        74.6680    2.1930  147.9970 C.ar      1 MOL        -0.0395
      7 C24        71.0700   -1.0310  147.5340 C.3       1 MOL         0.0114
      8 C26        69.2220    0.4390  146.6570 C.3       1 MOL        -0.0274
      9 C01        76.8460   -3.8100  157.4830 C.3       1 MOL        -0.0218
     10 C02        75.5980   -4.3530  156.8600 C.3       1 MOL        -0.0265
     11 C03        75.8480   -5.8690  156.5590 C.3       1 MOL        -0.0218
     12 C05        75.7220   -4.1170  154.6070 C.3       1 MOL        -0.0117
     13 C06        74.6580   -3.9040  153.5240 C.3       1 MOL         0.0657
     14 C08        74.4310   -1.6720  154.6680 C.3       1 MOL         0.0657
     15 C09        75.1330   -2.3860  155.8690 C.3       1 MOL        -0.0117
     16 C11        72.9460   -0.5380  152.3220 C.ar      1 MOL        -0.0503
     17 C12        72.3740   -0.0190  151.2320 C.ar      1 MOL        -0.0695
     18 C14        72.7930   -2.0900  149.9030 C.ar      1 MOL        -0.0695
     19 C16        71.5900   -0.1400  148.7200 C.3       1 MOL         0.0271
     20 C18        71.8080    2.2850  148.0600 C.ar      1 MOL        -0.0666
     21 C19        72.5970    3.5550  147.7170 C.ar      1 MOL        -0.0395
     22 C23        73.9700    1.0890  148.2980 C.ar      1 MOL        -0.0666
     23 C25        70.5360   -0.2440  146.3100 C.3       1 MOL        -0.0349
     24 C27        68.3790    0.4080  145.3900 C.3       1 MOL         0.0444
     25 C29        70.1500   -2.1770  148.0130 C.ar      1 MOL        -0.0363
     26 C30        70.3040   -3.3850  147.4990 C.ar      1 MOL        -0.0598
     27 C31        69.4040   -4.5310  147.9850 C.ar      1 MOL        -0.0685
     28 C32        68.4810   -4.3060  148.9140 C.ar      1 MOL        -0.0687
     29 C33        68.3000   -2.8990  149.4790 C.ar      1 MOL        -0.0685
     30 C34        69.0900   -1.9100  149.0860 C.ar      1 MOL        -0.0598
     31 N04        75.1990   -3.6910  155.7570 N.4       1 MOL         0.2398
     32 N07        74.2080   -2.5170  153.5050 N.pl3     1 MOL        -0.3022
     33 O21        74.6370    4.6750  147.3630 O.3       1 MOL        -0.3375
     34 O28        68.9960    1.2150  144.4410 O.3       1 MOL        -0.3950
     35 H1         73.9182   -3.6676  151.1406 H         1 MOL         0.0499
     36 H2         75.7513    2.1620  147.9739 H         1 MOL         0.0526
     37 H3         71.9696   -1.5381  147.1552 H         1 MOL         0.0503
     38 H4         69.4032    1.4782  146.9689 H         1 MOL         0.0289
     39 H5         68.7127   -0.1035  147.4671 H         1 MOL         0.0289
     40 H6         77.1003   -4.4046  158.3728 H         1 MOL         0.0284
     41 H7         76.6836   -2.7624  157.7763 H         1 MOL         0.0284
     42 H8         77.6713   -3.8640  156.7578 H         1 MOL         0.0284
     43 H9         74.7869   -4.2723  157.5986 H         1 MOL         0.0846
     44 H10        74.9489   -6.3045  156.0986 H         1 MOL         0.0284
     45 H11        76.0717   -6.3972  157.4976 H         1 MOL         0.0284
     46 H12        76.6989   -5.9705  155.8693 H         1 MOL         0.0284
     47 H13        76.6266   -3.5392  154.3666 H         1 MOL         0.0834
     48 H14        75.9775   -5.1844  154.6808 H         1 MOL         0.0834
     49 H15        73.7985   -4.5590  153.7292 H         1 MOL         0.0564
     50 H16        75.0863   -4.1575  152.5430 H         1 MOL         0.0564
     51 H17        75.0588   -0.8231  154.3595 H         1 MOL         0.0564
     52 H18        73.4552   -1.2999  155.0134 H         1 MOL         0.0564
     53 H19        74.5748   -2.1468  156.7861 H         1 MOL         0.0834
     54 H20        76.1579   -1.9950  155.9510 H         1 MOL         0.0834
     55 H21        72.9875    0.0420  153.2369 H         1 MOL         0.0499
     56 H22        71.9767    0.9891  151.2618 H         1 MOL         0.0528
     57 H23        72.7250   -2.6806  148.9966 H         1 MOL         0.0528
     58 H24        70.6567    0.2665  149.1367 H         1 MOL         0.0599
     59 H25        70.7249    2.3198  148.0875 H         1 MOL         0.0533
     60 H26        72.0788    4.4829  147.5036 H         1 MOL         0.0526
     61 H27        74.4865    0.1627  148.5221 H         1 MOL         0.0533
     62 H28        70.3740   -0.9395  145.4733 H         1 MOL         0.0293
     63 H29        71.2745    0.5167  146.0168 H         1 MOL         0.0293
     64 H30        67.3697    0.7894  145.6042 H         1 MOL         0.0557
     65 H31        68.3091   -0.6233  145.0137 H         1 MOL         0.0557
     66 H32        71.0583   -3.5652  146.7416 H         1 MOL         0.0557
     67 H33        69.5221   -5.5251  147.5693 H         1 MOL         0.0599
     68 H34        67.8583   -5.1189  149.2697 H         1 MOL         0.0559
     69 H35        67.5197   -2.7077  150.2068 H         1 MOL         0.0599
     70 H36        68.9870   -0.9219  149.5197 H         1 MOL         0.0557
     71 H37        74.2306   -3.9592  155.6771 H         1 MOL         0.2037
     72 H38        75.5695    4.4940  147.3771 H         1 MOL         0.2459
     73 H39        68.4840    1.2090  143.6408 H         1 MOL         0.2094
@<TRIPOS>BOND
     1    1    3 ar 
     2    1   16 ar 
     3   32    1 1  
     4    2   17 ar 
     5   18    2 ar 
     6    2   19 1  
     7    3   18 ar 
     8   19    4 1  
     9    4   20 ar 
    10    4   22 ar 
    11    6    5 ar 
    12    5   21 ar 
    13    5   33 1  
    14   22    6 ar 
    15   19    7 1  
    16    7   23 1  
    17    7   25 1  
    18   23    8 1  
    19    8   24 1  
    20   10    9 1  
    21   10   11 1  
    22   31   10 1  
    23   13   12 1  
    24   12   31 1  
    25   32   13 1  
    26   14   15 1  
    27   14   32 1  
    28   15   31 1  
    29   16   17 ar 
    30   20   21 ar 
    31   24   34 1  
    32   25   26 ar 
    33   25   30 ar 
    34   26   27 ar 
    35   27   28 ar 
    36   28   29 ar 
    37   29   30 ar 
    38    3   35 1  
    39    6   36 1  
    40    7   37 1  
    41    8   38 1  
    42    8   39 1  
    43    9   40 1  
    44    9   41 1  
    45    9   42 1  
    46   10   43 1  
    47   11   44 1  
    48   11   45 1  
    49   11   46 1  
    50   12   47 1  
    51   12   48 1  
    52   13   49 1  
    53   13   50 1  
    54   14   51 1  
    55   14   52 1  
    56   15   53 1  
    57   15   54 1  
    58   16   55 1  
    59   17   56 1  
    60   18   57 1  
    61   19   58 1  
    62   20   59 1  
    63   21   60 1  
    64   22   61 1  
    65   23   62 1  
    66   23   63 1  
    67   24   64 1  
    68   24   65 1  
    69   26   66 1  
    70   27   67 1  
    71   28   68 1  
    72   29   69 1  
    73   30   70 1  
    74   31   71 1  
    75   33   72 1  
    76   34   73 1  
@<TRIPOS>SUBSTRUCTURE
     1 MOL         1

