### 
### Created by X-TOOL on Wed Jan  1 15:39:36 2020
### 

@<TRIPOS>MOLECULE
5yto_ligand
   43    45     1     0     0
SMALL
GAST_HUCK


@<TRIPOS>ATOM
      1 C1         68.6860   74.5300   -6.9940 C.ar      1 946         0.1099
      2 O1         68.3640   73.4130   -6.3640 O.3       1 946        -0.3385
      3 C2         67.7220   75.4680   -7.2900 C.ar      1 946         0.1088
      4 O2         66.4430   75.2400   -6.9620 O.3       1 946        -0.3414
      5 C3         68.1090   76.6300   -7.9400 C.ar      1 946        -0.0481
      6 O3         72.7690   75.2300   -7.6020 O.3       1 946        -0.3759
      7 C4         69.4440   76.8400   -8.2750 C.ar      1 946        -0.0775
      8 C5         70.4380   75.9110   -7.9670 C.ar      1 946        -0.0294
      9 C6         71.8920   76.0920   -8.3460 C.3       1 946         0.1214
     10 C7         72.1380   75.6870   -9.8200 C.3       1 946         0.0026
     11 C8         71.7740   76.4530  -12.1600 C.3       1 946         0.0006
     12 C9         72.5120   76.7940  -13.4450 C.ar      1 946         0.0021
     13 C10        72.3710   77.5370  -15.7690 C.ar      1 946        -0.0257
     14 C11        71.6090   77.9670  -16.8380 C.ar      1 946        -0.0578
     15 C12        72.2310   78.2600  -18.0400 C.ar      1 946        -0.0637
     16 C13        73.6100   78.1490  -18.1860 C.ar      1 946        -0.0634
     17 C14        74.3770   77.7300  -17.1040 C.ar      1 946        -0.0568
     18 C15        73.7480   77.4180  -15.9010 C.ar      1 946        -0.0222
     19 C16        74.4870   77.0000  -14.8060 C.ar      1 946        -0.0565
     20 C17        73.8790   76.6670  -13.6000 C.ar      1 946        -0.0516
     21 C18        70.0190   74.7610   -7.3200 C.ar      1 946        -0.0375
     22 C19        71.7680   77.2090  -14.5600 C.ar      1 946        -0.0499
     23 N1         72.3330   76.7800  -10.8390 N.4       1 946         0.2424
     24 H1         67.7303   72.9303   -6.8815 H         1 946         0.2442
     25 H2         65.9111   75.9788   -7.2336 H         1 946         0.2420
     26 H3         67.3671   77.3801   -8.1891 H         1 946         0.0492
     27 H4         73.6662   75.3809   -7.8752 H         1 946         0.2129
     28 H5         69.7192   77.7529   -8.7907 H         1 946         0.0437
     29 H6         72.1699   77.1441   -8.1853 H         1 946         0.0789
     30 H7         71.2712   75.0917  -10.1430 H         1 946         0.0861
     31 H8         73.0413   75.0596   -9.8388 H         1 946         0.0861
     32 H9         71.6210   75.3637  -12.1704 H         1 946         0.0982
     33 H10        70.7999   76.9607  -12.2183 H         1 946         0.0982
     34 H11        70.5350   78.0740  -16.7369 H         1 946         0.0603
     35 H12        71.6316   78.5822  -18.8838 H         1 946         0.0611
     36 H13        74.0816   78.3865  -19.1327 H         1 946         0.0598
     37 H14        75.4539   77.6471  -17.1961 H         1 946         0.0619
     38 H15        75.5654   76.9308  -14.8912 H         1 946         0.0620
     39 H16        74.4824   76.3051  -12.7754 H         1 946         0.0588
     40 H17        70.7573   74.0120   -7.0574 H         1 946         0.0451
     41 H18        70.6893   77.2759  -14.4761 H         1 946         0.0533
     42 H19        73.3215   76.9475  -10.9429 H         1 946         0.2030
     43 H20        71.8842   77.6166  -10.5003 H         1 946         0.2030
@<TRIPOS>BOND
     1    1    2 1  
     2    1    3 ar 
     3   21    1 ar 
     4    3    4 1  
     5    5    3 ar 
     6    7    5 ar 
     7    9    6 1  
     8    8    7 ar 
     9    9    8 1  
    10    8   21 ar 
    11   10    9 1  
    12   23   10 1  
    13   12   11 1  
    14   11   23 1  
    15   12   20 ar 
    16   22   12 ar 
    17   13   14 ar 
    18   13   18 ar 
    19   13   22 ar 
    20   14   15 ar 
    21   15   16 ar 
    22   16   17 ar 
    23   17   18 ar 
    24   18   19 ar 
    25   19   20 ar 
    26    2   24 1  
    27    4   25 1  
    28    5   26 1  
    29    6   27 1  
    30    7   28 1  
    31    9   29 1  
    32   10   30 1  
    33   10   31 1  
    34   11   32 1  
    35   11   33 1  
    36   14   34 1  
    37   15   35 1  
    38   16   36 1  
    39   17   37 1  
    40   19   38 1  
    41   20   39 1  
    42   21   40 1  
    43   22   41 1  
    44   23   42 1  
    45   23   43 1  
@<TRIPOS>SUBSTRUCTURE
     1 946         1

