### 
### Created by X-TOOL on Wed Jan  1 15:39:36 2020
### 

@<TRIPOS>MOLECULE
5ytu_ligand
   18    18     1     0     0
SMALL
GAST_HUCK


@<TRIPOS>ATOM
      1 CAE       -75.5740    3.6710   -2.4740 C.3       1 5FW         0.0709
      2 OAA       -75.0880    2.8770   -3.5730 O.3       1 5FW        -0.3844
      3 CAH       -75.8470    5.0930   -2.8690 C.ar      1 5FW        -0.0375
      4 CAK       -77.1520    5.5320   -3.0960 C.ar      1 5FW        -0.0379
      5 CAL       -74.7880    5.9850   -2.9960 C.ar      1 5FW        -0.0780
      6 CAN       -75.0250    7.3060   -3.3530 C.ar      1 5FW        -0.0481
      7 CAO       -76.3220    7.7470   -3.5600 C.ar      1 5FW         0.1088
      8 OAC       -76.5630    9.0250   -3.8990 O.3       1 5FW        -0.3414
      9 CAM       -77.4000    6.8770   -3.4340 C.ar      1 5FW         0.1099
     10 OAB       -78.6740    7.3550   -3.6720 O.3       1 5FW        -0.3385
     11 H1        -74.8190    3.6659   -1.6740 H         1 5FW         0.0699
     12 H2        -76.5068    3.2233   -2.1007 H         1 5FW         0.0699
     13 H3        -74.2779    3.2514   -3.8988 H         1 5FW         0.2123
     14 H4        -77.9782    4.8353   -3.0119 H         1 5FW         0.0451
     15 H5        -73.7736    5.6481   -2.8157 H         1 5FW         0.0437
     16 H6        -74.1944    7.9927   -3.4698 H         1 5FW         0.0492
     17 H7        -76.2357    9.5995   -3.2169 H         1 5FW         0.2420
     18 H8        -79.3024    6.6534   -3.5486 H         1 5FW         0.2442
@<TRIPOS>BOND
     1    1    2 1  
     2    1    3 1  
     3    3    4 ar 
     4    3    5 ar 
     5    4    9 ar 
     6    5    6 ar 
     7    6    7 ar 
     8    7    8 1  
     9    7    9 ar 
    10    9   10 1  
    11    1   11 1  
    12    1   12 1  
    13    2   13 1  
    14    4   14 1  
    15    5   15 1  
    16    6   16 1  
    17    8   17 1  
    18   10   18 1  
@<TRIPOS>SUBSTRUCTURE
     1 5FW         1

