### 
### Created by X-TOOL on Mon Sep 10 21:13:33 2018
### 

@<TRIPOS>MOLECULE
5yu9_ligand
   59    63     1     0     0
SMALL
GAST_HUCK


@<TRIPOS>ATOM
      1 N1          1.0820  -25.5390   51.4520 N.ar      1 1E8        -0.2657
      2 C2          0.8280  -24.6120   50.4530 C.ar      1 1E8         0.0564
      3 N3         -0.4930  -24.2990   50.1720 N.ar      1 1E8        -0.2677
      4 C4         -1.4640  -24.8710   50.8840 C.ar      1 1E8         0.1627
      5 C5         -1.1980  -25.7430   51.8450 C.ar      1 1E8         0.0857
      6 C6          0.0630  -26.0750   52.1260 C.ar      1 1E8         0.1272
      7 CAA        -6.1490  -24.6570   45.5030 C.3       1 1E8        -0.0482
      8 NAB         0.2620  -26.9860   53.0700 N.pl3     1 1E8        -0.3126
      9 OAC        -6.6020  -22.3380   46.9530 O.2       1 1E8        -0.3969
     10 CAD        -6.1270  -24.6830   47.0240 C.3       1 1E8         0.0346
     11 CAE        -5.1850  -33.0120   56.4460 C.ar      1 1E8        -0.0722
     12 CAF        -6.0160  -31.9820   56.8380 C.ar      1 1E8        -0.0696
     13 CAG        -3.8690  -32.7400   56.1290 C.ar      1 1E8        -0.0696
     14 CAI        -5.5440  -30.6800   56.8930 C.ar      1 1E8        -0.0283
     15 CAJ        -3.3950  -31.4430   56.1830 C.ar      1 1E8        -0.0283
     16 CAK        -3.9750  -28.7240   54.2500 C.ar      1 1E8        -0.0269
     17 CAL        -2.6200  -27.3460   55.6460 C.ar      1 1E8        -0.0269
     18 CAM        -3.6300  -27.9450   53.1440 C.ar      1 1E8        -0.0606
     19 CAN        -2.2790  -26.5770   54.5500 C.ar      1 1E8        -0.0606
     20 CAO        -3.8910  -21.3830   49.4880 C.3       1 1E8        -0.0297
     21 CAP        -3.2770  -22.4140   50.4130 C.3       1 1E8        -0.0178
     22 CAQ        -5.3360  -21.7270   49.2510 C.3       1 1E8         0.0341
     23 CAR        -4.7740  -24.1840   49.4470 C.3       1 1E8         0.0651
     24 NAU        -3.2790  -25.3620   51.5700 N.2       1 1E8        -0.1980
     25 OAV        -3.7680  -29.1330   56.6360 O.3       1 1E8        -0.2569
     26 CAW        -6.0670  -23.2570   47.5580 C.2       1 1E8         0.1783
     27 CAY        -4.2320  -30.4040   56.5560 C.ar      1 1E8         0.1167
     28 CAZ        -3.4690  -28.4300   55.5110 C.ar      1 1E8         0.1175
     29 CBA        -2.7550  -26.8710   53.2820 C.ar      1 1E8        -0.0171
     30 CBB        -2.4060  -26.0660   52.2740 C.2       1 1E8         0.0657
     31 CBE        -3.3500  -23.8210   49.8340 C.3       1 1E8         0.1007
     32 NBF        -2.7750  -24.7430   50.8160 N.pl3     1 1E8        -0.1803
     33 NBG        -5.4220  -23.0780   48.7110 N.am      1 1E8        -0.2703
     34 H1          1.6396  -24.1450   49.9068 H         1 1E8         0.1030
     35 H2         -6.1923  -25.6870   45.1193 H         1 1E8         0.0254
     36 H3         -5.2378  -24.1654   45.1314 H         1 1E8         0.0254
     37 H4         -7.0328  -24.1000   45.1585 H         1 1E8         0.0254
     38 H5         -0.5404  -27.3858   53.5772 H         1 1E8         0.1842
     39 H6          1.2188  -27.2933   53.2956 H         1 1E8         0.1842
     40 H7         -5.2433  -25.2403   47.3680 H         1 1E8         0.0500
     41 H8         -7.0382  -25.1750   47.3951 H         1 1E8         0.0500
     42 H9         -5.5626  -34.0264   56.3875 H         1 1E8         0.0528
     43 H10        -7.0453  -32.1929   57.1048 H         1 1E8         0.0591
     44 H11        -3.2057  -33.5461   55.8369 H         1 1E8         0.0591
     45 H12        -6.2043  -29.8773   57.2006 H         1 1E8         0.0553
     46 H13        -2.3608  -31.2371   55.9317 H         1 1E8         0.0553
     47 H14        -4.6446  -29.5671   54.1241 H         1 1E8         0.0557
     48 H15        -2.2182  -27.0975   56.6216 H         1 1E8         0.0557
     49 H16        -4.0465  -28.1781   52.1707 H         1 1E8         0.0598
     50 H17        -1.6240  -25.7239   54.6850 H         1 1E8         0.0598
     51 H18        -3.3515  -21.3815   48.5294 H         1 1E8         0.0286
     52 H19        -3.8212  -20.3870   49.9496 H         1 1E8         0.0286
     53 H20        -3.8168  -22.3967   51.3713 H         1 1E8         0.0296
     54 H21        -2.2215  -22.1547   50.5820 H         1 1E8         0.0296
     55 H22        -5.7713  -21.0154   48.5340 H         1 1E8         0.0522
     56 H23        -5.8879  -21.6742   50.2011 H         1 1E8         0.0522
     57 H24        -5.3515  -24.3960   50.3589 H         1 1E8         0.0553
     58 H25        -4.7559  -25.0791   48.8080 H         1 1E8         0.0553
     59 H26        -2.7357  -23.8590   48.9223 H         1 1E8         0.0680
@<TRIPOS>BOND
     1    2    1 ar 
     2    6    1 ar 
     3    3    2 ar 
     4    4    3 ar 
     5    4    5 ar 
     6   32    4 1  
     7    5    6 ar 
     8   30    5 1  
     9    6    8 1  
    10   10    7 1  
    11   26    9 2  
    12   26   10 1  
    13   12   11 ar 
    14   13   11 ar 
    15   14   12 ar 
    16   15   13 ar 
    17   27   14 ar 
    18   27   15 ar 
    19   18   16 ar 
    20   16   28 ar 
    21   19   17 ar 
    22   17   28 ar 
    23   29   18 ar 
    24   29   19 ar 
    25   21   20 1  
    26   20   22 1  
    27   31   21 1  
    28   33   22 1  
    29   31   23 1  
    30   23   33 1  
    31   24   30 2  
    32   32   24 1  
    33   25   27 1  
    34   28   25 1  
    35   33   26 am 
    36   30   29 1  
    37   31   32 1  
    38    2   34 1  
    39    7   35 1  
    40    7   36 1  
    41    7   37 1  
    42    8   38 1  
    43    8   39 1  
    44   10   40 1  
    45   10   41 1  
    46   11   42 1  
    47   12   43 1  
    48   13   44 1  
    49   14   45 1  
    50   15   46 1  
    51   16   47 1  
    52   17   48 1  
    53   18   49 1  
    54   19   50 1  
    55   20   51 1  
    56   20   52 1  
    57   21   53 1  
    58   21   54 1  
    59   22   55 1  
    60   22   56 1  
    61   23   57 1  
    62   23   58 1  
    63   31   59 1  
@<TRIPOS>SUBSTRUCTURE
     1 1E8         1

