### 
### Created by X-TOOL on Mon Aug  2 16:12:21 2021
### 

@<TRIPOS>MOLECULE
5yum_ligand
   22    21     1     0     0
SMALL
GAST_HUCK


@<TRIPOS>ATOM
      1 N         -13.7380   19.8480    9.1170 N.4       1 ILE         0.2329
      2 CA        -13.2950   21.0630    8.4560 C.3       1 ILE         0.0309
      3 C         -14.4120   21.6320    7.5830 C.2       1 ILE         0.0847
      4 O         -14.2050   22.5800    6.8240 O.co2     1 ILE        -0.5642
      5 CB        -12.0260   20.8180    7.6220 C.3       1 ILE         0.0110
      6 CG1       -12.2480   19.6710    6.6470 C.3       1 ILE        -0.0466
      7 CG2       -10.8290   20.5440    8.5230 C.3       1 ILE        -0.0557
      8 CD1       -11.3820   19.7690    5.4470 C.3       1 ILE        -0.0647
      9 OXT       -15.5490   21.1590    7.6100 O.co2     1 ILE        -0.5642
     10 H1        -14.5690   20.0414    9.6538 H         1 ILE         0.2010
     11 H2        -13.0112   19.5154    9.7311 H         1 ILE         0.2010
     12 H3        -13.9414   19.1440    8.4249 H         1 ILE         0.2010
     13 H4        -13.0538   21.8045    9.2319 H         1 ILE         0.1027
     14 H5        -11.8151   21.7277    7.0406 H         1 ILE         0.0371
     15 H6        -13.2996   19.6808    6.3246 H         1 ILE         0.0268
     16 H7        -12.0311   18.7235    7.1619 H         1 ILE         0.0268
     17 H8        -10.6914   21.3869    9.2163 H         1 ILE         0.0235
     18 H9         -9.9257   20.4251    7.9066 H         1 ILE         0.0235
     19 H10       -11.0054   19.6223    9.0969 H         1 ILE         0.0235
     20 H11       -11.5832   18.9183    4.7792 H         1 ILE         0.0230
     21 H12       -10.3260   19.7520    5.7545 H         1 ILE         0.0230
     22 H13       -11.5946   20.7093    4.9172 H         1 ILE         0.0230
@<TRIPOS>BOND
     1    1    2 1  
     2    2    3 1  
     3    2    5 1  
     4    3    4 ar 
     5    3    9 ar 
     6    5    6 1  
     7    5    7 1  
     8    6    8 1  
     9    1   10 1  
    10    1   11 1  
    11    1   12 1  
    12    2   13 1  
    13    5   14 1  
    14    6   15 1  
    15    6   16 1  
    16    7   17 1  
    17    7   18 1  
    18    7   19 1  
    19    8   20 1  
    20    8   21 1  
    21    8   22 1  
@<TRIPOS>SUBSTRUCTURE
     1 ILE         1

