### 
### Created by X-TOOL on Wed Jan  1 15:39:37 2020
### 

@<TRIPOS>MOLECULE
5yun_ligand
   33    35     1     0     0
SMALL
GAST_HUCK


@<TRIPOS>ATOM
      1 C1        -24.2820   -2.6870  -14.5350 C.ar      1 MYC        -0.0094
      2 C2        -24.2690   -1.3070  -14.4000 C.ar      1 MYC         0.0929
      3 C3        -24.4980   -0.4920  -15.5990 C.ar      1 MYC         0.0812
      4 C4        -24.7280   -1.1690  -16.8890 C.ar      1 MYC         0.1205
      5 C5        -24.7180   -2.5430  -16.9180 C.ar      1 MYC        -0.0055
      6 C6        -24.5030   -3.2860  -15.7800 C.ar      1 MYC         0.0766
      7 C9        -24.5020    0.9770  -15.5350 C.2       1 MYC         0.1454
      8 C10       -24.7440    1.6920  -16.8040 C.2       1 MYC         0.1598
      9 C11       -24.9520    0.9050  -18.0500 C.2       1 MYC         0.1506
     10 C14       -25.2130    1.5760  -19.3400 C.ar      1 MYC        -0.0139
     11 C15       -26.2170    1.0380  -20.1360 C.ar      1 MYC        -0.0437
     12 C16       -26.5500    1.5860  -21.3590 C.ar      1 MYC         0.1081
     13 C17       -25.8140    2.7760  -21.8040 C.ar      1 MYC         0.1445
     14 C18       -24.7520    3.3210  -20.9130 C.ar      1 MYC         0.1081
     15 C19       -24.4880    2.6930  -19.7110 C.ar      1 MYC        -0.0437
     16 O12       -24.9500   -0.4650  -18.0450 O.3       1 MYC        -0.2594
     17 O13       -24.3050    1.5560  -14.4560 O.2       1 MYC        -0.4152
     18 O23       -24.0210    4.4130  -21.2460 O.3       1 MYC        -0.3401
     19 O24       -26.1340    3.3190  -23.0110 O.3       1 MYC        -0.3411
     20 O25       -27.5280    1.0470  -22.1330 O.3       1 MYC        -0.3401
     21 O27       -24.7630    3.0390  -16.8450 O.3       1 MYC        -0.3399
     22 O29       -24.5100   -4.6350  -15.9370 O.3       1 MYC        -0.3353
     23 O30       -24.0500   -0.6860  -13.2160 O.3       1 MYC        -0.3327
     24 H1        -24.1186   -3.3106  -13.6635 H         1 MYC         0.0396
     25 H2        -24.8834   -3.0536  -17.8598 H         1 MYC         0.0393
     26 H3        -26.7540    0.1634  -19.7870 H         1 MYC         0.0415
     27 H4        -23.7119    3.0764  -19.0585 H         1 MYC         0.0415
     28 H5        -24.3077    4.7390  -22.0910 H         1 MYC         0.2437
     29 H6        -26.8349    2.8152  -23.4078 H         1 MYC         0.2409
     30 H7        -27.8951    0.2883  -21.6947 H         1 MYC         0.2437
     31 H8        -24.0788    3.3467  -17.4278 H         1 MYC         0.2421
     32 H9        -24.3535   -5.0512  -15.0975 H         1 MYC         0.2494
     33 H10       -24.8015   -0.1470  -12.9986 H         1 MYC         0.2504
@<TRIPOS>BOND
     1    1    2 ar 
     2    1    6 ar 
     3    2    3 ar 
     4    2   23 1  
     5    3    4 ar 
     6    3    7 1  
     7    4    5 ar 
     8    4   16 1  
     9    5    6 ar 
    10    6   22 1  
    11    7    8 1  
    12    7   17 2  
    13    8    9 2  
    14    8   21 1  
    15    9   10 1  
    16    9   16 1  
    17   10   11 ar 
    18   10   15 ar 
    19   11   12 ar 
    20   12   13 ar 
    21   12   20 1  
    22   13   14 ar 
    23   13   19 1  
    24   14   15 ar 
    25   14   18 1  
    26    1   24 1  
    27    5   25 1  
    28   11   26 1  
    29   15   27 1  
    30   18   28 1  
    31   19   29 1  
    32   20   30 1  
    33   21   31 1  
    34   22   32 1  
    35   23   33 1  
@<TRIPOS>SUBSTRUCTURE
     1 MYC         1

