### 
### Created by X-TOOL on Wed Jan  1 15:39:38 2020
### 

@<TRIPOS>MOLECULE
5yve_ligand
   43    44     1     0     0
SMALL
GAST_HUCK


@<TRIPOS>ATOM
      1 S1        -20.0550   -2.2980  -43.9800 S.o2      1 AF9         0.0587
      2 O2        -16.7360   -2.1660  -48.0170 O.3       1 AF9        -0.2689
      3 O3        -17.7100   -0.8700  -42.6580 O.3       1 AF9        -0.3278
      4 O4        -20.0130   -2.2190  -42.5180 O.2       1 AF9        -0.1531
      5 O5        -20.3810   -3.7120  -44.1620 O.2       1 AF9        -0.1531
      6 N6        -21.2860   -1.2990  -44.6200 N.am      1 AF9        -0.2631
      7 N7        -19.0260   -3.4990  -50.3080 N.ar      1 AF9        -0.2503
      8 N8        -19.8000   -1.2930  -49.8410 N.ar      1 AF9        -0.2851
      9 N9        -17.1510   -4.4250  -49.3860 N.pl3     1 AF9        -0.3192
     10 N10       -20.9700   -2.7340  -51.3710 N.pl3     1 AF9        -0.3119
     11 C11       -14.7020   -0.8180  -46.5540 C.3       1 AF9        -0.0166
     12 C12       -16.0390   -1.1990  -45.9210 C.ar      1 AF9        -0.0151
     13 C13       -17.0120   -1.8480  -46.6710 C.ar      1 AF9         0.1056
     14 C14       -16.2800   -0.8790  -44.5950 C.ar      1 AF9        -0.0369
     15 C15       -18.4610   -1.8620  -44.7360 C.ar      1 AF9         0.1215
     16 C16       -13.7270   -1.9870  -46.4780 C.3       1 AF9        -0.0544
     17 C17       -14.1080    0.3720  -45.8010 C.3       1 AF9        -0.0544
     18 C18       -17.4870   -1.2070  -43.9990 C.ar      1 AF9         0.0998
     19 C19       -18.2170   -2.1850  -46.0620 C.ar      1 AF9        -0.0173
     20 C20       -17.8670   -2.2130  -48.8530 C.ar      1 AF9         0.1662
     21 C21       -16.5800   -0.9580  -41.8360 C.3       1 AF9         0.0570
     22 C22       -18.0830   -3.3250  -49.5450 C.ar      1 AF9         0.1474
     23 C23       -18.7070   -1.0930  -48.9610 C.ar      1 AF9         0.0305
     24 C24       -19.8630   -2.5110  -50.4600 C.ar      1 AF9         0.1597
     25 H1        -21.2003   -0.3041  -44.5675 H         1 AF9         0.1632
     26 H2        -22.0917   -1.7096  -45.0468 H         1 AF9         0.1632
     27 H3        -16.3421   -4.3277  -48.7558 H         1 AF9         0.1781
     28 H4        -17.2981   -5.3035  -49.9033 H         1 AF9         0.1781
     29 H5        -21.0602   -3.6355  -51.8609 H         1 AF9         0.1792
     30 H6        -21.6657   -1.9908  -51.5278 H         1 AF9         0.1792
     31 H7        -14.8630   -0.5449  -47.6073 H         1 AF9         0.0434
     32 H8        -15.5176   -0.3675  -44.0186 H         1 AF9         0.0455
     33 H9        -12.7705   -1.6971  -46.9373 H         1 AF9         0.0252
     34 H10       -14.1460   -2.8496  -47.0169 H         1 AF9         0.0252
     35 H11       -13.5608   -2.2580  -45.4250 H         1 AF9         0.0252
     36 H12       -14.8048    1.2217  -45.8500 H         1 AF9         0.0252
     37 H13       -13.1503    0.6562  -46.2614 H         1 AF9         0.0252
     38 H14       -13.9415    0.0946  -44.7497 H         1 AF9         0.0252
     39 H15       -18.9760   -2.7077  -46.6327 H         1 AF9         0.0523
     40 H16       -16.8516   -0.6762  -40.8080 H         1 AF9         0.0573
     41 H17       -15.8011   -0.2768  -42.2092 H         1 AF9         0.0573
     42 H18       -16.1995   -1.9901  -41.8449 H         1 AF9         0.0573
     43 H19       -18.5364   -0.1668  -48.4243 H         1 AF9         0.0757
@<TRIPOS>BOND
     1    1    4 2  
     2    1    5 2  
     3    1    6 am 
     4   15    1 1  
     5    2   13 1  
     6   20    2 1  
     7   18    3 1  
     8    3   21 1  
     9   22    7 ar 
    10    7   24 ar 
    11    8   23 ar 
    12   24    8 ar 
    13   22    9 1  
    14   24   10 1  
    15   12   11 1  
    16   11   16 1  
    17   11   17 1  
    18   13   12 ar 
    19   12   14 ar 
    20   13   19 ar 
    21   14   18 ar 
    22   15   18 ar 
    23   19   15 ar 
    24   20   22 ar 
    25   20   23 ar 
    26    6   25 1  
    27    6   26 1  
    28    9   27 1  
    29    9   28 1  
    30   10   29 1  
    31   10   30 1  
    32   11   31 1  
    33   14   32 1  
    34   16   33 1  
    35   16   34 1  
    36   16   35 1  
    37   17   36 1  
    38   17   37 1  
    39   17   38 1  
    40   19   39 1  
    41   21   40 1  
    42   21   41 1  
    43   21   42 1  
    44   23   43 1  
@<TRIPOS>SUBSTRUCTURE
     1 AF9         1

