### 
### Created by X-TOOL on Mon Aug  2 16:12:22 2021
### 

@<TRIPOS>MOLECULE
5ywg_ligand
   40    41     1     0     0
SMALL
GAST_HUCK


@<TRIPOS>ATOM
      1 C10        24.7910   -5.0070  -31.2990 C.ar      1 MOL        -0.0382
      2 C13        22.8500   -4.7190  -29.3670 C.ar      1 MOL         0.2054
      3 C1         25.1840   -8.1130  -26.0280 C.3       1 MOL         0.0218
      4 C2         25.0260   -9.6300  -26.2040 C.3       1 MOL        -0.0346
      5 C3         23.6220  -10.0140  -26.5710 C.3       1 MOL        -0.0220
      6 C4         23.1320   -9.2760  -27.7850 C.3       1 MOL         0.0782
      7 C5         23.2460   -7.7410  -27.6920 C.3       1 MOL         0.0951
      8 C6         24.6490   -7.2620  -27.2300 C.2       1 MOL         0.1151
      9 C7         22.8710   -7.2800  -29.0830 C.3       1 MOL         0.1154
     10 C8         23.3740   -5.9980  -29.6980 C.ar      1 MOL         0.0319
     11 C9         24.3370   -6.1490  -30.6740 C.ar      1 MOL        -0.0473
     12 C11        24.2790   -3.7610  -30.9420 C.ar      1 MOL         0.0890
     13 C12        23.3030   -3.6090  -29.9930 C.ar      1 MOL        -0.0003
     14 O14        25.2280   -6.3530  -27.6900 O.2       1 MOL        -0.3910
     15 O15        21.7600   -9.6270  -28.0510 O.3       1 MOL        -0.3888
     16 O16        21.4640   -7.2170  -29.1190 O.3       1 MOL        -0.3751
     17 N17        21.9110   -4.6140  -28.4420 N.2       1 MOL         0.3100
     18 O18        22.1890   -4.0090  -27.2590 O.2       1 MOL         0.1745
     19 O19        20.6670   -5.1110  -28.6770 O.2       1 MOL         0.1745
     20 S20        24.8940   -2.3130  -31.8060 S.o2      1 MOL        -0.0075
     21 O21        23.8030   -1.5320  -32.3950 O.2       1 MOL        -0.1704
     22 O22        25.5430   -2.8890  -32.9690 O.2       1 MOL        -0.1704
     23 C23        26.0520   -1.3110  -30.8700 C.3       1 MOL         0.0589
     24 H1         25.5488   -5.0786  -32.0708 H         1 MOL         0.0662
     25 H2         26.2537   -7.8913  -25.8989 H         1 MOL         0.0494
     26 H3         24.6354   -7.8128  -25.1231 H         1 MOL         0.0494
     27 H4         25.2937  -10.1262  -25.2595 H         1 MOL         0.0291
     28 H5         25.7054   -9.9671  -27.0008 H         1 MOL         0.0291
     29 H6         22.9586   -9.7836  -25.7244 H         1 MOL         0.0293
     30 H7         23.5922  -11.0942  -26.7768 H         1 MOL         0.0293
     31 H8         23.7464   -9.6025  -28.6370 H         1 MOL         0.0625
     32 H9         22.5103   -7.3593  -26.9688 H         1 MOL         0.0606
     33 H10        23.2087   -8.0805  -29.7576 H         1 MOL         0.0805
     34 H11        24.7217   -7.1271  -30.9392 H         1 MOL         0.0573
     35 H12        22.9061   -2.6297  -29.7513 H         1 MOL         0.0693
     36 H13        21.4871   -9.2339  -28.8717 H         1 MOL         0.2100
     37 H14        21.1028   -8.0093  -28.7391 H         1 MOL         0.2135
     38 H15        26.3701   -0.4525  -31.4797 H         1 MOL         0.0467
     39 H16        26.9304   -1.9175  -30.6043 H         1 MOL         0.0467
     40 H17        25.5653   -0.9488  -29.9525 H         1 MOL         0.0467
@<TRIPOS>BOND
     1   11    1 ar 
     2    1   12 ar 
     3   10    2 ar 
     4    2   13 ar 
     5    2   17 1  
     6    3    4 1  
     7    8    3 1  
     8    5    4 1  
     9    6    5 1  
    10    7    6 1  
    11    6   15 1  
    12    7    8 1  
    13    9    7 1  
    14    8   14 2  
    15   10    9 1  
    16    9   16 1  
    17   10   11 ar 
    18   12   13 ar 
    19   12   20 1  
    20   17   18 2  
    21   17   19 2  
    22   20   21 2  
    23   20   22 2  
    24   20   23 1  
    25    1   24 1  
    26    3   25 1  
    27    3   26 1  
    28    4   27 1  
    29    4   28 1  
    30    5   29 1  
    31    5   30 1  
    32    6   31 1  
    33    7   32 1  
    34    9   33 1  
    35   11   34 1  
    36   13   35 1  
    37   15   36 1  
    38   16   37 1  
    39   23   38 1  
    40   23   39 1  
    41   23   40 1  
@<TRIPOS>SUBSTRUCTURE
     1 MOL         1

