### 
### Created by X-TOOL on Wed Jan  1 15:39:37 2020
### 

@<TRIPOS>MOLECULE
5ywx_ligand
   44    47     1     0     0
SMALL
GAST_HUCK


@<TRIPOS>ATOM
      1 C5         -6.1570    6.8280  -14.3780 C.ar      1 93C        -0.0376
      2 C3         -5.4640    4.6210  -13.7180 C.ar      1 93C         0.0950
      3 C6         -5.9570    7.2560  -13.0760 C.ar      1 93C        -0.0304
      4 C1         -5.4880    6.3470  -12.1260 C.ar      1 93C         0.0153
      5 C17        -7.1680   -3.1150  -16.7400 C.ar      1 93C        -0.0530
      6 C9         -4.6720    1.0370  -13.2710 C.ar      1 93C         0.0494
      7 C4         -5.9410    5.4960  -14.7000 C.ar      1 93C        -0.0181
      8 C13        -4.9810   -0.9640  -14.7500 C.2       1 93C         0.2420
      9 C7         -5.2810    3.1790  -14.0020 C.ar      1 93C         0.1501
     10 C18        -7.4700   -4.4260  -17.1610 C.ar      1 93C        -0.0528
     11 O27        -4.8350   -7.0220  -18.2590 O.2       1 93C        -0.3865
     12 C23        -5.9530   -7.4480  -18.0600 C.2       1 93C         0.2024
     13 C24        -6.4870   -8.6920  -18.7220 C.3       1 93C         0.0448
     14 C25        -7.9890   -8.5440  -18.4980 C.3       1 93C        -0.0106
     15 C26        -8.1620   -7.1570  -17.8670 C.3       1 93C         0.0548
     16 N22        -6.8640   -6.8530  -17.2180 N.am      1 93C        -0.2280
     17 C19        -6.6140   -5.4890  -16.8570 C.ar      1 93C         0.0550
     18 C20        -5.4750   -5.1850  -16.1000 C.ar      1 93C        -0.0528
     19 C21        -5.1860   -3.8590  -15.6920 C.ar      1 93C        -0.0530
     20 C16        -6.0410   -2.8100  -15.9900 C.ar      1 93C         0.0521
     21 N15        -5.8710   -1.4970  -15.6210 N.am      1 93C        -0.2397
     22 O14        -4.1490   -1.5670  -14.0890 O.2       1 93C        -0.3706
     23 C10        -5.0670    0.5250  -14.5000 C.ar      1 93C         0.1078
     24 N8         -4.7910    2.3490  -13.0410 N.ar      1 93C        -0.2496
     25 C11        -5.5730    1.3880  -15.4560 C.ar      1 93C         0.0494
     26 N12        -5.6750    2.6910  -15.2000 N.ar      1 93C        -0.2496
     27 N2         -5.2700    5.0460  -12.4690 N.ar      1 93C        -0.2814
     28 H1         -6.4799    7.5285  -15.1396 H         1 93C         0.0746
     29 H2         -6.1620    8.2836  -12.7983 H         1 93C         0.0738
     30 H3         -5.2964    6.6772  -11.1114 H         1 93C         0.0840
     31 H4         -7.8436   -2.3125  -17.0132 H         1 93C         0.0471
     32 H5         -4.2718    0.3806  -12.5068 H         1 93C         0.0991
     33 H6         -6.1399    5.1365  -15.7031 H         1 93C         0.0755
     34 H7         -8.3758   -4.6121  -17.7266 H         1 93C         0.0470
     35 H8         -6.0978   -9.6009  -18.2399 H         1 93C         0.0507
     36 H9         -6.2420   -8.7119  -19.7942 H         1 93C         0.0507
     37 H10        -8.3574   -9.3265  -17.8183 H         1 93C         0.0314
     38 H11        -8.5301   -8.6040  -19.4538 H         1 93C         0.0314
     39 H12        -8.9705   -7.1719  -17.1213 H         1 93C         0.0581
     40 H13        -8.3899   -6.4085  -18.6402 H         1 93C         0.0581
     41 H14        -4.7981   -5.9838  -15.8194 H         1 93C         0.0470
     42 H15        -4.2772   -3.6612  -15.1352 H         1 93C         0.0471
     43 H16        -6.4908   -0.8441  -16.0563 H         1 93C         0.2209
     44 H17        -5.8881    1.0014  -16.4185 H         1 93C         0.0991
@<TRIPOS>BOND
     1    1    3 ar 
     2    7    1 ar 
     3    2    7 ar 
     4    9    2 1  
     5    2   27 ar 
     6    4    3 ar 
     7   27    4 ar 
     8    5   10 ar 
     9   20    5 ar 
    10   23    6 ar 
    11    6   24 ar 
    12   21    8 am 
    13    8   22 2  
    14    8   23 1  
    15   24    9 ar 
    16    9   26 ar 
    17   10   17 ar 
    18   12   11 2  
    19   12   13 1  
    20   16   12 am 
    21   14   13 1  
    22   15   14 1  
    23   16   15 1  
    24   17   16 1  
    25   18   17 ar 
    26   19   18 ar 
    27   20   19 ar 
    28   20   21 1  
    29   23   25 ar 
    30   25   26 ar 
    31    1   28 1  
    32    3   29 1  
    33    4   30 1  
    34    5   31 1  
    35    6   32 1  
    36    7   33 1  
    37   10   34 1  
    38   13   35 1  
    39   13   36 1  
    40   14   37 1  
    41   14   38 1  
    42   15   39 1  
    43   15   40 1  
    44   18   41 1  
    45   19   42 1  
    46   21   43 1  
    47   25   44 1  
@<TRIPOS>SUBSTRUCTURE
     1 93C         1

