### 
### Created by X-TOOL on Mon Aug  2 16:12:22 2021
### 

@<TRIPOS>MOLECULE
5yy6_ligand
   55    58     1     0     0
SMALL
GAST_HUCK


@<TRIPOS>ATOM
      1 C10       -25.3080   -0.1320   22.0650 C.ar      1 MOL         0.0254
      2 C13       -26.2020    1.2580   23.7740 C.ar      1 MOL        -0.0281
      3 C15       -27.6380   -0.2600   22.6150 C.ar      1 MOL         0.0869
      4 C17       -28.8680   -0.8000   22.4250 C.2       1 MOL         0.2481
      5 C20       -31.2240   -0.9420   22.9650 C.ar      1 MOL         0.1004
      6 C21       -29.7040    0.5780   24.0960 C.2       1 MOL         0.3490
      7 C24       -31.9920   -0.5750   21.8650 C.ar      1 MOL        -0.0249
      8 C26       -33.7740   -2.0000   22.6110 C.ar      1 MOL        -0.0886
      9 C28       -31.7450   -1.8380   23.8890 C.ar      1 MOL        -0.0249
     10 C1        -22.6820   -3.7240   22.8770 C.3       1 MOL        -0.0203
     11 C2        -21.2060   -3.5770   22.5600 C.3       1 MOL        -0.0343
     12 C3        -21.0310   -3.1640   21.1070 C.3       1 MOL         0.0238
     13 C4        -21.9240   -1.9660   20.7770 C.2       1 MOL         0.1275
     14 C5        -23.1260   -1.6380   21.6730 C.3       1 MOL         0.1298
     15 C6        -23.3520   -2.3610   22.7620 C.3       1 MOL         0.0884
     16 O7        -23.7080   -1.7200   23.9550 O.3       1 MOL        -0.3869
     17 O8        -21.6750   -1.2970   19.8270 O.2       1 MOL        -0.3879
     18 C9        -24.1160   -0.5670   21.2210 C.2       1 MOL         0.1462
     19 O11       -23.9660   -0.0210   20.1780 O.2       1 MOL        -0.3823
     20 C12       -25.1270    0.8410   23.0190 C.ar      1 MOL        -0.0518
     21 C14       -27.4580    0.6990   23.5670 C.ar      1 MOL         0.0993
     22 C16       -26.5570   -0.6850   21.8510 C.ar      1 MOL        -0.0348
     23 N18       -29.8930   -0.3830   23.1560 N.am      1 MOL        -0.1201
     24 O19       -29.0360   -1.6370   21.6000 O.2       1 MOL        -0.3773
     25 O22       -30.6190    0.9460   24.7560 O.2       1 MOL        -0.3748
     26 N23       -28.4790    1.1080   24.2950 N.am      1 MOL        -0.1908
     27 C25       -33.2610   -1.1060   21.6910 C.ar      1 MOL        -0.0784
     28 C27       -33.0140   -2.3560   23.7070 C.ar      1 MOL        -0.0784
     29 C29       -31.4670    0.4070   20.8230 C.3       1 MOL        -0.0358
     30 C30       -30.9370   -2.2620   25.1150 C.3       1 MOL        -0.0358
     31 C31       -28.2930    2.1330   25.3080 C.3       1 MOL         0.0497
     32 H1        -26.0680    2.0229   24.5303 H         1 MOL         0.0532
     33 H2        -34.7646   -2.4182   22.4734 H         1 MOL         0.0468
     34 H3        -22.8029   -4.1092   23.9002 H         1 MOL         0.0295
     35 H4        -23.1443   -4.4234   22.1649 H         1 MOL         0.0295
     36 H5        -20.6982   -4.5378   22.7304 H         1 MOL         0.0291
     37 H6        -20.7666   -2.8090   23.2136 H         1 MOL         0.0291
     38 H7        -21.3029   -4.0079   20.4559 H         1 MOL         0.0496
     39 H8        -19.9799   -2.8903   20.9329 H         1 MOL         0.0496
     40 H9        -22.5437   -0.9024   22.2472 H         1 MOL         0.0770
     41 H10       -24.3564   -2.7147   22.4862 H         1 MOL         0.0646
     42 H11       -23.8346   -2.3695   24.6366 H         1 MOL         0.2102
     43 H12       -24.1469    1.2767   23.1762 H         1 MOL         0.0665
     44 H13       -26.6927   -1.4462   21.0913 H         1 MOL         0.0687
     45 H14       -33.8530   -0.8185   20.8296 H         1 MOL         0.0464
     46 H15       -33.4174   -3.0509   24.4346 H         1 MOL         0.0464
     47 H16       -30.4548    0.7333   21.1039 H         1 MOL         0.0363
     48 H17       -32.1335    1.2807   20.7740 H         1 MOL         0.0363
     49 H18       -31.4340   -0.0847   19.8396 H         1 MOL         0.0363
     50 H19       -29.9591   -1.7585   25.1017 H         1 MOL         0.0363
     51 H20       -30.7886   -3.3518   25.0974 H         1 MOL         0.0363
     52 H21       -31.4817   -1.9808   26.0284 H         1 MOL         0.0363
     53 H22       -29.2534    2.3367   25.8042 H         1 MOL         0.0559
     54 H23       -27.9226    3.0540   24.8341 H         1 MOL         0.0559
     55 H24       -27.5623    1.7843   26.0527 H         1 MOL         0.0559
@<TRIPOS>BOND
     1   18    1 1  
     2    1   20 ar 
     3    1   22 ar 
     4   20    2 ar 
     5    2   21 ar 
     6    3    4 1  
     7    3   21 ar 
     8   22    3 ar 
     9    4   23 am 
    10    4   24 2  
    11    5    7 ar 
    12    5    9 ar 
    13   23    5 1  
    14   23    6 am 
    15    6   25 2  
    16    6   26 am 
    17    7   27 ar 
    18    7   29 1  
    19   27    8 ar 
    20   28    8 ar 
    21    9   28 ar 
    22    9   30 1  
    23   10   11 1  
    24   15   10 1  
    25   12   11 1  
    26   13   12 1  
    27   14   13 1  
    28   13   17 2  
    29   14   15 1  
    30   14   18 1  
    31   15   16 1  
    32   18   19 2  
    33   21   26 1  
    34   26   31 1  
    35    2   32 1  
    36    8   33 1  
    37   10   34 1  
    38   10   35 1  
    39   11   36 1  
    40   11   37 1  
    41   12   38 1  
    42   12   39 1  
    43   14   40 1  
    44   15   41 1  
    45   16   42 1  
    46   20   43 1  
    47   22   44 1  
    48   27   45 1  
    49   28   46 1  
    50   29   47 1  
    51   29   48 1  
    52   29   49 1  
    53   30   50 1  
    54   30   51 1  
    55   30   52 1  
    56   31   53 1  
    57   31   54 1  
    58   31   55 1  
@<TRIPOS>SUBSTRUCTURE
     1 MOL         1

