### 
### Created by X-TOOL on Wed Jan  1 15:39:35 2020
### 

@<TRIPOS>MOLECULE
5yyb_ligand
   40    40     1     0     0
SMALL
GAST_HUCK


@<TRIPOS>ATOM
      1 O8          1.1890   -4.6620   27.5640 O.3       1 NGE        -0.3924
      2 C8          0.6260   -4.3250   26.3270 C.3       1 NGE         0.0727
      3 C7          0.9530   -2.8730   25.9140 C.3       1 NGE         0.1065
      4 O7          0.2250   -1.9910   26.7200 O.3       1 NGE        -0.3869
      5 C6          2.4770   -2.6360   25.9680 C.3       1 NGE         0.1114
      6 O6          3.1140   -3.5170   25.0800 O.3       1 NGE        -0.3865
      7 C5          2.8040   -1.2600   25.4590 C.3       1 NGE         0.1143
      8 O5          2.2780   -1.2520   24.1080 O.3       1 NGE        -0.3385
      9 C9          1.7080    0.0320   22.2310 C.2       1 NGE         0.1039
     10 O9B         1.7590   -1.0670   21.6130 O.co2     1 NGE        -0.5426
     11 O9A         1.0420    1.0070   21.7800 O.co2     1 NGE        -0.5426
     12 O1          1.7690    1.0270   24.3860 O.3       1 NGE        -0.3631
     13 C2          3.8780    0.4630   23.4860 C.3       1 NGE         0.0351
     14 C3          4.4790    0.4320   24.8480 C.3       1 NGE         0.0850
     15 O3          5.9080    0.8500   24.7960 O.3       1 NGE        -0.3893
     16 C4          4.2940   -0.9070   25.4680 C.3       1 NGE         0.0965
     17 N4          4.7620   -0.8440   26.8800 N.am      1 NGE        -0.2769
     18 C1          2.4000    0.1000   23.5490 C.3       1 NGE         0.2179
     19 C10         6.0760   -1.2320   27.2810 C.2       1 NGE         0.2022
     20 O10         6.9010   -1.6520   26.5150 O.2       1 NGE        -0.3945
     21 C11         6.3580   -1.0830   28.7680 C.3       1 NGE         0.1331
     22 O11         5.2190   -0.5500   29.3880 O.3       1 NGE        -0.3746
     23 H1          0.8497   -4.0803   28.2341 H         1 NGE         0.2095
     24 H2         -0.4663   -4.4373   26.3924 H         1 NGE         0.0584
     25 H3          1.0197   -5.0086   25.5604 H         1 NGE         0.0584
     26 H4          0.6288   -2.7246   24.8734 H         1 NGE         0.0643
     27 H5          0.4627   -2.1257   27.6298 H         1 NGE         0.2100
     28 H6          2.8455   -2.7732   26.9953 H         1 NGE         0.0647
     29 H7          2.7978   -3.3596   24.1982 H         1 NGE         0.2100
     30 H8          2.2774   -0.5136   26.0719 H         1 NGE         0.0646
     31 H9          2.1768    1.0064   25.2438 H         1 NGE         0.2112
     32 H10         4.4014   -0.2594   22.8424 H         1 NGE         0.0336
     33 H11         3.9852    1.4738   23.0655 H         1 NGE         0.0336
     34 H12         3.9430    1.1623   25.4719 H         1 NGE         0.0618
     35 H13         6.2762    0.8249   25.6714 H         1 NGE         0.2099
     36 H14         4.8656   -1.6645   24.9117 H         1 NGE         0.0608
     37 H15         4.1272   -0.5150   27.5791 H         1 NGE         0.1856
     38 H16         7.2121   -0.4061   28.9172 H         1 NGE         0.0801
     39 H17         6.5897   -2.0670   29.2017 H         1 NGE         0.0801
     40 H18         5.0214    0.2984   29.0091 H         1 NGE         0.2129
@<TRIPOS>BOND
     1    2    1 1  
     2    3    2 1  
     3    3    4 1  
     4    5    3 1  
     5    5    6 1  
     6    7    5 1  
     7    8    7 1  
     8    7   16 1  
     9   18    8 1  
    10    9   10 ar 
    11    9   11 ar 
    12   18    9 1  
    13   18   12 1  
    14   13   14 1  
    15   13   18 1  
    16   14   15 1  
    17   14   16 1  
    18   16   17 1  
    19   17   19 am 
    20   19   20 2  
    21   19   21 1  
    22   21   22 1  
    23    1   23 1  
    24    2   24 1  
    25    2   25 1  
    26    3   26 1  
    27    4   27 1  
    28    5   28 1  
    29    6   29 1  
    30    7   30 1  
    31   12   31 1  
    32   13   32 1  
    33   13   33 1  
    34   14   34 1  
    35   15   35 1  
    36   16   36 1  
    37   17   37 1  
    38   21   38 1  
    39   21   39 1  
    40   22   40 1  
@<TRIPOS>SUBSTRUCTURE
     1 NGE         1

