### 
### Created by X-TOOL on Wed Jan  1 15:39:37 2020
### 

@<TRIPOS>MOLECULE
5yyf_ligand
  118   119     1     0     0
SMALL
GAST_HUCK


@<TRIPOS>ATOM
      1 C1         25.4070   -4.8470   37.3130 C.3       1 PHQ         0.1988
      2 O1         25.0110   -4.3970   38.3770 O.3       1 PHQ        -0.3281
      3 O2         26.3900   -4.1760   36.5780 O.3       1 PHQ        -0.2996
      4 C2         27.3590   -3.4880   37.3870 C.3       1 PHQ         0.0899
      5 C3         27.2520   -1.9860   37.0920 C.ar      1 PHQ        -0.0172
      6 C4         28.2470   -1.3430   36.3030 C.ar      1 PHQ        -0.0581
      7 C5         28.1510    0.0030   36.0390 C.ar      1 PHQ        -0.0685
      8 C6         27.0800    0.7340   36.5420 C.ar      1 PHQ        -0.0687
      9 C7         26.1020    0.0970   37.3160 C.ar      1 PHQ        -0.0685
     10 C8         26.2030   -1.2700   37.5830 C.ar      1 PHQ        -0.0581
     11 N          24.6640   -5.1550   36.1310 N.4       1 GLN         0.2893
     12 CA         23.3200   -5.6200   36.4420 C.3       1 GLN         0.0739
     13 C          23.3610   -6.9680   37.1670 C.2       1 GLN         0.2272
     14 O          24.2760   -7.7660   36.9560 O.2       1 GLN        -0.3907
     15 CB         22.4850   -5.7220   35.1580 C.3       1 GLN         0.0249
     16 CG         21.1280   -6.3570   35.3630 C.3       1 GLN         0.0443
     17 CD         20.2410   -6.3160   34.1410 C.2       1 GLN         0.1738
     18 OE1        19.4020   -7.1920   33.9480 O.2       1 GLN        -0.3973
     19 NE2        20.4090   -5.2920   33.3140 N.am      1 GLN        -0.3009
     20 N          22.3760   -7.2150   38.0300 N.am      1 THR        -0.2586
     21 CA         22.2200   -8.5200   38.6540 C.3       1 THR         0.1566
     22 C          21.8910   -9.5750   37.6000 C.2       1 THR         0.2065
     23 O          21.7170   -9.2850   36.4130 O.2       1 THR        -0.3943
     24 CB         21.1150   -8.4880   39.7080 C.3       1 THR         0.0924
     25 OG1        19.8400   -8.3970   39.0580 O.3       1 THR        -0.3874
     26 CG2        21.2930   -7.3030   40.6410 C.3       1 THR        -0.0346
     27 N          21.7920  -10.8220   38.0500 N.am      1 ALA        -0.2639
     28 CA         21.2670  -11.8700   37.1950 C.3       1 ALA         0.1282
     29 C          19.8060  -11.5770   36.8550 C.2       1 ALA         0.2036
     30 O          19.1510  -10.7260   37.4640 O.2       1 ALA        -0.3944
     31 CB         21.3990  -13.2320   37.8740 C.3       1 ALA        -0.0244
     32 N          19.2990  -12.2940   35.8600 N.am      1 ARG        -0.2637
     33 CA         17.9190  -12.1210   35.4260 C.3       1 ARG         0.1311
     34 C          17.1680  -13.4430   35.4850 C.2       1 ARG         0.2039
     35 O          17.7660  -14.4970   35.6940 O.2       1 ARG        -0.3944
     36 CB         17.8680  -11.5490   34.0100 C.3       1 ARG        -0.0092
     37 CG         18.5640  -10.2100   33.8600 C.3       1 ARG        -0.0156
     38 CD         18.5180   -9.7240   32.4200 C.3       1 ARG         0.0627
     39 NE         17.1500   -9.5120   31.9580 N.pl3     1 ARG        -0.2723
     40 CZ         16.4610   -8.3900   32.1430 C.cat     1 ARG         0.2882
     41 NH1        17.0090   -7.3670   32.7860 N.pl3     1 ARG        -0.2849
     42 NH2        15.2210   -8.2920   31.6840 N.pl3     1 ARG        -0.2849
     43 N          15.8550  -13.3830   35.2970 N.am      1 LYS        -0.2637
     44 CA         15.0210  -14.6040   35.3080 C.3       1 LYS         0.1306
     45 C          13.8400  -14.3190   34.3060 C.2       1 LYS         0.1992
     46 O          13.4870  -13.1770   34.0810 O.2       1 LYS        -0.3947
     47 CB         14.4740  -14.8490   36.7530 C.3       1 LYS        -0.0123
     48 CG         13.5140  -13.7440   37.2440 C.3       1 LYS        -0.0470
     49 CD         12.9480  -13.9350   38.6630 C.3       1 LYS        -0.0327
     50 CE         12.3410  -12.6680   39.3130 C.3       1 LYS         0.0300
     51 NZ         11.6140  -12.8800   40.5680 N.am      1 LYS        -0.2863
     52 N          13.1820  -15.3650   33.6680 N.am      1 NH2        -0.2990
     53 C1         11.9180  -12.2400   41.7730 C.2       1 FOA         0.2284
     54 C2         11.1440  -12.4880   43.0630 C.2       1 FOA         0.1842
     55 C3         11.2850  -12.0640   44.3510 C.2       1 FOA        -0.0437
     56 C4         10.2400  -12.6440   45.1180 C.2       1 FOA        -0.0557
     57 C5          9.5280  -13.3980   44.2460 C.2       1 FOA         0.0866
     58 O6         12.8370  -11.4500   41.8110 O.2       1 FOA        -0.3899
     59 O8         10.0490  -13.3330   42.9650 O.3       1 FOA        -0.2506
     60 H1         25.8392   -5.8018   37.6469 H         1 PHQ         0.1551
     61 H2         25.7398   -4.3318   38.9829 H         1 PHQ         0.2180
     62 H3         28.3700   -3.8445   37.1406 H         1 PHQ         0.0727
     63 H4         27.1541   -3.6736   38.4517 H         1 PHQ         0.0727
     64 H5         29.0803   -1.9144   35.9103 H         1 PHQ         0.0557
     65 H6         28.9092    0.4938   35.4395 H         1 PHQ         0.0599
     66 H7         27.0024    1.7953   36.3352 H         1 PHQ         0.0559
     67 H8         25.2663    0.6653   37.7080 H         1 PHQ         0.0599
     68 H9         25.4452   -1.7619   38.1820 H         1 PHQ         0.0557
     69 H10        25.1485   -5.8762   35.6199 H         1 GLN         0.2091
     70 H11        24.5985   -4.3258   35.5616 H         1 GLN         0.2091
     71 H12        22.8447   -4.8848   37.1080 H         1 GLN         0.1102
     72 H13        23.0438   -6.3255   34.4276 H         1 GLN         0.0370
     73 H14        22.3368   -4.7078   34.7588 H         1 GLN         0.0370
     74 H15        20.6170   -5.8258   36.1795 H         1 GLN         0.0506
     75 H16        21.2775   -7.4091   35.6470 H         1 GLN         0.0506
     76 H17        19.8472   -5.2173   32.4901 H         1 GLN         0.1814
     77 H18        21.0974   -4.5950   33.5147 H         1 GLN         0.1814
     78 H19        21.7289   -6.4862   38.2539 H         1 THR         0.1885
     79 H20        23.1673   -8.7903   39.1434 H         1 THR         0.0826
     80 H21        21.1560   -9.4159   40.2973 H         1 THR         0.0639
     81 H22        19.7191   -9.1513   38.4934 H         1 THR         0.2101
     82 H23        20.4870   -7.3015   41.3896 H         1 THR         0.0257
     83 H24        21.2554   -6.3698   40.0598 H         1 THR         0.0257
     84 H25        22.2654   -7.3794   41.1494 H         1 THR         0.0257
     85 H26        22.0808  -11.0388   38.9825 H         1 ALA         0.1883
     86 H27        21.8488  -11.8875   36.2616 H         1 ALA         0.0797
     87 H28        20.9964  -14.0125   37.2116 H         1 ALA         0.0277
     88 H29        20.8359  -13.2268   38.8189 H         1 ALA         0.0277
     89 H30        22.4597  -13.4376   38.0803 H         1 ALA         0.0277
     90 H31        19.8764  -12.9674   35.3983 H         1 ARG         0.1883
     91 H32        17.4277  -11.4104   36.1069 H         1 ARG         0.0800
     92 H33        16.8129  -11.4241   33.7252 H         1 ARG         0.0313
     93 H34        18.3490  -12.2669   33.3294 H         1 ARG         0.0313
     94 H35        19.6143  -10.3149   34.1697 H         1 ARG         0.0301
     95 H36        18.0638   -9.4716   34.5039 H         1 ARG         0.0301
     96 H37        18.9978  -10.4757   31.7760 H         1 ARG         0.0689
     97 H38        19.0683   -8.7743   32.3479 H         1 ARG         0.0689
     98 H39        16.6875  -10.2828   31.4552 H         1 ARG         0.2642
     99 H40        16.4715   -6.4998   32.9270 H         1 ARG         0.2615
    100 H41        17.9719   -7.4400   33.1442 H         1 ARG         0.2615
    101 H42        14.7927   -9.0844   31.1844 H         1 ARG         0.2615
    102 H43        14.6860   -7.4235   31.8270 H         1 ARG         0.2615
    103 H44        15.4216  -12.4947   35.1450 H         1 LYS         0.1883
    104 H45        15.6035  -15.4770   34.9785 H         1 LYS         0.0800
    105 H46        15.3280  -14.9006   37.4444 H         1 LYS         0.0312
    106 H47        13.9353  -15.8080   36.7634 H         1 LYS         0.0312
    107 H48        12.6659  -13.6977   36.5451 H         1 LYS         0.0268
    108 H49        14.0590  -12.7887   37.2231 H         1 LYS         0.0268
    109 H50        13.7647  -14.2895   39.3090 H         1 LYS         0.0285
    110 H51        12.1604  -14.7013   38.6137 H         1 LYS         0.0285
    111 H52        11.6432  -12.2195   38.5906 H         1 LYS         0.0518
    112 H53        13.1629  -11.9651   39.5139 H         1 LYS         0.0518
    113 H54        10.8500  -13.5252   40.5618 H         1 LYS         0.1837
    114 H55        12.4334  -15.1720   33.0337 H         1 NH2         0.1815
    115 H56        13.4575  -16.3102   33.8436 H         1 NH2         0.1815
    116 H57        12.0614  -11.3985   44.7254 H         1 LYS         0.0434
    117 H58        10.0509  -12.5109   46.1822 H         1 LYS         0.0364
    118 H59         8.6520  -13.9842   44.5197 H         1 LYS         0.1039
@<TRIPOS>BOND
     1    1    2 1  
     2    1    3 1  
     3    1   11 1  
     4    3    4 1  
     5    4    5 1  
     6    5    6 ar 
     7    5   10 ar 
     8    6    7 ar 
     9    7    8 ar 
    10    8    9 ar 
    11    9   10 ar 
    12   11   12 1  
    13   12   13 1  
    14   12   15 1  
    15   13   14 2  
    16   13   20 am 
    17   15   16 1  
    18   16   17 1  
    19   17   18 2  
    20   17   19 am 
    21   20   21 1  
    22   21   22 1  
    23   21   24 1  
    24   22   23 2  
    25   22   27 am 
    26   24   25 1  
    27   24   26 1  
    28   27   28 1  
    29   28   29 1  
    30   28   31 1  
    31   29   30 2  
    32   29   32 am 
    33   32   33 1  
    34   33   34 1  
    35   33   36 1  
    36   34   35 2  
    37   34   43 am 
    38   36   37 1  
    39   37   38 1  
    40   38   39 1  
    41   39   40 ar 
    42   40   41 ar 
    43   40   42 ar 
    44   43   44 1  
    45   44   45 1  
    46   44   47 1  
    47   45   46 2  
    48   45   52 am 
    49   47   48 1  
    50   48   49 1  
    51   49   50 1  
    52   50   51 1  
    53   51   53 am 
    54   53   54 1  
    55   53   58 2  
    56   54   55 2  
    57   54   59 1  
    58   55   56 1  
    59   56   57 2  
    60   57   59 1  
    61    1   60 1  
    62    2   61 1  
    63    4   62 1  
    64    4   63 1  
    65    6   64 1  
    66    7   65 1  
    67    8   66 1  
    68    9   67 1  
    69   10   68 1  
    70   11   69 1  
    71   11   70 1  
    72   12   71 1  
    73   15   72 1  
    74   15   73 1  
    75   16   74 1  
    76   16   75 1  
    77   19   76 1  
    78   19   77 1  
    79   20   78 1  
    80   21   79 1  
    81   24   80 1  
    82   25   81 1  
    83   26   82 1  
    84   26   83 1  
    85   26   84 1  
    86   27   85 1  
    87   28   86 1  
    88   31   87 1  
    89   31   88 1  
    90   31   89 1  
    91   32   90 1  
    92   33   91 1  
    93   36   92 1  
    94   36   93 1  
    95   37   94 1  
    96   37   95 1  
    97   38   96 1  
    98   38   97 1  
    99   39   98 1  
   100   41   99 1  
   101   41  100 1  
   102   42  101 1  
   103   42  102 1  
   104   43  103 1  
   105   44  104 1  
   106   47  105 1  
   107   47  106 1  
   108   48  107 1  
   109   48  108 1  
   110   49  109 1  
   111   49  110 1  
   112   50  111 1  
   113   50  112 1  
   114   51  113 1  
   115   52  114 1  
   116   52  115 1  
   117   55  116 1  
   118   56  117 1  
   119   57  118 1  
@<TRIPOS>SUBSTRUCTURE
     1 PHQ         1

