### 
### Created by X-TOOL on Wed Jan  1 15:39:36 2020
### 

@<TRIPOS>MOLECULE
5yz7_ligand
   28    28     1     0     0
SMALL
GAST_HUCK


@<TRIPOS>ATOM
      1 BR1        -3.0220  -19.8250   -4.5950 Br        1 94X        -0.0561
      2 C02        -2.0960  -18.5710   -5.7630 C.ar      1 94X         0.0056
      3 C03        -2.8280  -17.8540   -6.6860 C.ar      1 94X        -0.0590
      4 C04        -2.1480  -16.9640   -7.5080 C.ar      1 94X        -0.0572
      5 C05        -0.7340  -18.4360   -5.6310 C.ar      1 94X        -0.0590
      6 C06        -0.0670  -17.5390   -6.4640 C.ar      1 94X        -0.0572
      7 C07        -0.7580  -16.7870   -7.4110 C.ar      1 94X        -0.0357
      8 C08        -0.0500  -15.8180   -8.3060 C.3       1 94X         0.0171
      9 C09         1.0570  -16.4470   -9.2200 C.3       1 94X         0.0890
     10 O10         2.1890  -16.6190   -8.4000 O.3       1 94X        -0.3783
     11 C11         1.4320  -15.5890  -10.4320 C.2       1 94X        -0.0481
     12 C12         2.4550  -14.7200  -10.5420 C.2       1 94X        -0.0265
     13 C13         3.5060  -14.3970   -9.4380 C.2       1 94X         0.0473
     14 O14         3.1630  -14.5090   -8.2460 O.co2     1 94X        -0.5666
     15 O15         4.6500  -14.0390   -9.8370 O.co2     1 94X        -0.5666
     16 C16         2.6240  -13.9770  -11.8170 C.3       1 94X        -0.0376
     17 H1         -3.9014  -17.9810   -6.7677 H         1 94X         0.0626
     18 H2         -2.7038  -16.3922   -8.2422 H         1 94X         0.0564
     19 H3         -0.1898  -19.0154   -4.8940 H         1 94X         0.0626
     20 H4          1.0072  -17.4249   -6.3732 H         1 94X         0.0564
     21 H5          0.4240  -15.0530   -7.6735 H         1 94X         0.0480
     22 H6         -0.7998  -15.3433   -8.9559 H         1 94X         0.0480
     23 H7          0.7064  -17.4240   -9.5841 H         1 94X         0.0772
     24 H8          2.4634  -15.7755   -8.0600 H         1 94X         0.2134
     25 H9          0.7956  -15.6941  -11.3094 H         1 94X         0.0593
     26 H10         1.8359  -14.2770  -12.5234 H         1 94X         0.0350
     27 H11         3.6096  -14.2074  -12.2478 H         1 94X         0.0350
     28 H12         2.5516  -12.8965  -11.6241 H         1 94X         0.0350
@<TRIPOS>BOND
     1    1    2 1  
     2    2    3 ar 
     3    2    5 ar 
     4    3    4 ar 
     5    4    7 ar 
     6    5    6 ar 
     7    6    7 ar 
     8    7    8 1  
     9    8    9 1  
    10    9   10 1  
    11    9   11 1  
    12   11   12 2  
    13   12   13 1  
    14   12   16 1  
    15   13   14 ar 
    16   13   15 ar 
    17    3   17 1  
    18    4   18 1  
    19    5   19 1  
    20    6   20 1  
    21    8   21 1  
    22    8   22 1  
    23    9   23 1  
    24   10   24 1  
    25   11   25 1  
    26   16   26 1  
    27   16   27 1  
    28   16   28 1  
@<TRIPOS>SUBSTRUCTURE
     1 94X         1

