### 
### Created by X-TOOL on Wed Jan  1 15:39:36 2020
### 

@<TRIPOS>MOLECULE
5yzc_ligand
   35    36     1     0     0
SMALL
GAST_HUCK


@<TRIPOS>ATOM
      1 CAA       -22.0300  -18.4820   -3.1570 C.ar      1 95C         0.2368
      2 CAB       -22.8720  -19.2960   -2.3950 C.ar      1 95C         0.0766
      3 CAC       -23.6240  -20.2920   -3.0050 C.ar      1 95C         0.0774
      4 CAD       -23.5050  -20.4530   -4.3870 C.ar      1 95C         0.1987
      5 CAE       -22.6700  -19.6440   -5.1680 C.ar      1 95C         0.1593
      6 CAF       -21.9220  -18.6500   -4.5450 C.ar      1 95C         0.3411
      7 CAG       -21.2020  -17.4130   -2.4360 C.2       1 95C         0.2700
      8 CAN       -21.1930  -17.4690   -6.6620 C.2       1 95C         0.3757
      9 CAO       -20.1840  -16.4930   -7.2760 C.3       1 95C         0.1177
     10 CAP       -19.6210  -17.1150   -8.5350 C.ar      1 95C        -0.0198
     11 CAQ       -20.4630  -17.2160   -9.6560 C.ar      1 95C        -0.0578
     12 CAR       -19.9640  -17.7990  -10.8220 C.ar      1 95C        -0.0681
     13 CAS       -18.6510  -18.2860  -10.8510 C.ar      1 95C        -0.0684
     14 CAT       -17.8150  -18.1800   -9.7150 C.ar      1 95C        -0.0681
     15 CAU       -18.3000  -17.5900   -8.5420 C.ar      1 95C        -0.0578
     16 NAI       -20.3100  -16.5410   -3.1230 N.am      1 95C        -0.2903
     17 NAJ       -24.2730  -21.4360   -5.0380 N.2       1 95C        -0.1838
     18 NAM       -21.0400  -17.7800   -5.2760 N.am      1 95C        -0.0801
     19 OAH       -21.3330  -17.2950   -1.2340 O.2       1 95C        -0.3497
     20 OAK       -24.4200  -21.3950   -6.2380 O.2       1 95C        -0.4818
     21 OAL       -24.8300  -22.2980   -4.4140 O.2       1 95C        -0.4818
     22 OAV       -22.0770  -17.9880   -7.3380 O.2       1 95C        -0.2792
     23 H1        -22.9387  -19.1496   -1.3230 H         1 95C         0.1031
     24 H2        -24.2844  -20.9262   -2.4247 H         1 95C         0.1589
     25 H3        -22.6076  -19.7899   -6.2403 H         1 95C         0.1449
     26 H4        -19.3705  -16.3013   -6.5609 H         1 95C         0.0706
     27 H5        -20.6863  -15.5459   -7.5225 H         1 95C         0.0706
     28 H6        -21.4817  -16.8477   -9.6157 H         1 95C         0.0561
     29 H7        -20.5911  -17.8747  -11.7029 H         1 95C         0.0600
     30 H8        -18.2712  -18.7494  -11.7544 H         1 95C         0.0561
     31 H9        -16.7989  -18.5556   -9.7528 H         1 95C         0.0600
     32 H10       -17.6724  -17.5022   -7.6626 H         1 95C         0.0561
     33 H11       -19.7882  -15.8568   -2.6135 H         1 95C         0.1815
     34 H12       -20.2054  -16.6129   -4.1149 H         1 95C         0.1815
     35 H13       -20.2731  -17.3678   -4.7841 H         1 95C         0.4337
@<TRIPOS>BOND
     1    1    2 ar 
     2    6    1 ar 
     3    1    7 1  
     4    2    3 ar 
     5    4    3 ar 
     6    5    4 ar 
     7    4   17 1  
     8    6    5 ar 
     9   18    6 1  
    10    7   16 am 
    11    7   19 2  
    12    8    9 1  
    13    8   18 am 
    14    8   22 2  
    15    9   10 1  
    16   10   11 ar 
    17   10   15 ar 
    18   11   12 ar 
    19   12   13 ar 
    20   13   14 ar 
    21   14   15 ar 
    22   17   20 2  
    23   17   21 2  
    24    2   23 1  
    25    3   24 1  
    26    5   25 1  
    27    9   26 1  
    28    9   27 1  
    29   11   28 1  
    30   12   29 1  
    31   13   30 1  
    32   14   31 1  
    33   15   32 1  
    34   16   33 1  
    35   16   34 1  
    36   18   35 1  
@<TRIPOS>SUBSTRUCTURE
     1 95C         1

