### 
### Created by X-TOOL on Wed Jan  1 15:39:36 2020
### 

@<TRIPOS>MOLECULE
5yzd_ligand
   65    67     1     0     0
SMALL
GAST_HUCK


@<TRIPOS>ATOM
      1 C1        -24.4870  -21.3500  -36.3800 C.2       1 PHQ         0.3240
      2 O1        -25.4490  -20.4860  -36.6490 O.2       1 PHQ        -0.3773
      3 O2        -23.4920  -21.3220  -37.3430 O.3       1 PHQ        -0.2505
      4 C2        -22.8840  -20.0080  -37.5390 C.3       1 PHQ         0.1113
      5 C3        -23.1750  -19.6450  -39.0150 C.ar      1 PHQ        -0.0130
      6 C4        -22.7540  -18.4360  -39.5580 C.ar      1 PHQ        -0.0578
      7 C5        -23.0560  -18.1580  -40.9250 C.ar      1 PHQ        -0.0685
      8 C6        -23.7550  -19.0680  -41.7250 C.ar      1 PHQ        -0.0687
      9 C7        -24.1900  -20.2970  -41.1820 C.ar      1 PHQ        -0.0685
     10 C8        -23.8990  -20.5770  -39.8340 C.ar      1 PHQ        -0.0578
     11 N         -24.9570  -22.6750  -36.6370 N.am      1 DPN        -0.2393
     12 CA        -26.3220  -22.8440  -36.2330 C.3       1 DPN         0.1423
     13 C         -27.1430  -23.0570  -37.4750 C.2       1 DPN         0.2060
     14 O         -26.6020  -23.1150  -38.5190 O.2       1 DPN        -0.3942
     15 CB        -26.4860  -24.0600  -35.2260 C.3       1 DPN         0.0214
     16 CG        -25.6190  -23.9100  -33.9720 C.ar      1 DPN        -0.0386
     17 CD1       -24.8050  -24.9670  -33.5650 C.ar      1 DPN        -0.0601
     18 CD2       -25.6480  -22.7190  -33.2610 C.ar      1 DPN        -0.0601
     19 CE1       -24.0030  -24.8200  -32.4180 C.ar      1 DPN        -0.0686
     20 CE2       -24.8520  -22.5790  -32.1380 C.ar      1 DPN        -0.0686
     21 CZ        -24.0180  -23.6410  -31.7240 C.ar      1 DPN        -0.0687
     22 N         -28.4610  -23.1590  -37.3350 N.am      1 PHE        -0.2618
     23 CA        -29.3520  -23.1610  -38.5010 C.3       1 PHE         0.1404
     24 C         -29.0770  -22.0480  -39.5140 C.2       1 PHE         0.2052
     25 O         -28.6970  -20.9380  -39.1440 O.2       1 PHE        -0.3942
     26 CB        -30.7960  -23.0090  -38.0680 C.3       1 PHE         0.0214
     27 CG        -31.3310  -24.1540  -37.2980 C.ar      1 PHE        -0.0386
     28 CD1       -31.3560  -24.1150  -35.9100 C.ar      1 PHE        -0.0601
     29 CD2       -31.8530  -25.2570  -37.9480 C.ar      1 PHE        -0.0601
     30 CE1       -31.8980  -25.1720  -35.1810 C.ar      1 PHE        -0.0686
     31 CE2       -32.3800  -26.3160  -37.2360 C.ar      1 PHE        -0.0686
     32 CZ        -32.4120  -26.2760  -35.8490 C.ar      1 PHE        -0.0687
     33 N         -29.2860  -22.3580  -40.7890 N.am      1 GLY        -0.2720
     34 CA        -29.4520  -21.3420  -41.8090 C.3       1 GLY         0.0833
     35 C         -28.3310  -21.2610  -42.8130 C.2       1 GLY         0.0570
     36 O         -28.2430  -20.2700  -43.5420 O.co2     1 GLY        -0.5669
     37 OXT       -27.5200  -22.1870  -42.8890 O.co2     1 GLY        -0.5669
     38 H1        -21.7998  -20.0535  -37.3591 H         1 PHQ         0.0776
     39 H2        -23.3372  -19.2681  -36.8629 H         1 PHQ         0.0776
     40 H3        -22.2077  -17.7194  -38.9554 H         1 PHQ         0.0557
     41 H4        -22.7350  -17.2161  -41.3549 H         1 PHQ         0.0599
     42 H5        -23.9628  -18.8298  -42.7619 H         1 PHQ         0.0559
     43 H6        -24.7361  -21.0090  -41.7903 H         1 PHQ         0.0599
     44 H7        -24.2283  -21.5162  -39.4044 H         1 PHQ         0.0557
     45 H8        -24.4009  -23.3969  -37.0488 H         1 DPN         0.1901
     46 H9        -26.6627  -21.9279  -35.7284 H         1 DPN         0.0823
     47 H10       -26.1985  -24.9870  -35.7437 H         1 DPN         0.0474
     48 H11       -27.5405  -24.1232  -34.9193 H         1 DPN         0.0474
     49 H12       -24.7903  -25.8936  -34.1273 H         1 DPN         0.0557
     50 H13       -26.2884  -21.9056  -33.5824 H         1 DPN         0.0557
     51 H14       -23.3751  -25.6386  -32.0853 H         1 DPN         0.0599
     52 H15       -24.8685  -21.6528  -31.5750 H         1 DPN         0.0599
     53 H16       -23.3861  -23.5213  -30.8514 H         1 DPN         0.0559
     54 H17       -28.8526  -23.2358  -36.4181 H         1 PHE         0.1885
     55 H18       -29.2291  -24.1284  -39.0100 H         1 PHE         0.0823
     56 H19       -31.4134  -22.8832  -38.9697 H         1 PHE         0.0474
     57 H20       -30.8736  -22.1080  -37.4418 H         1 PHE         0.0474
     58 H21       -30.9505  -23.2551  -35.3892 H         1 PHE         0.0557
     59 H22       -31.8484  -25.2908  -39.0315 H         1 PHE         0.0557
     60 H23       -31.9183  -25.1327  -34.0979 H         1 PHE         0.0599
     61 H24       -32.7696  -27.1805  -37.7613 H         1 PHE         0.0599
     62 H25       -32.8360  -27.1022  -35.2899 H         1 PHE         0.0559
     63 H26       -29.3301  -23.3216  -41.0528 H         1 GLY         0.1873
     64 H27       -29.5336  -20.3658  -41.3087 H         1 GLY         0.0689
     65 H28       -30.3838  -21.5539  -42.3538 H         1 GLY         0.0689
@<TRIPOS>BOND
     1    1    2 2  
     2    1    3 1  
     3    3    4 1  
     4    4    5 1  
     5    5    6 ar 
     6    5   10 ar 
     7    6    7 ar 
     8    7    8 ar 
     9    9    8 ar 
    10   10    9 ar 
    11   11   12 1  
    12   12   13 1  
    13   12   15 1  
    14   13   14 2  
    15   15   16 1  
    16   16   17 ar 
    17   16   18 ar 
    18   17   19 ar 
    19   18   20 ar 
    20   19   21 ar 
    21   20   21 ar 
    22   22   23 1  
    23   23   26 1  
    24   23   24 1  
    25   24   25 2  
    26   26   27 1  
    27   27   28 ar 
    28   27   29 ar 
    29   29   31 ar 
    30   31   32 ar 
    31   30   32 ar 
    32   28   30 ar 
    33   13   22 am 
    34   33   34 1  
    35   34   35 1  
    36   35   36 ar 
    37   35   37 ar 
    38   24   33 am 
    39    1   11 am 
    40    4   38 1  
    41    4   39 1  
    42    6   40 1  
    43    7   41 1  
    44    8   42 1  
    45    9   43 1  
    46   10   44 1  
    47   11   45 1  
    48   12   46 1  
    49   15   47 1  
    50   15   48 1  
    51   17   49 1  
    52   18   50 1  
    53   19   51 1  
    54   20   52 1  
    55   21   53 1  
    56   22   54 1  
    57   23   55 1  
    58   26   56 1  
    59   26   57 1  
    60   28   58 1  
    61   29   59 1  
    62   30   60 1  
    63   31   61 1  
    64   32   62 1  
    65   33   63 1  
    66   34   64 1  
    67   34   65 1  
@<TRIPOS>SUBSTRUCTURE
     1 PHQ         1

