### 
### Created by X-TOOL on Wed Jan  1 15:39:34 2020
### 

@<TRIPOS>MOLECULE
5z1c_ligand
   18    18     1     0     0
SMALL
GAST_HUCK


@<TRIPOS>ATOM
      1 C1         32.7820   17.8130    4.1300 C.3       1 ZXI        -0.0005
      2 C2         31.4150   17.2450    3.9610 C.ar      1 ZXI         0.0038
      3 C3         30.9900   16.8720    2.6850 C.ar      1 ZXI        -0.0524
      4 C4         29.7230   16.3530    2.4950 C.ar      1 ZXI        -0.0574
      5 C5         28.8950   16.2220    3.5920 C.ar      1 ZXI         0.0024
      6 C6         29.3000   16.6110    4.8610 C.ar      1 ZXI        -0.0574
      7 C7         30.5700   17.1260    5.0550 C.ar      1 ZXI        -0.0524
      8 I14        26.9860   15.4710    3.3180 I         1 ZXI        -0.0552
      9 N15        33.7970   17.0720    3.3400 N.4       1 ZXI         0.2312
     10 H1         33.0568   17.7651    5.1940 H         1 ZXI         0.0984
     11 H2         32.7732   18.8624    3.8004 H         1 ZXI         0.0984
     12 H3         31.6569   16.9899    1.8386 H         1 ZXI         0.0565
     13 H4         29.3874   16.0559    1.5080 H         1 ZXI         0.0627
     14 H5         28.6216   16.5115    5.7006 H         1 ZXI         0.0627
     15 H6         30.8980   17.4304    6.0423 H         1 ZXI         0.0565
     16 H7         34.7038   17.4883    3.4832 H         1 ZXI         0.2008
     17 H8         33.5583   17.1150    2.3616 H         1 ZXI         0.2008
     18 H9         33.8182   16.1095    3.6387 H         1 ZXI         0.2008
@<TRIPOS>BOND
     1    1    2 1  
     2    1    9 1  
     3    2    3 ar 
     4    2    7 ar 
     5    3    4 ar 
     6    4    5 ar 
     7    5    6 ar 
     8    5    8 1  
     9    6    7 ar 
    10    1   10 1  
    11    1   11 1  
    12    3   12 1  
    13    4   13 1  
    14    6   14 1  
    15    7   15 1  
    16    9   16 1  
    17    9   17 1  
    18    9   18 1  
@<TRIPOS>SUBSTRUCTURE
     1 ZXI         1

