### 
### Created by X-TOOL on Mon Aug  2 16:10:00 2021
### 

@<TRIPOS>MOLECULE
5z1d_ligand
   38    40     1     0     0
SMALL
GAST_HUCK


@<TRIPOS>ATOM
      1 O21        13.5620   -1.9760  -13.9590 O.2       1 MOL        -0.3851
      2 C18        12.9510   -1.1200  -13.3230 C.2       1 MOL         0.2030
      3 C19        13.6540    0.2220  -13.1860 C.3       1 MOL         0.0403
      4 C20        13.8320    0.5300  -11.7270 C.3       1 MOL        -0.0477
      5 N17        11.7470   -1.3580  -12.7390 N.am      1 MOL        -0.2344
      6 C15        11.0890   -2.5650  -12.6650 C.ar      1 MOL         0.0659
      7 C16        11.5390   -3.7930  -13.1870 C.ar      1 MOL        -0.0310
      8 C11        10.7690   -4.9690  -13.0790 C.ar      1 MOL         0.0116
      9 C12         9.5570   -4.9260  -12.4000 C.ar      1 MOL        -0.0646
     10 C13         9.0900   -3.7210  -11.9020 C.ar      1 MOL        -0.0738
     11 C14         9.8500   -2.5520  -12.0300 C.ar      1 MOL        -0.0409
     12 C7         11.2360   -6.3050  -13.6040 C.2       1 MOL         0.1305
     13 N8         10.7700   -7.4740  -13.1280 N.pl3     1 MOL        -0.2356
     14 N9         11.4200   -8.5440  -13.7890 N.2       1 MOL        -0.3030
     15 C5         12.2930   -8.1170  -14.6900 C.ar      1 MOL        -0.0045
     16 C6         12.1940   -6.6380  -14.5910 C.ar      1 MOL         0.0262
     17 C4         13.1750   -8.7190  -15.5700 C.ar      1 MOL        -0.0543
     18 C3         13.9670   -7.9010  -16.3830 C.ar      1 MOL        -0.0458
     19 C10        14.9330   -8.5140  -17.3620 C.3       1 MOL        -0.0311
     20 C2         13.8890   -6.5080  -16.3100 C.ar      1 MOL        -0.0597
     21 C1         13.0140   -5.8690  -15.4220 C.ar      1 MOL        -0.0551
     22 H1         13.0456    1.0076  -13.6578 H         1 MOL         0.0505
     23 H2         14.6375    0.1756  -13.6764 H         1 MOL         0.0505
     24 H3         14.3399    1.4994  -11.6162 H         1 MOL         0.0254
     25 H4         14.4392   -0.2578  -11.2573 H         1 MOL         0.0254
     26 H5         12.8473    0.5742  -11.2387 H         1 MOL         0.0254
     27 H6         11.2910   -0.5735  -12.3187 H         1 MOL         0.2252
     28 H7         12.5013   -3.8351  -13.6842 H         1 MOL         0.0496
     29 H8          8.9792   -5.8325  -12.2607 H         1 MOL         0.0507
     30 H9          8.1259   -3.6825  -11.4079 H         1 MOL         0.0580
     31 H10         9.4672   -1.6210  -11.6278 H         1 MOL         0.0509
     32 H11        10.0520   -7.5748  -12.3964 H         1 MOL         0.2879
     33 H12        13.2505   -9.7988  -15.6281 H         1 MOL         0.0560
     34 H13        15.4603   -7.7160  -17.9053 H         1 MOL         0.0391
     35 H14        14.3814   -9.1418  -18.0772 H         1 MOL         0.0391
     36 H15        15.6631   -9.1319  -16.8187 H         1 MOL         0.0391
     37 H16        14.5201   -5.9078  -16.9554 H         1 MOL         0.0557
     38 H17        12.9731   -4.7866  -15.3796 H         1 MOL         0.0609
@<TRIPOS>BOND
     1    1    2 2  
     2    2    3 1  
     3    2    5 am 
     4    3    4 1  
     5    5    6 1  
     6    6    7 ar 
     7    6   11 ar 
     8    7    8 ar 
     9    8    9 ar 
    10    8   12 1  
    11    9   10 ar 
    12   10   11 ar 
    13   12   13 1  
    14   12   16 2  
    15   13   14 1  
    16   14   15 2  
    17   15   16 ar 
    18   15   17 ar 
    19   16   21 ar 
    20   17   18 ar 
    21   18   19 1  
    22   18   20 ar 
    23   20   21 ar 
    24    3   22 1  
    25    3   23 1  
    26    4   24 1  
    27    4   25 1  
    28    4   26 1  
    29    5   27 1  
    30    7   28 1  
    31    9   29 1  
    32   10   30 1  
    33   11   31 1  
    34   13   32 1  
    35   17   33 1  
    36   19   34 1  
    37   19   35 1  
    38   19   36 1  
    39   20   37 1  
    40   21   38 1  
@<TRIPOS>SUBSTRUCTURE
     1 MOL         1

