### 
### Created by X-TOOL on Mon Aug  2 16:12:23 2021
### 

@<TRIPOS>MOLECULE
5z1e_ligand
   36    38     1     0     0
SMALL
GAST_HUCK


@<TRIPOS>ATOM
      1 O21        13.2660    4.4100   15.1110 O.2       1 MOL        -0.3764
      2 C18        12.4760    3.5390   14.7600 C.2       1 MOL         0.2224
      3 C19        12.9500    2.1240   14.6890 C.2       1 MOL         0.0142
      4 C20        14.2180    1.8050   14.8910 C.2       1 MOL        -0.0782
      5 N17        11.2100    3.7830   14.3610 N.am      1 MOL        -0.2349
      6 C15        10.5910    5.0070   14.1700 C.ar      1 MOL         0.0655
      7 C16        11.0940    6.2750   14.5480 C.ar      1 MOL        -0.0310
      8 C11        10.3720    7.4400   14.2360 C.ar      1 MOL         0.0116
      9 C12         9.1600    7.3680   13.5590 C.ar      1 MOL        -0.0646
     10 C13         8.6650    6.1310   13.1750 C.ar      1 MOL        -0.0738
     11 C14         9.3680    4.9730   13.4770 C.ar      1 MOL        -0.0408
     12 C7         10.8100    8.7970   14.6610 C.2       1 MOL         0.1305
     13 N8         10.4890    9.9270   14.0000 N.pl3     1 MOL        -0.2356
     14 N9         11.0160   11.0320   14.6940 N.2       1 MOL        -0.3030
     15 C5         11.6520   10.6730   15.7900 C.ar      1 MOL        -0.0045
     16 C6         11.5090    9.1910   15.8320 C.ar      1 MOL         0.0262
     17 C4         12.3190   11.3600   16.7830 C.ar      1 MOL        -0.0543
     18 C3         12.8590   10.6340   17.8220 C.ar      1 MOL        -0.0458
     19 C10        13.5580   11.4120   18.8910 C.3       1 MOL        -0.0311
     20 C2         12.7490    9.2270   17.9020 C.ar      1 MOL        -0.0597
     21 C1         12.0770    8.4920   16.9150 C.ar      1 MOL        -0.0551
     22 H1         12.2335    1.3350   14.4653 H         1 MOL         0.0698
     23 H2         14.5336    0.7644   14.8326 H         1 MOL         0.0686
     24 H3         14.9461    2.5830   15.1157 H         1 MOL         0.0686
     25 H4         10.6468    2.9767   14.1801 H         1 MOL         0.2245
     26 H5         12.0366    6.3477   15.0784 H         1 MOL         0.0496
     27 H6          8.6061    8.2720   13.3330 H         1 MOL         0.0507
     28 H7          7.7259    6.0682   12.6372 H         1 MOL         0.0580
     29 H8          8.9629    4.0156   13.1700 H         1 MOL         0.0509
     30 H9          9.9450    9.9742   13.1266 H         1 MOL         0.2879
     31 H10        12.4154   12.4391   16.7469 H         1 MOL         0.0560
     32 H11        13.9411   10.7210   19.6563 H         1 MOL         0.0391
     33 H12        12.8510   12.1162   19.3538 H         1 MOL         0.0391
     34 H13        14.3961   11.9709   18.4492 H         1 MOL         0.0391
     35 H14        13.1928    8.7061   18.7427 H         1 MOL         0.0557
     36 H15        11.9966    7.4132   16.9836 H         1 MOL         0.0609
@<TRIPOS>BOND
     1    1    2 2  
     2    2    3 1  
     3    2    5 am 
     4    3    4 2  
     5    5    6 1  
     6    6    7 ar 
     7    6   11 ar 
     8    7    8 ar 
     9    8    9 ar 
    10    8   12 1  
    11    9   10 ar 
    12   10   11 ar 
    13   12   13 1  
    14   12   16 2  
    15   13   14 1  
    16   14   15 2  
    17   15   16 ar 
    18   15   17 ar 
    19   16   21 ar 
    20   17   18 ar 
    21   18   19 1  
    22   18   20 ar 
    23   20   21 ar 
    24    3   22 1  
    25    4   23 1  
    26    4   24 1  
    27    5   25 1  
    28    7   26 1  
    29    9   27 1  
    30   10   28 1  
    31   11   29 1  
    32   13   30 1  
    33   17   31 1  
    34   19   32 1  
    35   19   33 1  
    36   19   34 1  
    37   20   35 1  
    38   21   36 1  
@<TRIPOS>SUBSTRUCTURE
     1 MOL         1

