### 
### Created by X-TOOL on Mon Aug  2 16:12:23 2021
### 

@<TRIPOS>MOLECULE
5z1r_ligand
   43    45     1     0     0
SMALL
GAST_HUCK


@<TRIPOS>ATOM
      1 CAZ        10.7690  -11.6390   -6.3900 C.3       1 EFL         0.0602
      2 OAY        10.3040  -10.8780   -5.2430 O.3       1 EFL        -0.3172
      3 CAW         9.9940   -9.5680   -5.4230 C.ar      1 EFL         0.1209
      4 CAV        10.1940   -8.8450   -6.6330 C.ar      1 EFL        -0.0282
      5 CAU         9.7950   -7.5150   -6.6540 C.ar      1 EFL        -0.0610
      6 CAT         9.2540   -6.9210   -5.5290 C.ar      1 EFL         0.0031
      7 BR          8.7910   -5.1230   -5.6190 Br        1 EFL        -0.0599
      8 CAS         9.0480   -7.5980   -4.3710 C.ar      1 EFL        -0.0338
      9 CAR         9.3790   -8.9420   -4.3180 C.ar      1 EFL         0.1444
     10 SAO         9.1070   -9.8350   -2.8340 S.o2      1 EFL         0.0860
     11 OAP         8.4740   -8.8970   -1.8760 O.2       1 EFL        -0.1467
     12 OAQ         8.4210  -11.1560   -3.0660 O.2       1 EFL        -0.1467
     13 NAN        10.6650  -10.2270   -2.3250 N.am      1 EFL        -0.1980
     14 CAB        11.5900   -9.2880   -2.0650 C.ar      1 EFL         0.0415
     15 CAC        11.3460   -8.2280   -1.2060 C.ar      1 EFL        -0.0269
     16 CAD        12.3440   -7.2920   -0.9310 C.ar      1 EFL         0.1003
     17 OAG        12.1340   -6.2070   -0.1140 O.3       1 EFL        -0.3167
     18 CAH        13.1100   -5.8910    0.8660 C.3       1 EFL         0.1627
     19 CAL        12.8630   -4.6200    1.4750 C.3       1 EFL        -0.0264
     20 CAM        13.4710   -7.1200    1.6780 C.3       1 EFL        -0.0264
     21 CAI        14.3570   -5.7020    0.0420 C.2       1 EFL         0.2462
     22 OAK        15.3260   -4.9070    0.2670 O.2       1 EFL        -0.3424
     23 NAJ        14.5620   -6.4480   -1.1120 N.am      1 EFL        -0.2417
     24 CAE        13.5990   -7.4130   -1.4960 C.ar      1 EFL         0.0842
     25 CAF        13.8780   -8.5090   -2.3300 C.ar      1 EFL        -0.0607
     26 CAA        12.8620   -9.4420   -2.6260 C.ar      1 EFL        -0.0668
     27 H1         10.9766  -12.6747   -6.0831 H         1 EFL         0.0579
     28 H2         11.6885  -11.1823   -6.7847 H         1 EFL         0.0579
     29 H3          9.9939  -11.6363   -7.1705 H         1 EFL         0.0579
     30 H4         10.6398   -9.3138   -7.5028 H         1 EFL         0.0550
     31 H5          9.9091   -6.9358   -7.5632 H         1 EFL         0.0615
     32 H6          8.6325   -7.0967   -3.5043 H         1 EFL         0.0635
     33 H7         10.9090  -11.1903   -2.2128 H         1 EFL         0.2118
     34 H8         10.3710   -8.1250   -0.7435 H         1 EFL         0.0373
     35 H9         13.6407   -4.4158    2.2257 H         1 EFL         0.0242
     36 H10        11.8771   -4.6324    1.9626 H         1 EFL         0.0242
     37 H11        12.8815   -3.8347    0.7050 H         1 EFL         0.0242
     38 H12        14.2277   -6.8530    2.4304 H         1 EFL         0.0242
     39 H13        13.8755   -7.8949    1.0102 H         1 EFL         0.0242
     40 H14        12.5718   -7.5034    2.1824 H         1 EFL         0.0242
     41 H15        15.3819   -6.3049   -1.6664 H         1 EFL         0.2211
     42 H16        14.8712   -8.6373   -2.7448 H         1 EFL         0.0443
     43 H17        13.0667  -10.2765   -3.2869 H         1 EFL         0.0365
@<TRIPOS>BOND
     1    1    2 1  
     2    2    3 1  
     3    3    4 ar 
     4    3    9 ar 
     5    4    5 ar 
     6    5    6 ar 
     7    6    7 1  
     8    6    8 ar 
     9    8    9 ar 
    10    9   10 1  
    11   10   11 2  
    12   10   12 2  
    13   10   13 am 
    14   13   14 1  
    15   14   15 ar 
    16   14   26 ar 
    17   15   16 ar 
    18   16   17 1  
    19   16   24 ar 
    20   17   18 1  
    21   18   19 1  
    22   18   20 1  
    23   18   21 1  
    24   21   22 2  
    25   21   23 am 
    26   23   24 1  
    27   24   25 ar 
    28   25   26 ar 
    29    1   27 1  
    30    1   28 1  
    31    1   29 1  
    32    4   30 1  
    33    5   31 1  
    34    8   32 1  
    35   13   33 1  
    36   15   34 1  
    37   19   35 1  
    38   19   36 1  
    39   19   37 1  
    40   20   38 1  
    41   20   39 1  
    42   20   40 1  
    43   23   41 1  
    44   25   42 1  
    45   26   43 1  
@<TRIPOS>SUBSTRUCTURE
     1 EFL         1

