### 
### Created by X-TOOL on Mon Aug  2 16:12:23 2021
### 

@<TRIPOS>MOLECULE
5z1s_ligand
   47    49     1     0     0
SMALL
GAST_HUCK


@<TRIPOS>ATOM
      1 CBA        13.8960   10.2380    4.4900 C.3       1 EFM         0.0534
      2 OAK        12.7690   10.2810    3.6210 O.3       1 EFM        -0.3383
      3 CAB        12.6540    9.2210    2.6910 C.ar      1 EFM         0.0877
      4 CAA        13.6890    8.2800    2.4470 C.ar      1 EFM        -0.0308
      5 CAF        13.4100    7.2960    1.4900 C.ar      1 EFM         0.0764
      6 NAJ        14.3940    6.3150    1.1560 N.am      1 EFM        -0.2438
      7 CAI        14.2300    5.6320   -0.0330 C.2       1 EFM         0.2440
      8 OAZ        15.0700    4.7850   -0.2860 O.2       1 EFM        -0.3446
      9 CAH        13.0580    5.8720   -0.8360 C.3       1 EFM         0.1592
     10 CAX        13.3450    6.9770   -1.8000 C.3       1 EFM        -0.0276
     11 CAY        12.6180    4.6140   -1.5570 C.3       1 EFM        -0.0276
     12 OAG        11.9440    6.2690   -0.0310 O.3       1 EFM        -0.3246
     13 CAE        12.2080    7.3050    0.8520 C.ar      1 EFM         0.0891
     14 CAD        11.2430    8.2210    1.0720 C.ar      1 EFM        -0.0334
     15 CAC        11.4570    9.2310    2.0020 C.ar      1 EFM         0.0728
     16 NAL        10.6030   10.2370    2.3090 N.am      1 EFM        -0.1998
     17 SAM         9.0390    9.8690    2.8130 S.o2      1 EFM         0.0845
     18 OAN         8.4060    8.9220    1.8950 O.2       1 EFM        -0.1470
     19 OAO         8.3200   11.1380    3.0470 O.2       1 EFM        -0.1470
     20 CAP         9.3100    9.0210    4.3100 C.ar      1 EFM         0.1441
     21 CAU         8.9830    7.6580    4.3930 C.ar      1 EFM        -0.0339
     22 CAT         9.1230    7.0010    5.5470 C.ar      1 EFM         0.0031
     23 BR          8.6480    5.1950    5.6870 Br        1 EFM        -0.0599
     24 CAS         9.6630    7.6180    6.6850 C.ar      1 EFM        -0.0610
     25 CAR        10.0330    8.9520    6.6450 C.ar      1 EFM        -0.0282
     26 CAQ         9.8890    9.6360    5.4330 C.ar      1 EFM         0.1209
     27 OAV        10.1430   10.9430    5.2240 O.3       1 EFM        -0.3172
     28 CBB        10.6640   11.6810    6.3730 C.3       1 EFM         0.0602
     29 H1         13.8747   11.1090    5.1614 H         1 EFM         0.0568
     30 H2         14.8200   10.2574    3.8935 H         1 EFM         0.0568
     31 H3         13.8640    9.3144    5.0866 H         1 EFM         0.0568
     32 H4         14.6377    8.3207    2.9698 H         1 EFM         0.0367
     33 H5         15.1701    6.1305    1.7590 H         1 EFM         0.2217
     34 H6         12.4541    7.1660   -2.4169 H         1 EFM         0.0239
     35 H7         14.1856    6.6889   -2.4484 H         1 EFM         0.0239
     36 H8         13.6065    7.8896   -1.2444 H         1 EFM         0.0239
     37 H9         12.4150    3.8218   -0.8214 H         1 EFM         0.0239
     38 H10        13.4152    4.2848   -2.2398 H         1 EFM         0.0239
     39 H11        11.7044    4.8221   -2.1332 H         1 EFM         0.0239
     40 H12        10.3072    8.1697    0.5273 H         1 EFM         0.0347
     41 H13        10.8988   11.1895    2.2369 H         1 EFM         0.2086
     42 H14         8.6153    7.1369    3.5165 H         1 EFM         0.0635
     43 H15         9.7911    7.0489    7.5987 H         1 EFM         0.0615
     44 H16        10.4221    9.4507    7.5253 H         1 EFM         0.0550
     45 H17        10.8332   12.7301    6.0888 H         1 EFM         0.0579
     46 H18        11.6140   11.2313    6.6976 H         1 EFM         0.0579
     47 H19         9.9370   11.6371    7.1973 H         1 EFM         0.0579
@<TRIPOS>BOND
     1    1    2 1  
     2    2    3 1  
     3    3    4 ar 
     4    3   15 ar 
     5    4    5 ar 
     6    5    6 1  
     7    5   13 ar 
     8    6    7 am 
     9    7    8 2  
    10    7    9 1  
    11    9   10 1  
    12    9   11 1  
    13    9   12 1  
    14   12   13 1  
    15   13   14 ar 
    16   14   15 ar 
    17   15   16 1  
    18   16   17 am 
    19   17   18 2  
    20   17   19 2  
    21   17   20 1  
    22   20   21 ar 
    23   20   26 ar 
    24   21   22 ar 
    25   22   23 1  
    26   22   24 ar 
    27   24   25 ar 
    28   25   26 ar 
    29   26   27 1  
    30   27   28 1  
    31    1   29 1  
    32    1   30 1  
    33    1   31 1  
    34    4   32 1  
    35    6   33 1  
    36   10   34 1  
    37   10   35 1  
    38   10   36 1  
    39   11   37 1  
    40   11   38 1  
    41   11   39 1  
    42   14   40 1  
    43   16   41 1  
    44   21   42 1  
    45   24   43 1  
    46   25   44 1  
    47   28   45 1  
    48   28   46 1  
    49   28   47 1  
@<TRIPOS>SUBSTRUCTURE
     1 EFM         1

