### 
### Created by X-TOOL on Mon Aug  2 16:12:23 2021
### 

@<TRIPOS>MOLECULE
5z1t_ligand
   44    46     1     0     0
SMALL
GAST_HUCK


@<TRIPOS>ATOM
      1 CAZ       -10.7510   11.6460   -6.3510 C.3       1 EFN         0.0602
      2 OAY       -10.1830   10.9400   -5.2310 O.3       1 EFN        -0.3172
      3 CAT        -9.9000    9.6230   -5.4340 C.ar      1 EFN         0.1209
      4 CAU       -10.0520    8.9400   -6.6350 C.ar      1 EFN        -0.0282
      5 CAV        -9.6970    7.5930   -6.6990 C.ar      1 EFN        -0.0610
      6 CAW        -9.1810    6.9620   -5.5710 C.ar      1 EFN         0.0031
      7 BR         -8.6820    5.1460   -5.6440 Br        1 EFN        -0.0599
      8 CAX        -8.9950    7.6380   -4.4080 C.ar      1 EFN        -0.0339
      9 CAS        -9.3070    9.0070   -4.3290 C.ar      1 EFN         0.1441
     10 SAP        -9.0520    9.8340   -2.8190 S.o2      1 EFN         0.0845
     11 OAQ        -8.4420    8.8770   -1.9080 O.2       1 EFN        -0.1470
     12 OAR        -8.2830   11.0980   -3.0560 O.2       1 EFN        -0.1470
     13 NAO       -10.5910   10.2250   -2.3210 N.am      1 EFN        -0.1998
     14 CAC       -11.4750    9.2270   -2.0530 C.ar      1 EFN         0.0725
     15 CAD       -11.2290    8.1870   -1.1460 C.ar      1 EFN        -0.0334
     16 CAE       -12.2270    7.2900   -0.9170 C.ar      1 EFN         0.0891
     17 OAG       -11.9690    6.2290   -0.0480 O.3       1 EFN        -0.3246
     18 CAH       -13.0840    5.8810    0.8050 C.3       1 EFN         0.1592
     19 CAL       -13.2670    7.0070    1.7910 C.3       1 EFN        -0.0276
     20 CAM       -12.6320    4.5990    1.5030 C.3       1 EFN        -0.0276
     21 CAI       -14.2900    5.6550   -0.0070 C.2       1 EFN         0.2440
     22 OAK       -15.1320    4.8040    0.2670 O.2       1 EFN        -0.3446
     23 NAJ       -14.4600    6.3640   -1.1570 N.am      1 EFN        -0.2438
     24 CAF       -13.4670    7.3280   -1.4870 C.ar      1 EFN         0.0764
     25 CAA       -13.7600    8.3410   -2.4090 C.ar      1 EFN        -0.0311
     26 CAB       -12.7330    9.2690   -2.6650 C.ar      1 EFN         0.0846
     27 OAN       -12.9480   10.3190   -3.5680 O.3       1 EFN        -0.3503
     28 H1        -10.9352   12.6932   -6.0691 H         1 EFN         0.0579
     29 H2        -11.7004   11.1717   -6.6401 H         1 EFN         0.0579
     30 H3        -10.0511   11.6123   -7.1989 H         1 EFN         0.0579
     31 H4        -10.4413    9.4476   -7.5101 H         1 EFN         0.0550
     32 H5         -9.8224    7.0401   -7.6229 H         1 EFN         0.0615
     33 H6         -8.6051    7.1212   -3.5385 H         1 EFN         0.0635
     34 H7        -10.8624   11.1822   -2.2201 H         1 EFN         0.2086
     35 H8        -10.2731    8.0997   -0.6423 H         1 EFN         0.0347
     36 H9        -14.1100    6.7761    2.4589 H         1 EFN         0.0239
     37 H10       -13.4750    7.9403    1.2473 H         1 EFN         0.0239
     38 H11       -12.3496    7.1260    2.3862 H         1 EFN         0.0239
     39 H12       -13.4247    4.2523    2.1823 H         1 EFN         0.0239
     40 H13       -11.7166    4.7985    2.0794 H         1 EFN         0.0239
     41 H14       -12.4294    3.8233    0.7499 H         1 EFN         0.0239
     42 H15       -15.2529    6.2128   -1.7473 H         1 EFN         0.2217
     43 H16       -14.7249    8.4067   -2.8986 H         1 EFN         0.0367
     44 H17       -12.1628   10.8504   -3.6268 H         1 EFN         0.2394
@<TRIPOS>BOND
     1    1    2 1  
     2    2    3 1  
     3    3    4 ar 
     4    3    9 ar 
     5    4    5 ar 
     6    5    6 ar 
     7    6    7 1  
     8    6    8 ar 
     9    8    9 ar 
    10    9   10 1  
    11   10   11 2  
    12   10   12 2  
    13   10   13 am 
    14   13   14 1  
    15   14   15 ar 
    16   14   26 ar 
    17   15   16 ar 
    18   16   17 1  
    19   16   24 ar 
    20   17   18 1  
    21   18   19 1  
    22   18   20 1  
    23   18   21 1  
    24   21   22 2  
    25   21   23 am 
    26   23   24 1  
    27   24   25 ar 
    28   25   26 ar 
    29   26   27 1  
    30    1   28 1  
    31    1   29 1  
    32    1   30 1  
    33    4   31 1  
    34    5   32 1  
    35    8   33 1  
    36   13   34 1  
    37   15   35 1  
    38   19   36 1  
    39   19   37 1  
    40   19   38 1  
    41   20   39 1  
    42   20   40 1  
    43   20   41 1  
    44   23   42 1  
    45   25   43 1  
    46   27   44 1  
@<TRIPOS>SUBSTRUCTURE
     1 EFN         1

