### 
### Created by X-TOOL on Wed Jan  1 15:39:36 2020
### 

@<TRIPOS>MOLECULE
5z4h_ligand
   25    26     1     0     0
SMALL
GAST_HUCK


@<TRIPOS>ATOM
      1 C11       -26.7480   21.6590  -20.4870 C.ar      1 A8K        -0.0387
      2 C10       -25.5220   21.3110  -19.9490 C.ar      1 A8K        -0.0563
      3 C9        -21.3810   19.4350  -19.8060 C.ar      1 A8K        -0.0563
      4 C8        -20.5530   18.9080  -20.7750 C.ar      1 A8K        -0.0387
      5 C7        -21.0920   18.3560  -21.9210 C.ar      1 A8K         0.0808
      6 C4        -22.7510   19.4430  -19.9810 C.ar      1 A8K         0.0171
      7 C5        -23.2950   18.8790  -21.1300 C.ar      1 A8K        -0.0563
      8 C6        -22.4670   18.3280  -22.0930 C.ar      1 A8K        -0.0387
      9 C3        -25.3710   20.1050  -19.2710 C.ar      1 A8K         0.0171
     10 C2        -26.4430   19.2420  -19.1620 C.ar      1 A8K        -0.0563
     11 C1        -27.6700   19.5850  -19.6980 C.ar      1 A8K        -0.0387
     12 O1        -20.2290   17.8690  -22.8420 O.3       1 A8K        -0.3374
     13 S         -23.7520   19.8980  -18.5890 S.3       1 A8K        -0.0597
     14 C         -27.8270   20.7990  -20.3610 C.ar      1 A8K         0.0808
     15 O         -29.0290   21.1560  -20.8800 O.3       1 A8K        -0.3374
     16 H1        -26.8644   22.6033  -21.0065 H         1 A8K         0.0526
     17 H2        -24.6758   21.9801  -20.0559 H         1 A8K         0.0542
     18 H3        -20.9528   19.8465  -18.8992 H         1 A8K         0.0542
     19 H4        -19.4780   18.9270  -20.6372 H         1 A8K         0.0526
     20 H5        -24.3697   18.8708  -21.2718 H         1 A8K         0.0542
     21 H6        -22.8936   17.8751  -22.9807 H         1 A8K         0.0526
     22 H7        -26.3220   18.2919  -18.6542 H         1 A8K         0.0542
     23 H8        -28.5110   18.9079  -19.6020 H         1 A8K         0.0526
     24 H9        -19.3384   17.9845  -22.5321 H         1 A8K         0.2459
     25 H10       -28.9537   22.0080  -21.2933 H         1 A8K         0.2459
@<TRIPOS>BOND
     1    2    1 ar 
     2    1   14 ar 
     3    9    2 ar 
     4    3    4 ar 
     5    6    3 ar 
     6    4    5 ar 
     7    8    5 ar 
     8    5   12 1  
     9    6    7 ar 
    10   13    6 1  
    11    7    8 ar 
    12    9   10 ar 
    13    9   13 1  
    14   10   11 ar 
    15   11   14 ar 
    16   14   15 1  
    17    1   16 1  
    18    2   17 1  
    19    3   18 1  
    20    4   19 1  
    21    7   20 1  
    22    8   21 1  
    23   10   22 1  
    24   11   23 1  
    25   12   24 1  
    26   15   25 1  
@<TRIPOS>SUBSTRUCTURE
     1 A8K         1

