### 
### Created by X-TOOL on Wed Jan  1 15:39:37 2020
### 

@<TRIPOS>MOLECULE
5z4o_ligand
   24    25     1     0     0
SMALL
GAST_HUCK


@<TRIPOS>ATOM
      1 C1         -8.1200  -18.5260  -22.2550 C.ar      1 HX8        -0.0699
      2 C2         -9.4780  -18.5550  -22.0210 C.ar      1 HX8        -0.0725
      3 C3         -9.9590  -19.0810  -20.8430 C.ar      1 HX8        -0.0699
      4 C4         -9.0890  -19.5920  -19.8950 C.ar      1 HX8        -0.0290
      5 C5         -7.7290  -19.6010  -20.1560 C.ar      1 HX8         0.1133
      6 C6         -7.2350  -19.0540  -21.3270 C.ar      1 HX8        -0.0290
      7 O7         -6.8350  -20.1290  -19.2140 O.3       1 HX8        -0.2649
      8 C8         -5.4860  -20.2610  -19.5530 C.ar      1 HX8         0.1050
      9 C9         -5.2000  -21.4350  -20.2330 C.ar      1 HX8        -0.0367
     10 C10        -3.9110  -21.6890  -20.6630 C.ar      1 HX8        -0.0406
     11 C11        -2.9040  -20.7680  -20.4210 C.ar      1 HX8         0.0771
     12 C12        -3.1900  -19.5970  -19.7320 C.ar      1 HX8        -0.0406
     13 C13        -4.4810  -19.3480  -19.2920 C.ar      1 HX8        -0.0367
     14 O14        -1.6430  -20.9980  -20.8950 O.3       1 HX8        -0.3398
     15 H1         -7.7410  -18.0873  -23.1710 H         1 HX8         0.0590
     16 H2        -10.1656  -18.1647  -22.7626 H         1 HX8         0.0526
     17 H3        -11.0267  -19.0951  -20.6564 H         1 HX8         0.0590
     18 H4         -9.4688  -19.9814  -18.9573 H         1 HX8         0.0550
     19 H5         -6.1679  -19.0383  -21.5169 H         1 HX8         0.0550
     20 H6         -5.9876  -22.1540  -20.4275 H         1 HX8         0.0527
     21 H7         -3.6876  -22.6095  -21.1900 H         1 HX8         0.0518
     22 H8         -2.4033  -18.8769  -19.5379 H         1 HX8         0.0518
     23 H9         -4.7021  -18.4390  -18.7443 H         1 HX8         0.0527
     24 H10        -1.6207  -21.8381  -21.3379 H         1 HX8         0.2447
@<TRIPOS>BOND
     1    1    2 ar 
     2    1    6 ar 
     3    2    3 ar 
     4    3    4 ar 
     5    4    5 ar 
     6    5    6 ar 
     7    5    7 1  
     8    7    8 1  
     9    8    9 ar 
    10    8   13 ar 
    11    9   10 ar 
    12   10   11 ar 
    13   11   12 ar 
    14   11   14 1  
    15   12   13 ar 
    16    1   15 1  
    17    2   16 1  
    18    3   17 1  
    19    4   18 1  
    20    6   19 1  
    21    9   20 1  
    22   10   21 1  
    23   12   22 1  
    24   13   23 1  
    25   14   24 1  
@<TRIPOS>SUBSTRUCTURE
     1 HX8         1

