### 
### Created by X-TOOL on Wed Jan  1 15:39:35 2020
### 

@<TRIPOS>MOLECULE
5z5f_ligand
   20    20     1     0     0
SMALL
GAST_HUCK


@<TRIPOS>ATOM
      1 O5'         7.5960    5.2650   15.8030 O.3       1 FUB        -0.3924
      2 C5'         6.5790    6.1760   16.2860 C.3       1 FUB         0.0730
      3 C4'         6.9800    7.6250   16.0170 C.3       1 FUB         0.1131
      4 O4'         7.4060    7.7500   14.6560 O.3       1 FUB        -0.3407
      5 C3'         8.1430    8.0780   16.8700 C.3       1 FUB         0.1141
      6 O3'         7.7220    8.4670   18.1800 O.3       1 FUB        -0.3864
      7 C2'         8.7270    9.1540   15.9650 C.3       1 FUB         0.1339
      8 O2'        10.0570    9.5740   16.2540 O.3       1 FUB        -0.3841
      9 C1'         8.6400    8.4890   14.5960 C.3       1 FUB         0.1854
     10 O1'         9.7450    7.6090   14.3400 O.3       1 FUB        -0.3649
     11 H1          8.4167    5.4443   16.2466 H         1 FUB         0.2095
     12 H2          6.4503    6.0322   17.3689 H         1 FUB         0.0584
     13 H3          5.6299    5.9628   15.7724 H         1 FUB         0.0584
     14 H4          6.1130    8.2754   16.2046 H         1 FUB         0.0647
     15 H5          8.8749    7.2659   16.9919 H         1 FUB         0.0648
     16 H6          8.4774    8.7444   18.6848 H         1 FUB         0.2100
     17 H7          8.0842   10.0460   15.9991 H         1 FUB         0.0671
     18 H8         10.0918    9.9278   17.1350 H         1 FUB         0.2101
     19 H9          8.5992    9.2507   13.8034 H         1 FUB         0.0935
     20 H10         9.8045    6.9662   15.0369 H         1 FUB         0.2126
@<TRIPOS>BOND
     1    1    2 1  
     2    2    3 1  
     3    3    4 1  
     4    3    5 1  
     5    4    9 1  
     6    5    6 1  
     7    5    7 1  
     8    7    8 1  
     9    7    9 1  
    10    9   10 1  
    11    1   11 1  
    12    2   12 1  
    13    2   13 1  
    14    3   14 1  
    15    5   15 1  
    16    6   16 1  
    17    7   17 1  
    18    8   18 1  
    19    9   19 1  
    20   10   20 1  
@<TRIPOS>SUBSTRUCTURE
     1 FUB         1

