### 
### Created by X-TOOL on Mon Aug  2 16:12:23 2021
### 

@<TRIPOS>MOLECULE
5z5v_ligand
   35    37     1     0     0
SMALL
GAST_HUCK


@<TRIPOS>ATOM
      1 C1         -8.8410    5.9330    1.0570 C.ar      1 MOL        -0.0671
      2 C2         -9.3050    4.9850    1.9540 C.ar      1 MOL        -0.0752
      3 C3        -10.6300    4.5770    1.9440 C.ar      1 MOL        -0.0362
      4 C4        -11.4960    5.1400    1.0220 C.ar      1 MOL         0.1025
      5 C5        -11.0230    6.0900    0.1290 C.ar      1 MOL         0.0522
      6 C6         -9.6970    6.5040    0.1170 C.ar      1 MOL        -0.0042
      7 C7         -9.3310    7.4580   -0.8150 C.ar      1 MOL         0.0070
      8 C8        -10.2710    7.9480   -1.6950 C.ar      1 MOL        -0.0066
      9 C9        -11.5750    7.4990   -1.6350 C.ar      1 MOL         0.1244
     10 N10       -11.9060    6.5930   -0.7260 N.ar      1 MOL        -0.3036
     11 O11       -12.8460    4.7590    0.9730 O.3       1 MOL        -0.3315
     12 N12       -12.6210    7.9650   -2.5280 N.am      1 MOL        -0.2191
     13 C13        -7.8970    7.9800   -0.9320 C.3       1 MOL         0.0992
     14 N14        -7.3210    7.1830   -2.0060 N.pl3     1 MOL        -0.2381
     15 C15        -6.2900    6.2340   -1.8750 C.2       1 MOL         0.0997
     16 N16        -6.0530    5.6840   -3.1070 N.2       1 MOL        -0.3301
     17 C17        -6.9350    6.2660   -4.0110 C.2       1 MOL        -0.0234
     18 C18        -7.7090    7.1920   -3.3300 C.2       1 MOL         0.0388
     19 C19       -12.5790    9.1620   -3.3580 C.2       1 MOL         0.2061
     20 O20       -11.6430    9.8920   -3.3680 O.2       1 MOL        -0.3822
     21 C21       -13.7860    9.4810   -4.2350 C.3       1 MOL         0.0328
     22 H1         -7.8001    6.2342    1.0865 H         1 MOL         0.0518
     23 H2         -8.6205    4.5548    2.6761 H         1 MOL         0.0548
     24 H3        -10.9820    3.8299    2.6461 H         1 MOL         0.0517
     25 H4         -9.9863    8.6869   -2.4353 H         1 MOL         0.0540
     26 H5        -13.0140    4.1058    1.6421 H         1 MOL         0.2492
     27 H6        -13.4514    7.4102   -2.5783 H         1 MOL         0.2330
     28 H7         -7.3466    7.8263    0.0079 H         1 MOL         0.0830
     29 H8         -7.8895    9.0491   -1.1907 H         1 MOL         0.0830
     30 H9         -5.7699    5.9804   -0.9525 H         1 MOL         0.1217
     31 H10        -7.0054    6.0338   -5.0726 H         1 MOL         0.0444
     32 H11        -8.4876    7.8176   -3.7641 H         1 MOL         0.0862
     33 H12       -13.5975   10.4091   -4.7946 H         1 MOL         0.0473
     34 H13       -14.6760    9.6092   -3.6014 H         1 MOL         0.0473
     35 H14       -13.9547    8.6548   -4.9413 H         1 MOL         0.0473
@<TRIPOS>BOND
     1    1    2 ar 
     2    1    6 ar 
     3    2    3 ar 
     4    3    4 ar 
     5    4    5 ar 
     6    4   11 1  
     7    5    6 ar 
     8    5   10 ar 
     9    6    7 ar 
    10    7    8 ar 
    11    7   13 1  
    12    8    9 ar 
    13    9   10 ar 
    14    9   12 1  
    15   12   19 am 
    16   13   14 1  
    17   14   15 1  
    18   14   18 1  
    19   15   16 2  
    20   16   17 1  
    21   17   18 2  
    22   19   20 2  
    23   19   21 1  
    24    1   22 1  
    25    2   23 1  
    26    3   24 1  
    27    8   25 1  
    28   11   26 1  
    29   12   27 1  
    30   13   28 1  
    31   13   29 1  
    32   15   30 1  
    33   17   31 1  
    34   18   32 1  
    35   21   33 1  
    36   21   34 1  
    37   21   35 1  
@<TRIPOS>SUBSTRUCTURE
     1 MOL         1

