### 
### Created by X-TOOL on Mon Aug  2 16:12:23 2021
### 

@<TRIPOS>MOLECULE
5z66_ligand
   49    50     1     0     0
SMALL
GAST_HUCK


@<TRIPOS>ATOM
      1 O7        -13.9060  -18.0620  124.5350 O.3       1 VDM        -0.3839
      2 C7        -14.8590  -18.3570  123.5430 C.3       1 VDM         0.0719
      3 C5        -14.9360  -17.1620  122.5890 C.2       1 VDM        -0.0200
      4 C6        -15.7770  -16.1890  122.9290 C.2       1 VDM        -0.0543
      5 C4        -13.6540  -16.8550  121.8090 C.3       1 VDM         0.1112
      6 O4        -13.3230  -17.9420  120.9740 O.3       1 VDM        -0.3780
      7 C3        -13.7600  -15.5900  120.9600 C.3       1 VDM         0.1215
      8 O3        -12.4560  -15.2560  120.5540 O.3       1 VDM        -0.3843
      9 C2        -14.3970  -14.4660  121.7960 C.3       1 VDM         0.1303
     10 O2        -14.3850  -13.2550  121.0860 O.3       1 VDM        -0.3821
     11 C1        -15.8340  -14.8630  122.1680 C.3       1 VDM         0.0140
     12 N1'       -16.7060  -14.9850  120.9920 N.4       1 VDM         0.2414
     13 C1'       -17.8960  -15.8110  121.2290 C.3       1 VDM         0.0079
     14 C2'       -18.2670  -16.5970  119.9620 C.3       1 VDM         0.1257
     15 O2'       -17.1040  -17.1130  119.3590 O.3       1 VDM        -0.3835
     16 C6'       -19.0980  -15.0020  121.7760 C.3       1 VDM         0.0001
     17 C5'       -20.0630  -14.3790  120.7560 C.3       1 VDM         0.0159
     18 C7'       -21.4050  -14.0170  121.4010 C.3       1 VDM         0.0496
     19 O7'       -21.2100  -13.0030  122.3540 O.3       1 VDM        -0.3946
     20 C4'       -20.3530  -15.3040  119.5830 C.3       1 VDM         0.0888
     21 O4'       -21.1220  -14.5940  118.6430 O.3       1 VDM        -0.3888
     22 C3'       -19.0170  -15.7070  118.9690 C.3       1 VDM         0.1124
     23 O3'       -19.2610  -16.4290  117.8020 O.3       1 VDM        -0.3864
     24 H1        -13.0613  -17.9130  124.1267 H         1 VDM         0.2125
     25 H2        -15.8413  -18.5270  124.0080 H         1 VDM         0.0706
     26 H3        -14.5547  -19.2574  122.9893 H         1 VDM         0.0706
     27 H4        -16.4455  -16.3410  123.7751 H         1 VDM         0.0299
     28 H5        -12.8423  -16.7104  122.5371 H         1 VDM         0.0769
     29 H6        -13.1873  -18.7180  121.5050 H         1 VDM         0.2130
     30 H7        -14.3851  -15.7805  120.0752 H         1 VDM         0.0671
     31 H8        -12.4830  -14.4699  120.0211 H         1 VDM         0.2102
     32 H9        -13.8141  -14.3362  122.7198 H         1 VDM         0.0694
     33 H10       -14.8775  -13.3569  120.2800 H         1 VDM         0.2103
     34 H11       -16.2532  -14.0884  122.8269 H         1 VDM         0.0950
     35 H12       -16.1745  -15.3989  120.2422 H         1 VDM         0.2028
     36 H13       -17.0071  -14.0620  120.7209 H         1 VDM         0.2028
     37 H14       -17.6292  -16.5457  122.0030 H         1 VDM         0.0877
     38 H15       -18.9207  -17.4346  120.2468 H         1 VDM         0.0677
     39 H16       -16.5253  -16.3968  119.1254 H         1 VDM         0.2102
     40 H17       -18.6917  -14.1824  122.3868 H         1 VDM         0.0325
     41 H18       -19.6860  -15.6781  122.4140 H         1 VDM         0.0325
     42 H19       -19.5965  -13.4606  120.3701 H         1 VDM         0.0351
     43 H20       -21.8267  -14.9059  121.8930 H         1 VDM         0.0561
     44 H21       -22.1003  -13.6624  120.6259 H         1 VDM         0.0561
     45 H22       -20.8460  -12.2357  121.9283 H         1 VDM         0.2094
     46 H23       -20.8997  -16.1966  119.9211 H         1 VDM         0.0623
     47 H24       -21.3131  -15.1569  117.9020 H         1 VDM         0.2099
     48 H25       -18.4203  -14.8116  118.7404 H         1 VDM         0.0647
     49 H26       -18.4341  -16.6854  117.4108 H         1 VDM         0.2100
@<TRIPOS>BOND
     1    1    2 1  
     2    2    3 1  
     3    3    4 2  
     4    3    5 1  
     5    4   11 1  
     6    5    6 1  
     7    5    7 1  
     8    7    8 1  
     9    7    9 1  
    10    9   10 1  
    11    9   11 1  
    12   11   12 1  
    13   12   13 1  
    14   13   14 1  
    15   13   16 1  
    16   14   15 1  
    17   14   22 1  
    18   16   17 1  
    19   17   18 1  
    20   17   20 1  
    21   18   19 1  
    22   20   21 1  
    23   20   22 1  
    24   22   23 1  
    25    1   24 1  
    26    2   25 1  
    27    2   26 1  
    28    4   27 1  
    29    5   28 1  
    30    6   29 1  
    31    7   30 1  
    32    8   31 1  
    33    9   32 1  
    34   10   33 1  
    35   11   34 1  
    36   12   35 1  
    37   12   36 1  
    38   13   37 1  
    39   14   38 1  
    40   15   39 1  
    41   16   40 1  
    42   16   41 1  
    43   17   42 1  
    44   18   43 1  
    45   18   44 1  
    46   19   45 1  
    47   20   46 1  
    48   21   47 1  
    49   22   48 1  
    50   23   49 1  
@<TRIPOS>SUBSTRUCTURE
     1 VDM         1

