### 
### Created by X-TOOL on Wed Jan  1 15:39:36 2020
### 

@<TRIPOS>MOLECULE
5z7b_ligand
   19    19     1     0     0
SMALL
GAST_HUCK


@<TRIPOS>ATOM
      1 C1         36.7510   -3.5710   10.7760 C.ar      1 VNL        -0.0099
      2 CO1        35.6020   -4.2780   11.1230 C.ar      1 VNL        -0.0674
      3 CO2        37.2670   -2.5730   11.6210 C.ar      1 VNL        -0.0273
      4 CM1        34.9500   -4.0250   12.3210 C.ar      1 VNL        -0.0375
      5 CM2        36.6190   -2.2800   12.8360 C.ar      1 VNL         0.1228
      6 OM         37.0740   -1.3220   13.7100 O.3       1 VNL        -0.3243
      7 CZ         35.4080   -3.0400   13.1910 C.ar      1 VNL         0.1197
      8 CC         37.3940   -3.9060    9.4700 C.2       1 VNL         0.0531
      9 CV         38.3940   -0.7750   13.6090 C.3       1 VNL         0.0569
     10 O1         37.3710   -5.0470    9.0030 O.co2     1 VNL        -0.5637
     11 O2         38.0500   -2.8540    8.7370 O.co2     1 VNL        -0.5637
     12 O3         34.7240   -2.8070   14.3520 O.3       1 VNL        -0.3347
     13 H1         35.2134   -5.0337   10.4499 H         1 VNL         0.0531
     14 H2         38.1616   -2.0304   11.3377 H         1 VNL         0.0541
     15 H3         34.0711   -4.6028   12.5833 H         1 VNL         0.0518
     16 H4         38.5439   -0.0299   14.4042 H         1 VNL         0.0573
     17 H5         38.5174   -0.2937   12.6276 H         1 VNL         0.0573
     18 H6         39.1343   -1.5813   13.7177 H         1 VNL         0.0573
     19 H7         33.9774   -3.3925   14.4013 H         1 VNL         0.2455
@<TRIPOS>BOND
     1    1    2 ar 
     2    1    3 ar 
     3    1    8 1  
     4    2    4 ar 
     5    3    5 ar 
     6    4    7 ar 
     7    5    6 1  
     8    5    7 ar 
     9    6    9 1  
    10    7   12 1  
    11    8   10 ar 
    12    8   11 ar 
    13    2   13 1  
    14    3   14 1  
    15    4   15 1  
    16    9   16 1  
    17    9   17 1  
    18    9   18 1  
    19   12   19 1  
@<TRIPOS>SUBSTRUCTURE
     1 VNL         1

