### 
### Created by X-TOOL on Wed Jan  1 15:39:35 2020
### 

@<TRIPOS>MOLECULE
5z7j_ligand
   47    48     1     0     0
SMALL
GAST_HUCK


@<TRIPOS>ATOM
      1 CAO        -8.2570    4.1020    5.9780 C.3       1 36J        -0.0268
      2 CAL        -7.9200    2.6250    6.1300 C.3       1 36J        -0.0481
      3 CAM        -9.0980    1.7640    6.5670 C.3       1 36J        -0.0225
      4 CAV        -8.9900    0.2850    6.2490 C.3       1 36J         0.0831
      5 CAA        -7.5680   -0.2120    6.1590 C.3       1 36J        -0.0344
      6 OAP        -9.6340    0.1210    4.9350 O.3       1 36J        -0.2789
      7 CAQ        -9.8630   -1.1300    4.5140 C.2       1 36J         0.2447
      8 OAB       -10.1080   -2.0310    5.2710 O.2       1 36J        -0.3723
      9 CAU        -9.7570   -1.3140    3.0490 C.ar      1 36J         0.0770
     10 CAS        -9.4190   -2.6100    2.5940 C.ar      1 36J         0.0976
     11 OAD        -9.2160   -3.6170    3.4710 O.3       1 36J        -0.3313
     12 CAH        -9.2900   -2.8820    1.2460 C.ar      1 36J        -0.0032
     13 CAR        -9.4990   -1.8740    0.3180 C.ar      1 36J         0.0800
     14 OAC        -9.3720   -2.1340   -1.0120 O.3       1 36J        -0.3337
     15 CAI        -9.8330   -0.5910    0.7290 C.ar      1 36J        -0.0390
     16 CAT        -9.9700   -0.2900    2.0830 C.ar      1 36J        -0.0374
     17 CAG       -10.3220    1.0890    2.4460 C.2       1 36J        -0.0669
     18 CAF       -10.7480    2.0250    1.6200 C.2       1 36J        -0.0708
     19 CAJ       -11.2590    3.3710    2.0190 C.3       1 36J        -0.0187
     20 CAK       -10.1840    4.2870    2.5840 C.3       1 36J        -0.0383
     21 CAN        -9.9030    4.0330    4.0560 C.3       1 36J        -0.0244
     22 CAW        -8.5720    4.5520    4.5590 C.3       1 36J         0.0555
     23 OAE        -8.5590    5.9870    4.4850 O.3       1 36J        -0.3918
     24 H1         -7.3968    4.6860    6.3371 H         1 36J         0.0290
     25 H2         -9.1342    4.3173    6.6058 H         1 36J         0.0290
     26 H3         -7.1225    2.5274    6.8813 H         1 36J         0.0267
     27 H4         -7.5586    2.2509    5.1608 H         1 36J         0.0267
     28 H5        -10.0006    2.1505    6.0711 H         1 36J         0.0293
     29 H6         -9.2055    1.8676    7.6568 H         1 36J         0.0293
     30 H7         -9.5229   -0.2966    7.0157 H         1 36J         0.0644
     31 H8         -7.5694   -1.2872    5.9268 H         1 36J         0.0258
     32 H9         -7.0597   -0.0451    7.1201 H         1 36J         0.0258
     33 H10        -7.0383    0.3339    5.3644 H         1 36J         0.0258
     34 H11       -10.0062   -3.7567    3.9795 H         1 36J         0.2505
     35 H12        -9.0263   -3.8800    0.9151 H         1 36J         0.0445
     36 H13        -9.5472   -1.3419   -1.5065 H         1 36J         0.2495
     37 H14        -9.9890    0.1854   -0.0112 H         1 36J         0.0426
     38 H15       -10.2219    1.3643    3.4949 H         1 36J         0.0434
     39 H16       -10.7253    1.7970    0.5554 H         1 36J         0.0767
     40 H17       -12.0373    3.2348    2.7843 H         1 36J         0.0475
     41 H18       -11.6966    3.8537    1.1327 H         1 36J         0.0475
     42 H19       -10.5133    5.3297    2.4646 H         1 36J         0.0296
     43 H20        -9.2547    4.1287    2.0171 H         1 36J         0.0296
     44 H21        -9.9299    2.9464    4.2247 H         1 36J         0.0292
     45 H22       -10.6993    4.5149    4.6422 H         1 36J         0.0292
     46 H23        -7.7842    4.1606    3.8986 H         1 36J         0.0593
     47 H24        -7.7238    6.3117    4.8007 H         1 36J         0.2098
@<TRIPOS>BOND
     1    1    2 1  
     2    1   22 1  
     3    2    3 1  
     4    3    4 1  
     5    4    5 1  
     6    4    6 1  
     7    6    7 1  
     8    7    8 2  
     9    7    9 1  
    10    9   10 ar 
    11    9   16 ar 
    12   10   11 1  
    13   10   12 ar 
    14   12   13 ar 
    15   13   14 1  
    16   13   15 ar 
    17   15   16 ar 
    18   16   17 1  
    19   17   18 2  
    20   18   19 1  
    21   19   20 1  
    22   20   21 1  
    23   21   22 1  
    24   22   23 1  
    25    1   24 1  
    26    1   25 1  
    27    2   26 1  
    28    2   27 1  
    29    3   28 1  
    30    3   29 1  
    31    4   30 1  
    32    5   31 1  
    33    5   32 1  
    34    5   33 1  
    35   11   34 1  
    36   12   35 1  
    37   14   36 1  
    38   15   37 1  
    39   17   38 1  
    40   18   39 1  
    41   19   40 1  
    42   19   41 1  
    43   20   42 1  
    44   20   43 1  
    45   21   44 1  
    46   21   45 1  
    47   22   46 1  
    48   23   47 1  
@<TRIPOS>SUBSTRUCTURE
     1 36J         1

