### 
### Created by X-TOOL on Wed Jan  1 15:39:34 2020
### 

@<TRIPOS>MOLECULE
5z89_ligand
   75    75     1     0     0
SMALL
GAST_HUCK


@<TRIPOS>ATOM
      1 C12       -26.1090   30.1630   15.7980 C.3       1 EGC         0.0365
      2 C14       -24.2770   31.6860   15.8560 C.3       1 EGC         0.0706
      3 C15       -22.7760   31.6480   15.5640 C.3       1 EGC         0.0711
      4 C17       -21.1430   31.2260   13.8630 C.3       1 EGC         0.0711
      5 C18       -20.9310   30.9240   12.3860 C.3       1 EGC         0.0711
      6 C20       -18.6360   30.0110   12.5750 C.3       1 EGC         0.0711
      7 C21       -18.1920   28.7200   13.2640 C.3       1 EGC         0.0711
      8 C23       -18.3860   26.3810   12.6690 C.3       1 EGC         0.0711
      9 C24       -17.9570   25.4290   11.5510 C.3       1 EGC         0.0711
     10 C26       -16.1670   23.8580   11.0080 C.3       1 EGC         0.0771
     11 C27       -14.9690   24.4840   10.3520 C.3       1 EGC         0.1029
     12 C29       -14.4630   26.3770    8.9010 C.ar      1 EGC         0.1291
     13 C30       -14.9290   27.5240    8.3420 C.ar      1 EGC         0.0013
     14 C31       -14.0810   28.3100    7.5540 C.ar      1 EGC        -0.0461
     15 C32       -12.7430   27.9540    7.3440 C.ar      1 EGC        -0.0623
     16 C33       -12.3070   26.7740    7.9180 C.ar      1 EGC        -0.0461
     17 C34       -13.1320   25.9930    8.7140 C.ar      1 EGC         0.0013
     18 C35       -11.8220   28.7830    6.5020 C.3       1 EGC        -0.0537
     19 C36       -12.5070   29.9830    5.8790 C.3       1 EGC        -0.0901
     20 C37       -11.3950   27.9290    5.2890 C.3       1 EGC        -0.0901
     21 C38       -10.4980   29.1510    7.2430 C.3       1 EGC        -0.0733
     22 C39       -10.4450   29.9900    8.5380 C.3       1 EGC        -0.0462
     23 C40        -9.0310   29.9640    9.0480 C.3       1 EGC        -0.0609
     24 C41       -10.8110   31.4440    8.2560 C.3       1 EGC        -0.0609
     25 C42       -11.2520   29.3880    9.7030 C.3       1 EGC        -0.0609
     26 O13       -24.7350   30.3650   16.1630 O.3       1 EGC        -0.3807
     27 O16       -22.5240   31.2320   14.2160 O.3       1 EGC        -0.3752
     28 O19       -20.0000   29.8450   12.1780 O.3       1 EGC        -0.3752
     29 O22       -18.0560   27.6980   12.2690 O.3       1 EGC        -0.3752
     30 O25       -16.7560   24.7520   11.9730 O.3       1 EGC        -0.3747
     31 O28       -15.3720   25.6630    9.6470 O.3       1 EGC        -0.2908
     32 H1        -26.4093   29.1363   16.0542 H         1 EGC         0.0524
     33 H2        -26.2279   30.3205   14.7159 H         1 EGC         0.0524
     34 H3        -26.7424   30.8774   16.3443 H         1 EGC         0.0524
     35 H4        -24.8132   32.0644   14.9732 H         1 EGC         0.0582
     36 H5        -24.4676   32.3489   16.7129 H         1 EGC         0.0582
     37 H6        -22.2932   30.9408   16.2546 H         1 EGC         0.0583
     38 H7        -22.3549   32.6530   15.7146 H         1 EGC         0.0583
     39 H8        -20.7151   32.2140   14.0881 H         1 EGC         0.0583
     40 H9        -20.6278   30.4587   14.4595 H         1 EGC         0.0583
     41 H10       -20.5424   31.8269   11.8923 H         1 EGC         0.0583
     42 H11       -21.8975   30.6487   11.9387 H         1 EGC         0.0583
     43 H12       -18.0088   30.1988   11.6911 H         1 EGC         0.0583
     44 H13       -18.5492   30.8570   13.2727 H         1 EGC         0.0583
     45 H14       -18.9453   28.4174   14.0063 H         1 EGC         0.0583
     46 H15       -17.2264   28.8802   13.7658 H         1 EGC         0.0583
     47 H16       -17.8553   26.1288   13.5989 H         1 EGC         0.0583
     48 H17       -19.4708   26.3008   12.8325 H         1 EGC         0.0583
     49 H18       -17.7595   25.9993   10.6314 H         1 EGC         0.0583
     50 H19       -18.7527   24.6932   11.3625 H         1 EGC         0.0583
     51 H20       -15.8560   22.9340   11.5173 H         1 EGC         0.0588
     52 H21       -16.9144   23.6182   10.2374 H         1 EGC         0.0588
     53 H22       -14.5226   23.7690    9.6453 H         1 EGC         0.0656
     54 H23       -14.2284   24.7514   11.1201 H         1 EGC         0.0656
     55 H24       -15.9559   27.8298    8.5061 H         1 EGC         0.0651
     56 H25       -14.4678   29.2134    7.0965 H         1 EGC         0.0823
     57 H26       -11.2883   26.4490    7.7403 H         1 EGC         0.0823
     58 H27       -12.7490   25.0953    9.1856 H         1 EGC         0.0651
     59 H28       -11.7806   30.5478    5.2762 H         1 EGC         0.0117
     60 H29       -12.9064   30.6306    6.6734 H         1 EGC         0.0117
     61 H30       -13.3310   29.6416    5.2352 H         1 EGC         0.0117
     62 H31       -10.8817   27.0222    5.6415 H         1 EGC         0.0117
     63 H32       -10.7135   28.5118    4.6519 H         1 EGC         0.0117
     64 H33       -12.2854   27.6443    4.7093 H         1 EGC         0.0117
     65 H34        -9.8850   29.6944    6.5089 H         1 EGC         0.0159
     66 H35       -10.0151   28.1932    7.4868 H         1 EGC         0.0159
     67 H36        -8.9639   30.5557    9.9729 H         1 EGC         0.0235
     68 H37        -8.3596   30.3923    8.2892 H         1 EGC         0.0235
     69 H38        -8.7349   28.9251    9.2552 H         1 EGC         0.0235
     70 H39       -11.8435   31.4959    7.8802 H         1 EGC         0.0235
     71 H40       -10.1249   31.8550    7.5008 H         1 EGC         0.0235
     72 H41       -10.7286   32.0294    9.1836 H         1 EGC         0.0235
     73 H42       -10.9464   28.3429    9.8592 H         1 EGC         0.0235
     74 H43       -12.3249   29.4243    9.4632 H         1 EGC         0.0235
     75 H44       -11.0611   29.9666   10.6189 H         1 EGC         0.0235
@<TRIPOS>BOND
     1   26    1 1  
     2    3    2 1  
     3    2   26 1  
     4   27    3 1  
     5    5    4 1  
     6    4   27 1  
     7   28    5 1  
     8    7    6 1  
     9    6   28 1  
    10   29    7 1  
    11    9    8 1  
    12    8   29 1  
    13   30    9 1  
    14   11   10 1  
    15   10   30 1  
    16   31   11 1  
    17   12   13 ar 
    18   12   17 ar 
    19   12   31 1  
    20   13   14 ar 
    21   14   15 ar 
    22   15   16 ar 
    23   15   18 1  
    24   16   17 ar 
    25   18   19 1  
    26   18   20 1  
    27   18   21 1  
    28   21   22 1  
    29   22   23 1  
    30   22   24 1  
    31   22   25 1  
    32    1   32 1  
    33    1   33 1  
    34    1   34 1  
    35    2   35 1  
    36    2   36 1  
    37    3   37 1  
    38    3   38 1  
    39    4   39 1  
    40    4   40 1  
    41    5   41 1  
    42    5   42 1  
    43    6   43 1  
    44    6   44 1  
    45    7   45 1  
    46    7   46 1  
    47    8   47 1  
    48    8   48 1  
    49    9   49 1  
    50    9   50 1  
    51   10   51 1  
    52   10   52 1  
    53   11   53 1  
    54   11   54 1  
    55   13   55 1  
    56   14   56 1  
    57   16   57 1  
    58   17   58 1  
    59   19   59 1  
    60   19   60 1  
    61   19   61 1  
    62   20   62 1  
    63   20   63 1  
    64   20   64 1  
    65   21   65 1  
    66   21   66 1  
    67   23   67 1  
    68   23   68 1  
    69   23   69 1  
    70   24   70 1  
    71   24   71 1  
    72   24   72 1  
    73   25   73 1  
    74   25   74 1  
    75   25   75 1  
@<TRIPOS>SUBSTRUCTURE
     1 EGC         1

