### 
### Created by X-TOOL on Wed Jan  1 15:39:34 2020
### 

@<TRIPOS>MOLECULE
5z95_ligand
   75    75     1     0     0
SMALL
GAST_HUCK


@<TRIPOS>ATOM
      1 C12       -26.3860   31.4180   28.6200 C.3       1 EGC         0.0365
      2 C14       -24.0140   31.6570   28.9870 C.3       1 EGC         0.0706
      3 C15       -23.0760   30.8110   28.1080 C.3       1 EGC         0.0711
      4 C17       -21.0150   31.4160   26.8340 C.3       1 EGC         0.0711
      5 C18       -20.9180   30.6530   25.5120 C.3       1 EGC         0.0711
      6 C20       -18.7120   29.7590   25.6930 C.3       1 EGC         0.0711
      7 C21       -18.0640   28.6000   26.4260 C.3       1 EGC         0.0711
      8 C23       -18.4090   26.2630   26.0170 C.3       1 EGC         0.0711
      9 C24       -18.0130   25.1790   25.0260 C.3       1 EGC         0.0711
     10 C26       -16.1750   23.8090   24.2870 C.3       1 EGC         0.0771
     11 C27       -14.9440   24.3970   23.6180 C.3       1 EGC         0.1029
     12 C29       -14.3490   26.2980   22.1580 C.ar      1 EGC         0.1291
     13 C30       -13.0140   25.8790   21.9710 C.ar      1 EGC         0.0013
     14 C31       -12.1220   26.6550   21.2090 C.ar      1 EGC        -0.0461
     15 C32       -12.5090   27.9050   20.6990 C.ar      1 EGC        -0.0623
     16 C33       -13.8720   28.2870   20.8760 C.ar      1 EGC        -0.0461
     17 C34       -14.7700   27.4970   21.5980 C.ar      1 EGC         0.0013
     18 C35       -11.6230   28.7580   19.8660 C.3       1 EGC        -0.0537
     19 C36       -12.3660   29.9520   19.2430 C.3       1 EGC        -0.0901
     20 C37       -11.3710   27.8830   18.6170 C.3       1 EGC        -0.0901
     21 C38       -10.2270   29.0760   20.5490 C.3       1 EGC        -0.0733
     22 C39       -10.1070   30.1320   21.5940 C.3       1 EGC        -0.0462
     23 C40       -11.0360   29.7620   22.7580 C.3       1 EGC        -0.0609
     24 C41       -10.3950   31.5560   21.0540 C.3       1 EGC        -0.0609
     25 C42        -8.6510   30.0140   22.1100 C.3       1 EGC        -0.0609
     26 O13       -25.2170   30.9560   29.3480 O.3       1 EGC        -0.3807
     27 O16       -22.3840   31.6770   27.1670 O.3       1 EGC        -0.3752
     28 O19       -20.1180   29.4970   25.6880 O.3       1 EGC        -0.3752
     29 O22       -17.9470   27.5110   25.5010 O.3       1 EGC        -0.3752
     30 O25       -16.6720   24.7470   25.2670 O.3       1 EGC        -0.3747
     31 O28       -15.2900   25.5920   22.8850 O.3       1 EGC        -0.2908
     32 H1        -27.2681   30.8445   28.9409 H         1 EGC         0.0524
     33 H2        -26.2271   31.2732   27.5412 H         1 EGC         0.0524
     34 H3        -26.5482   32.4862   28.8266 H         1 EGC         0.0524
     35 H4        -24.2893   32.5670   28.4338 H         1 EGC         0.0582
     36 H5        -23.4789   31.9349   29.9070 H         1 EGC         0.0582
     37 H6        -23.6653   30.0648   27.5549 H         1 EGC         0.0583
     38 H7        -22.3398   30.2984   28.7445 H         1 EGC         0.0583
     39 H8        -20.4775   32.3711   26.7403 H         1 EGC         0.0583
     40 H9        -20.5571   30.8144   27.6330 H         1 EGC         0.0583
     41 H10       -20.4626   31.3004   24.7482 H         1 EGC         0.0583
     42 H11       -21.9256   30.3548   25.1866 H         1 EGC         0.0583
     43 H12       -18.3322   29.8176   24.6623 H         1 EGC         0.0583
     44 H13       -18.5029   30.7043   26.2152 H         1 EGC         0.0583
     45 H14       -18.6888   28.3005   27.2803 H         1 EGC         0.0583
     46 H15       -17.0672   28.8945   26.7861 H         1 EGC         0.0583
     47 H16       -17.9435   26.0660   26.9939 H         1 EGC         0.0583
     48 H17       -19.5029   26.2861   26.1300 H         1 EGC         0.0583
     49 H18       -18.0865   25.5785   24.0038 H         1 EGC         0.0583
     50 H19       -18.6944   24.3224   25.1348 H         1 EGC         0.0583
     51 H20       -15.9090   22.8639   24.7831 H         1 EGC         0.0588
     52 H21       -16.9510   23.6204   23.5306 H         1 EGC         0.0588
     53 H22       -14.5204   23.6563   22.9238 H         1 EGC         0.0656
     54 H23       -14.1984   24.6471   24.3871 H         1 EGC         0.0656
     55 H24       -12.6736   24.9520   22.4181 H         1 EGC         0.0651
     56 H25       -11.1228   26.2833   21.0128 H         1 EGC         0.0823
     57 H26       -14.2204   29.2155   20.4384 H         1 EGC         0.0823
     58 H27       -15.7972   27.8205   21.7213 H         1 EGC         0.0651
     59 H28       -11.6641   30.5462   18.6395 H         1 EGC         0.0117
     60 H29       -12.7853   30.5805   20.0424 H         1 EGC         0.0117
     61 H30       -13.1799   29.5832   18.6015 H         1 EGC         0.0117
     62 H31       -10.8337   26.9695   18.9117 H         1 EGC         0.0117
     63 H32       -10.7662   28.4459   17.8909 H         1 EGC         0.0117
     64 H33       -12.3337   27.6108   18.1597 H         1 EGC         0.0117
     65 H34        -9.5393   29.3586   19.7384 H         1 EGC         0.0159
     66 H35        -9.8839   28.1385   21.0109 H         1 EGC         0.0159
     67 H36       -10.9637   30.5292   23.5429 H         1 EGC         0.0235
     68 H37       -10.7372   28.7868   23.1699 H         1 EGC         0.0235
     69 H38       -12.0730   29.7048   22.3956 H         1 EGC         0.0235
     70 H39        -9.7088   31.7790   20.2237 H         1 EGC         0.0235
     71 H40       -10.2469   32.2905   21.8593 H         1 EGC         0.0235
     72 H41       -11.4336   31.6092   20.6956 H         1 EGC         0.0235
     73 H42        -8.4767   28.9950   22.4859 H         1 EGC         0.0235
     74 H43        -8.4904   30.7372   22.9231 H         1 EGC         0.0235
     75 H44        -7.9521   30.2258   21.2874 H         1 EGC         0.0235
@<TRIPOS>BOND
     1   26    1 1  
     2    3    2 1  
     3    2   26 1  
     4   27    3 1  
     5    5    4 1  
     6    4   27 1  
     7   28    5 1  
     8    7    6 1  
     9    6   28 1  
    10   29    7 1  
    11    9    8 1  
    12    8   29 1  
    13   30    9 1  
    14   11   10 1  
    15   10   30 1  
    16   31   11 1  
    17   12   13 ar 
    18   12   17 ar 
    19   12   31 1  
    20   13   14 ar 
    21   14   15 ar 
    22   15   16 ar 
    23   15   18 1  
    24   16   17 ar 
    25   18   19 1  
    26   18   20 1  
    27   18   21 1  
    28   21   22 1  
    29   22   23 1  
    30   22   24 1  
    31   22   25 1  
    32    1   32 1  
    33    1   33 1  
    34    1   34 1  
    35    2   35 1  
    36    2   36 1  
    37    3   37 1  
    38    3   38 1  
    39    4   39 1  
    40    4   40 1  
    41    5   41 1  
    42    5   42 1  
    43    6   43 1  
    44    6   44 1  
    45    7   45 1  
    46    7   46 1  
    47    8   47 1  
    48    8   48 1  
    49    9   49 1  
    50    9   50 1  
    51   10   51 1  
    52   10   52 1  
    53   11   53 1  
    54   11   54 1  
    55   13   55 1  
    56   14   56 1  
    57   16   57 1  
    58   17   58 1  
    59   19   59 1  
    60   19   60 1  
    61   19   61 1  
    62   20   62 1  
    63   20   63 1  
    64   20   64 1  
    65   21   65 1  
    66   21   66 1  
    67   23   67 1  
    68   23   68 1  
    69   23   69 1  
    70   24   70 1  
    71   24   71 1  
    72   24   72 1  
    73   25   73 1  
    74   25   74 1  
    75   25   75 1  
@<TRIPOS>SUBSTRUCTURE
     1 EGC         1

