### 
### Created by X-TOOL on Wed Jan  1 15:39:35 2020
### 

@<TRIPOS>MOLECULE
5z99_ligand
   39    39     1     0     0
SMALL
GAST_HUCK


@<TRIPOS>ATOM
      1 C1          7.9860   37.0870   -4.3870 C.2       1 SLB         0.1039
      2 C2          7.1590   37.6830   -3.2680 C.3       1 SLB         0.2179
      3 C3          7.6310   39.0740   -2.9000 C.3       1 SLB         0.0351
      4 C4          6.8540   39.5500   -1.7430 C.3       1 SLB         0.0850
      5 C5          6.9800   38.6040   -0.5640 C.3       1 SLB         0.0964
      6 C6          6.6430   37.1670   -0.9440 C.3       1 SLB         0.1143
      7 C7          7.0070   36.1740    0.1340 C.3       1 SLB         0.1114
      8 C8          6.6440   34.7450   -0.3200 C.3       1 SLB         0.1065
      9 C9          6.9200   33.7240    0.7910 C.3       1 SLB         0.0727
     10 C10         6.3480   39.7730    1.6110 C.2       1 SLB         0.1733
     11 C11         5.2240   40.1120    2.5730 C.3       1 SLB         0.0257
     12 N5          5.9920   38.9900    0.4550 N.am      1 SLB        -0.2790
     13 O1A         7.5530   37.1650   -5.5660 O.co2     1 SLB        -0.5426
     14 O1B         9.0800   36.5180   -4.1110 O.co2     1 SLB        -0.5426
     15 O2          5.8320   37.7090   -3.6290 O.3       1 SLB        -0.3631
     16 O4          7.3050   40.8960   -1.3810 O.3       1 SLB        -0.3893
     17 O6          7.3680   36.7470   -2.1270 O.3       1 SLB        -0.3385
     18 O7          8.3920   36.2160    0.4350 O.3       1 SLB        -0.3865
     19 O8          5.2900   34.7000   -0.7170 O.3       1 SLB        -0.3869
     20 O9          6.0980   33.9680    1.9070 O.3       1 SLB        -0.3924
     21 O10         7.4720   40.1390    1.7990 O.2       1 SLB        -0.3974
     22 H1          7.4788   39.7532   -3.7518 H         1 SLB         0.0336
     23 H2          8.6996   39.0449   -2.6406 H         1 SLB         0.0336
     24 H3          5.7936   39.6003   -2.0312 H         1 SLB         0.0618
     25 H4          8.0008   38.6574   -0.1577 H         1 SLB         0.0608
     26 H5          5.5617   37.1101   -1.1375 H         1 SLB         0.0646
     27 H6          6.4383   36.4194    1.0430 H         1 SLB         0.0647
     28 H7          7.2699   34.4867   -1.1869 H         1 SLB         0.0643
     29 H8          7.9742   33.7985    1.0960 H         1 SLB         0.0584
     30 H9          6.7194   32.7121    0.4093 H         1 SLB         0.0584
     31 H10         5.6226   40.7082    3.4071 H         1 SLB         0.0467
     32 H11         4.7833   39.1831    2.9640 H         1 SLB         0.0467
     33 H12         4.4515   40.6905    2.0452 H         1 SLB         0.0467
     34 H13         5.0419   38.6994    0.3418 H         1 SLB         0.1856
     35 H14         5.7145   38.3089   -4.3562 H         1 SLB         0.2112
     36 H15         6.7736   41.2251   -0.6656 H         1 SLB         0.2099
     37 H16         8.8906   35.9863   -0.3404 H         1 SLB         0.2100
     38 H17         4.7358   34.9002    0.0282 H         1 SLB         0.2100
     39 H18         5.1864   33.9016    1.6480 H         1 SLB         0.2095
@<TRIPOS>BOND
     1    2    1 1  
     2    1   13 ar 
     3    1   14 ar 
     4    3    2 1  
     5    2   15 1  
     6   17    2 1  
     7    4    3 1  
     8    5    4 1  
     9    4   16 1  
    10    5    6 1  
    11   12    5 1  
    12    6    7 1  
    13    6   17 1  
    14    7    8 1  
    15    7   18 1  
    16    8    9 1  
    17    8   19 1  
    18    9   20 1  
    19   10   11 1  
    20   10   12 am 
    21   10   21 2  
    22    3   22 1  
    23    3   23 1  
    24    4   24 1  
    25    5   25 1  
    26    6   26 1  
    27    7   27 1  
    28    8   28 1  
    29    9   29 1  
    30    9   30 1  
    31   11   31 1  
    32   11   32 1  
    33   11   33 1  
    34   12   34 1  
    35   15   35 1  
    36   16   36 1  
    37   18   37 1  
    38   19   38 1  
    39   20   39 1  
@<TRIPOS>SUBSTRUCTURE
     1 SLB         1

