### 
### Created by X-TOOL on Wed Jan  1 15:39:37 2020
### 

@<TRIPOS>MOLECULE
5z9e_ligand
   28    28     1     0     0
SMALL
GAST_HUCK


@<TRIPOS>ATOM
      1 CAA        19.4310   26.7550   21.7910 C.3       1 27K        -0.0652
      2 CAH        19.2990   25.4540   21.0150 C.3       1 27K        -0.0535
      3 CAI        20.5040   25.1650   20.1340 C.3       1 27K        -0.0254
      4 CAJ        20.4150   23.8850   19.3390 C.3       1 27K         0.0755
      5 OAK        21.6490   23.1440   19.5430 O.3       1 27K        -0.2791
      6 CAL        21.8030   21.9800   18.8950 C.2       1 27K         0.2548
      7 OAB        20.9860   21.5300   18.1290 O.2       1 27K        -0.3624
      8 CAN        23.1200   21.3400   19.1820 C.ar      1 27K         0.0506
      9 CAF        24.1060   21.9910   19.9240 C.ar      1 27K        -0.0491
     10 CAD        25.3770   21.4550   20.0400 C.ar      1 27K        -0.0268
     11 CAM        25.6790   20.2470   19.4270 C.ar      1 27K         0.0934
     12 OAC        26.9360   19.7230   19.5160 O.3       1 27K        -0.3294
     13 CAE        24.6990   19.5740   18.7100 C.ar      1 27K        -0.0268
     14 CAG        23.4320   20.1160   18.5920 C.ar      1 27K        -0.0491
     15 H1         18.5323   26.9074   22.4067 H         1 27K         0.0230
     16 H2         19.5392   27.5928   21.0865 H         1 27K         0.0230
     17 H3         20.3169   26.7059   22.4412 H         1 27K         0.0230
     18 H4         18.4048   25.5149   20.3773 H         1 27K         0.0263
     19 H5         19.1825   24.6280   21.7320 H         1 27K         0.0263
     20 H6         21.3931   25.1060   20.7790 H         1 27K         0.0291
     21 H7         20.6188   25.9996   19.4268 H         1 27K         0.0291
     22 H8         20.2907   24.1166   18.2709 H         1 27K         0.0611
     23 H9         19.5591   23.2880   19.6868 H         1 27K         0.0611
     24 H10        23.8738   22.9286   20.4160 H         1 27K         0.0645
     25 H11        26.1363   21.9787   20.6095 H         1 27K         0.0557
     26 H12        27.1520   19.5743   20.4291 H         1 27K         0.2502
     27 H13        24.9270   18.6230   18.2423 H         1 27K         0.0557
     28 H14        22.6717   19.5821   18.0335 H         1 27K         0.0645
@<TRIPOS>BOND
     1    1    2 1  
     2    2    3 1  
     3    3    4 1  
     4    4    5 1  
     5    5    6 1  
     6    6    7 2  
     7    6    8 1  
     8    8    9 ar 
     9    8   14 ar 
    10    9   10 ar 
    11   10   11 ar 
    12   11   12 1  
    13   11   13 ar 
    14   13   14 ar 
    15    1   15 1  
    16    1   16 1  
    17    1   17 1  
    18    2   18 1  
    19    2   19 1  
    20    3   20 1  
    21    3   21 1  
    22    4   22 1  
    23    4   23 1  
    24    9   24 1  
    25   10   25 1  
    26   12   26 1  
    27   13   27 1  
    28   14   28 1  
@<TRIPOS>SUBSTRUCTURE
     1 27K         1

