### 
### Created by X-TOOL on Wed Jan  1 15:39:36 2020
### 

@<TRIPOS>MOLECULE
5za1_ligand
   61    63     1     0     0
SMALL
GAST_HUCK


@<TRIPOS>ATOM
      1 C10       -14.0260   23.7430  -29.8280 C.3       1 9A0         0.0806
      2 C11       -15.4300   24.2490  -29.6370 C.2       1 9A0         0.2337
      3 C14       -17.8060   24.1030  -30.5690 C.ar      1 9A0         0.1122
      4 C15       -18.4550   24.8570  -29.6500 C.ar      1 9A0        -0.0032
      5 O24       -23.0190   26.8960  -30.0390 O.2       1 9A0        -0.3661
      6 C23       -22.3020   26.4210  -30.8950 C.2       1 9A0         0.1722
      7 N25       -21.6560   27.2300  -31.8950 N.am      1 9A0        -0.2444
      8 C26       -21.7690   28.6440  -31.9530 C.ar      1 9A0         0.0659
      9 C31       -20.6350   29.3600  -32.2860 C.ar      1 9A0        -0.0407
     10 C30       -20.6740   30.7230  -32.3660 C.ar      1 9A0        -0.0752
     11 C29       -21.8390   31.4060  -32.1270 C.ar      1 9A0        -0.0769
     12 C28       -22.9930   30.7130  -31.7920 C.ar      1 9A0        -0.0752
     13 C27       -22.9520   29.3260  -31.7130 C.ar      1 9A0        -0.0407
     14 C20       -22.0810   24.9090  -30.9500 C.3       1 9A0         0.0187
     15 C21       -22.7060   24.2350  -29.7110 C.3       1 9A0        -0.0886
     16 C22       -22.7590   24.4440  -32.2390 C.3       1 9A0        -0.0886
     17 C17       -20.5700   24.5970  -30.8880 C.ar      1 9A0        -0.0645
     18 C16       -19.8120   25.0840  -29.8300 C.ar      1 9A0        -0.0506
     19 C18       -19.9030   23.8420  -31.8210 C.ar      1 9A0        -0.0506
     20 C19       -18.5540   23.6080  -31.6510 C.ar      1 9A0        -0.0032
     21 N13       -16.4120   23.7460  -30.5480 N.am      1 9A0        -0.2044
     22 O12       -15.6820   25.0470  -28.7470 O.2       1 9A0        -0.3712
     23 C09       -13.3180   24.7880  -30.6220 C.ar      1 9A0        -0.0233
     24 C08       -12.4140   25.6230  -29.9240 C.ar      1 9A0        -0.0561
     25 C07       -11.7480   26.5820  -30.6230 C.ar      1 9A0        -0.0433
     26 C32       -13.5560   24.9350  -31.9880 C.ar      1 9A0        -0.0561
     27 C33       -12.8460   25.9220  -32.6620 C.ar      1 9A0        -0.0433
     28 C06       -11.9320   26.7500  -31.9980 C.ar      1 9A0         0.0815
     29 S03       -11.0710   28.1120  -32.8020 S.o2      1 9A0        -0.0061
     30 O04       -11.1210   28.0360  -34.2230 O.2       1 9A0        -0.1702
     31 O05        -9.6840   28.0840  -32.4560 O.2       1 9A0        -0.1702
     32 C02       -11.5820   29.6690  -32.1670 C.3       1 9A0         0.0672
     33 C01       -13.0760   29.7960  -32.2070 C.3       1 9A0        -0.0454
     34 H1        -14.0346   22.7882  -30.3742 H         1 9A0         0.0669
     35 H2        -13.5338   23.6039  -28.8541 H         1 9A0         0.0669
     36 H3        -17.9290   25.2716  -28.7976 H         1 9A0         0.0637
     37 H4        -21.0975   26.7713  -32.5862 H         1 9A0         0.2254
     38 H5        -19.7073   28.8359  -32.4853 H         1 9A0         0.0505
     39 H6        -19.7742   31.2709  -32.6212 H         1 9A0         0.0578
     40 H7        -21.8580   32.4874  -32.1999 H         1 9A0         0.0490
     41 H8        -23.9155   31.2467  -31.5942 H         1 9A0         0.0578
     42 H9        -23.8506   28.7740  -31.4622 H         1 9A0         0.0505
     43 H10       -23.7898   24.4229  -29.6990 H         1 9A0         0.0089
     44 H11       -22.2518   24.6503  -28.7993 H         1 9A0         0.0089
     45 H12       -22.5222   23.1512  -29.7513 H         1 9A0         0.0089
     46 H13       -22.2903   24.9426  -33.1002 H         1 9A0         0.0089
     47 H14       -23.8281   24.7004  -32.2041 H         1 9A0         0.0089
     48 H15       -22.6463   23.3545  -32.3402 H         1 9A0         0.0089
     49 H16       -20.3204   25.6883  -29.0875 H         1 9A0         0.0800
     50 H17       -20.4283   23.4361  -32.6780 H         1 9A0         0.0800
     51 H18       -18.0417   23.0081  -32.3945 H         1 9A0         0.0637
     52 H19       -16.1014   23.0863  -31.2324 H         1 9A0         0.2504
     53 H20       -12.2558   25.5018  -28.8585 H         1 9A0         0.0561
     54 H21       -11.0567   27.2325  -30.0995 H         1 9A0         0.0619
     55 H22       -14.2685   24.3028  -32.5054 H         1 9A0         0.0561
     56 H23       -13.0034   26.0539  -33.7264 H         1 9A0         0.0619
     57 H24       -11.1356   30.4703  -32.7742 H         1 9A0         0.0500
     58 H25       -11.2398   29.7638  -31.1259 H         1 9A0         0.0500
     59 H26       -13.3715   30.7765  -31.8054 H         1 9A0         0.0245
     60 H27       -13.5282   28.9991  -31.5983 H         1 9A0         0.0245
     61 H28       -13.4240   29.7056  -33.2466 H         1 9A0         0.0245
@<TRIPOS>BOND
     1    2    1 1  
     2    1   23 1  
     3   21    2 am 
     4    2   22 2  
     5    4    3 ar 
     6    3   20 ar 
     7    3   21 1  
     8   18    4 ar 
     9    6    5 2  
    10    6    7 am 
    11   14    6 1  
    12    7    8 1  
    13    8    9 ar 
    14    8   13 ar 
    15    9   10 ar 
    16   10   11 ar 
    17   12   11 ar 
    18   13   12 ar 
    19   14   15 1  
    20   14   16 1  
    21   17   14 1  
    22   17   18 ar 
    23   17   19 ar 
    24   19   20 ar 
    25   23   24 ar 
    26   23   26 ar 
    27   24   25 ar 
    28   25   28 ar 
    29   26   27 ar 
    30   27   28 ar 
    31   28   29 1  
    32   29   30 2  
    33   29   31 2  
    34   29   32 1  
    35   32   33 1  
    36    1   34 1  
    37    1   35 1  
    38    4   36 1  
    39    7   37 1  
    40    9   38 1  
    41   10   39 1  
    42   11   40 1  
    43   12   41 1  
    44   13   42 1  
    45   15   43 1  
    46   15   44 1  
    47   15   45 1  
    48   16   46 1  
    49   16   47 1  
    50   16   48 1  
    51   18   49 1  
    52   19   50 1  
    53   20   51 1  
    54   21   52 1  
    55   24   53 1  
    56   25   54 1  
    57   26   55 1  
    58   27   56 1  
    59   32   57 1  
    60   32   58 1  
    61   33   59 1  
    62   33   60 1  
    63   33   61 1  
@<TRIPOS>SUBSTRUCTURE
     1 9A0         1

