### 
### Created by X-TOOL on Wed Jan  1 15:39:36 2020
### 

@<TRIPOS>MOLECULE
5za2_ligand
   30    30     1     0     0
SMALL
GAST_HUCK


@<TRIPOS>ATOM
      1 OAC         9.9110   -7.8470  -30.5930 O.2       1 NXL        -0.3828
      2 CAN        11.0250   -7.4200  -30.8190 C.2       1 NXL         0.1743
      3 N          11.3870   -6.2260  -30.3160 N.am      1 NXL        -0.2479
      4 CAJ        12.7410   -5.7260  -30.4930 C.3       1 NXL         0.0807
      5 CA         10.4450   -5.4270  -29.5500 C.3       1 NXL         0.1340
      6 C           9.8790   -4.3480  -30.4680 C.2       1 NXL         0.1996
      7 O          10.5540   -3.4100  -30.8940 O.2       1 NXL        -0.3947
      8 NAA         8.5620   -4.4480  -30.8660 N.am      1 NXL        -0.2989
      9 CB         11.0880   -4.7630  -28.2960 C.3       1 NXL        -0.0069
     10 CAH        12.5440   -4.3400  -28.5020 C.3       1 NXL        -0.0025
     11 CAO        13.3260   -5.4730  -29.0890 C.3       1 NXL         0.0316
     12 NAK        13.0980   -6.7220  -28.2500 N.4       1 NXL         0.4138
     13 OAL        14.0080   -7.6530  -28.6750 O.3       1 NXL        -0.2010
     14 SAR        13.4120   -9.2160  -28.3530 S.o2      1 NXL        -0.0327
     15 OAD        13.3050   -9.2730  -26.9310 O.co2     1 NXL        -0.4578
     16 OAE        12.1670   -9.1910  -29.0240 O.co2     1 NXL        -0.4578
     17 OAG        14.4830   -9.9680  -28.9400 O.co2     1 NXL        -0.4578
     18 H1         11.7237   -7.9975  -31.4225 H         1 NXL         0.1547
     19 H2         12.7234   -4.7882  -31.0676 H         1 NXL         0.0583
     20 H3         13.3504   -6.4710  -31.0256 H         1 NXL         0.0583
     21 H4          9.6269   -6.0801  -29.2121 H         1 NXL         0.0804
     22 H5          8.1674   -3.7535  -31.4676 H         1 NXL         0.1815
     23 H6          8.0019   -5.2150  -30.5529 H         1 NXL         0.1815
     24 H7         11.0497   -5.4819  -27.4643 H         1 NXL         0.0314
     25 H8         10.5005   -3.8701  -28.0362 H         1 NXL         0.0314
     26 H9         12.9823   -4.0578  -27.5334 H         1 NXL         0.0323
     27 H10        12.5804   -3.4791  -29.1857 H         1 NXL         0.0323
     28 H11        14.3973   -5.2290  -29.1411 H         1 NXL         0.0882
     29 H12        12.1602   -7.0656  -28.3861 H         1 NXL         0.2382
     30 H13        13.2420   -6.5159  -27.2739 H         1 NXL         0.2382
@<TRIPOS>BOND
     1    1    2 2  
     2    2    3 am 
     3    3    4 1  
     4    3    5 1  
     5    4   11 1  
     6    5    6 1  
     7    5    9 1  
     8    6    7 2  
     9    6    8 am 
    10    9   10 1  
    11   10   11 1  
    12   11   12 1  
    13   12   13 1  
    14   13   14 1  
    15   14   15 ar 
    16   14   16 ar 
    17   14   17 ar 
    18    2   18 1  
    19    4   19 1  
    20    4   20 1  
    21    5   21 1  
    22    8   22 1  
    23    8   23 1  
    24    9   24 1  
    25    9   25 1  
    26   10   26 1  
    27   10   27 1  
    28   11   28 1  
    29   12   29 1  
    30   12   30 1  
@<TRIPOS>SUBSTRUCTURE
     1 NXL         1

