### 
### Created by X-TOOL on Wed Jan  1 15:39:37 2020
### 

@<TRIPOS>MOLECULE
5za7_ligand
   40    41     1     0     0
SMALL
GAST_HUCK


@<TRIPOS>ATOM
      1 C1        -28.0790  -16.9650   -1.6940 C.ar      1 HMX         0.1565
      2 N1        -27.6890  -16.0440   -3.8200 N.ar      1 HMX        -0.2444
      3 C2        -27.3790  -16.0810   -2.4990 C.ar      1 HMX         0.1505
      4 N2        -29.0150  -17.7610   -2.1930 N.ar      1 HMX        -0.2659
      5 C3        -28.6300  -16.8560   -4.3460 C.ar      1 HMX         0.1401
      6 C4        -29.3260  -17.7060   -3.5030 C.ar      1 HMX         0.1498
      7 C5        -30.3760  -18.6580   -3.9390 C.2       1 HMX         0.2136
      8 C6        -26.2510  -14.9130   -0.5770 C.3       1 HMX         0.0317
      9 C7        -25.9090  -13.4460   -0.3290 C.3       1 HMX        -0.0324
     10 C8        -27.0010  -12.5110   -0.8330 C.3       1 HMX        -0.0511
     11 C9        -27.2480  -12.6040   -2.3370 C.3       1 HMX        -0.0511
     12 C10       -26.0440  -13.0530   -3.1730 C.3       1 HMX        -0.0324
     13 C11       -25.5550  -14.4830   -2.9650 C.3       1 HMX         0.0317
     14 C12       -32.0460  -20.1360   -3.0790 C.cat     1 HMX         0.3256
     15 O1        -30.5200  -18.8660   -5.1340 O.2       1 HMX        -0.3901
     16 N5        -31.0750  -19.2330   -2.9420 N.am      1 HMX        -0.2249
     17 N7        -32.6620  -20.5940   -1.9890 N.pl3     1 HMX        -0.2544
     18 N6        -32.4030  -20.5850   -4.2770 N.pl3     1 HMX        -0.2544
     19 CL1       -27.8050  -17.1750    0.0560 Cl        1 HMX        -0.0494
     20 N3        -28.8880  -16.7610   -5.6850 N.pl3     1 HMX        -0.3162
     21 N4        -26.4050  -15.1890   -2.0130 N.pl3     1 HMX        -0.2882
     22 H1        -27.1931  -15.1535   -0.0627 H         1 HMX         0.0525
     23 H2        -25.4431  -15.5424   -0.1756 H         1 HMX         0.0525
     24 H3        -24.9697  -13.2077   -0.8495 H         1 HMX         0.0285
     25 H4        -25.7791  -13.2897    0.7521 H         1 HMX         0.0285
     26 H5        -26.7105  -11.4776   -0.5928 H         1 HMX         0.0266
     27 H6        -27.9375  -12.7592   -0.3120 H         1 HMX         0.0266
     28 H7        -27.5566  -11.6099   -2.6927 H         1 HMX         0.0266
     29 H8        -28.0640  -13.3227   -2.5034 H         1 HMX         0.0266
     30 H9        -25.2071  -12.3783   -2.9398 H         1 HMX         0.0285
     31 H10       -26.3169  -12.9459   -4.2332 H         1 HMX         0.0285
     32 H11       -24.5250  -14.4592   -2.5798 H         1 HMX         0.0525
     33 H12       -25.5742  -15.0141   -3.9281 H         1 HMX         0.0525
     34 H13       -30.8435  -18.9561   -2.0094 H         1 HMX         0.1846
     35 H14       -33.4143  -21.2919   -2.0775 H         1 HMX         0.3199
     36 H15       -32.3856  -20.2499   -1.0583 H         1 HMX         0.3199
     37 H16       -31.9291  -20.2332   -5.1211 H         1 HMX         0.3199
     38 H17       -33.1538  -21.2850   -4.3619 H         1 HMX         0.3199
     39 H18       -29.6004  -17.3669   -6.1165 H         1 HMX         0.1804
     40 H19       -28.3700  -16.0835   -6.2625 H         1 HMX         0.1804
@<TRIPOS>BOND
     1    3    1 ar 
     2    1    4 ar 
     3    1   19 1  
     4    3    2 ar 
     5    2    5 ar 
     6   21    3 1  
     7    4    6 ar 
     8    5    6 ar 
     9    5   20 1  
    10    6    7 1  
    11    7   15 2  
    12    7   16 am 
    13    8    9 1  
    14    8   21 1  
    15    9   10 1  
    16   10   11 1  
    17   11   12 1  
    18   12   13 1  
    19   13   21 1  
    20   16   14 ar 
    21   14   17 ar 
    22   14   18 ar 
    23    8   22 1  
    24    8   23 1  
    25    9   24 1  
    26    9   25 1  
    27   10   26 1  
    28   10   27 1  
    29   11   28 1  
    30   11   29 1  
    31   12   30 1  
    32   12   31 1  
    33   13   32 1  
    34   13   33 1  
    35   16   34 1  
    36   17   35 1  
    37   17   36 1  
    38   18   37 1  
    39   18   38 1  
    40   20   39 1  
    41   20   40 1  
@<TRIPOS>SUBSTRUCTURE
     1 HMX         1

