### 
### Created by X-TOOL on Wed Jan  1 15:39:37 2020
### 

@<TRIPOS>MOLECULE
5za8_ligand
   50    52     1     0     0
SMALL
GAST_HUCK


@<TRIPOS>ATOM
      1 N1        -26.3220  -17.6460    2.0930 N.pl3     1 27I        -0.2068
      2 O1        -30.3850  -18.8650   -4.7030 O.2       1 27I        -0.3899
      3 C9        -30.1710  -18.7470   -3.5100 C.2       1 27I         0.2130
      4 N7        -30.8710  -19.3630   -2.5440 N.am      1 27I        -0.2249
      5 C10       -31.8660  -20.2300   -2.7050 C.cat     1 27I         0.3257
      6 N9        -32.4550  -20.7290   -1.6240 N.pl3     1 27I        -0.2544
      7 N8        -32.2970  -20.5860   -3.9050 N.pl3     1 27I        -0.2544
      8 C6        -29.0820  -17.8260   -3.0550 C.ar      1 27I         0.1448
      9 N3        -28.5980  -17.9770   -1.7930 N.ar      1 27I        -0.2852
     10 C7        -28.5460  -16.8390   -3.8660 C.ar      1 27I         0.1379
     11 N6        -28.9780  -16.6200   -5.1360 N.pl3     1 27I        -0.3171
     12 N4        -27.5690  -16.0540   -3.3550 N.ar      1 27I        -0.2465
     13 C8        -27.0800  -16.2040   -2.0920 C.ar      1 27I         0.1360
     14 C5        -27.6090  -17.2050   -1.2570 C.ar      1 27I         0.0761
     15 C3        -27.2260  -17.5180    0.0800 C.2       1 27I         0.0144
     16 C2        -27.8130  -18.5390    0.8220 C.2       1 27I         0.0059
     17 N2        -27.2750  -18.6460    2.0550 N.2       1 27I        -0.2141
     18 C4        -25.5780  -17.5250    3.3740 C.3       1 27I         0.0611
     19 C1        -26.2740  -16.9800    0.9440 C.2       1 27I         0.0627
     20 N5        -26.1100  -15.2640   -1.7160 N.pl3     1 27I        -0.2882
     21 C16       -26.4480  -14.3360   -0.6140 C.3       1 27I         0.0322
     22 C15       -26.7150  -12.9170   -1.0970 C.3       1 27I        -0.0323
     23 C14       -25.4160  -12.1120   -1.1440 C.3       1 27I        -0.0511
     24 C13       -24.3250  -12.6710   -2.0670 C.3       1 27I        -0.0511
     25 C12       -24.7550  -13.7680   -3.0560 C.3       1 27I        -0.0323
     26 C11       -24.8370  -15.1430   -2.4030 C.3       1 27I         0.0322
     27 H1        -30.6165  -19.1463   -1.6015 H         1 27I         0.1846
     28 H2        -33.2281  -21.4023   -1.7232 H         1 27I         0.3199
     29 H3        -32.1386  -20.4426   -0.6866 H         1 27I         0.3199
     30 H4        -31.8460  -20.2039   -4.7485 H         1 27I         0.3199
     31 H5        -33.0833  -21.2451   -3.9952 H         1 27I         0.3199
     32 H6        -28.5507  -15.8746   -5.7040 H         1 27I         0.1801
     33 H7        -29.7327  -17.1995   -5.5304 H         1 27I         0.1801
     34 H8        -28.6134  -19.1773    0.4507 H         1 27I         0.0670
     35 H9        -24.8489  -16.7048    3.2985 H         1 27I         0.0607
     36 H10       -25.0497  -18.4672    3.5816 H         1 27I         0.0607
     37 H11       -26.2847  -17.3133    4.1899 H         1 27I         0.0607
     38 H12       -25.6034  -16.1528    0.7159 H         1 27I         0.1022
     39 H13       -25.6081  -14.3131    0.0960 H         1 27I         0.0526
     40 H14       -27.3488  -14.7089   -0.1046 H         1 27I         0.0526
     41 H15       -27.4193  -12.4271   -0.4085 H         1 27I         0.0285
     42 H16       -27.1538  -12.9546   -2.1050 H         1 27I         0.0285
     43 H17       -25.0071  -12.0687   -0.1237 H         1 27I         0.0266
     44 H18       -25.6598  -11.0950   -1.4849 H         1 27I         0.0266
     45 H19       -23.5309  -13.0883   -1.4305 H         1 27I         0.0266
     46 H20       -23.9221  -11.8322   -2.6536 H         1 27I         0.0266
     47 H21       -24.0232  -13.8101   -3.8762 H         1 27I         0.0285
     48 H22       -25.7448  -13.5100   -3.4605 H         1 27I         0.0285
     49 H23       -24.7585  -15.9231   -3.1746 H         1 27I         0.0526
     50 H24       -24.0155  -15.2578   -1.6806 H         1 27I         0.0526
@<TRIPOS>BOND
     1    1   17 1  
     2    1   18 1  
     3   19    1 1  
     4    3    2 2  
     5    3    4 am 
     6    8    3 1  
     7    4    5 ar 
     8    5    6 ar 
     9    5    7 ar 
    10    9    8 ar 
    11    8   10 ar 
    12   14    9 ar 
    13   10   11 1  
    14   12   10 ar 
    15   13   12 ar 
    16   14   13 ar 
    17   13   20 1  
    18   15   14 1  
    19   15   16 1  
    20   15   19 2  
    21   16   17 2  
    22   20   21 1  
    23   20   26 1  
    24   21   22 1  
    25   22   23 1  
    26   23   24 1  
    27   24   25 1  
    28   25   26 1  
    29    4   27 1  
    30    6   28 1  
    31    6   29 1  
    32    7   30 1  
    33    7   31 1  
    34   11   32 1  
    35   11   33 1  
    36   16   34 1  
    37   18   35 1  
    38   18   36 1  
    39   18   37 1  
    40   19   38 1  
    41   21   39 1  
    42   21   40 1  
    43   22   41 1  
    44   22   42 1  
    45   23   43 1  
    46   23   44 1  
    47   24   45 1  
    48   24   46 1  
    49   25   47 1  
    50   25   48 1  
    51   26   49 1  
    52   26   50 1  
@<TRIPOS>SUBSTRUCTURE
     1 27I         1

