### 
### Created by X-TOOL on Wed Jan  1 15:39:38 2020
### 

@<TRIPOS>MOLECULE
5za9_ligand
   53    56     1     0     0
SMALL
GAST_HUCK


@<TRIPOS>ATOM
      1 C4         24.2760   14.4870  -12.0310 C.3       1 50I        -0.0320
      2 C5         25.3520   15.5040  -12.4020 C.3       1 50I         0.0334
      3 C6         26.7390   13.4440  -13.0270 C.3       1 50I         0.0334
      4 C11        28.9200   14.9530  -14.0960 C.2       1 50I         0.1377
      5 C7         27.7680   15.3980  -11.9340 C.ar      1 50I         0.1471
      6 C10        28.8630   16.4870  -10.1780 C.ar      1 50I         0.1437
      7 C12        31.2340   17.2460  -10.3980 C.2       1 50I         0.2154
      8 N3         27.7590   15.8930  -10.6780 N.ar      1 50I        -0.2404
      9 C1         25.8650   13.4140  -14.2760 C.3       1 50I        -0.0320
     10 C2         24.4790   12.8690  -13.9510 C.3       1 50I        -0.0511
     11 C15        28.8680   14.7140  -16.3250 C.ar      1 50I        -0.0093
     12 C16        28.7980   15.7020  -15.2820 C.2       1 50I        -0.0385
     13 C17        29.1220   12.3180  -16.4960 C.ar      1 50I        -0.0311
     14 C18        29.0610   12.4350  -17.8820 C.ar      1 50I        -0.0734
     15 C19        28.9040   13.6860  -18.4790 C.ar      1 50I        -0.0766
     16 C20        28.8050   14.8410  -17.7060 C.ar      1 50I        -0.0706
     17 O1         31.4380   17.2090   -9.1950 O.2       1 50I        -0.3890
     18 N5         32.2130   17.6370  -11.3980 N.am      1 50I        -0.2245
     19 C13        33.3920   17.8320  -11.0500 C.cat     1 50I         0.3257
     20 N7         34.0880   18.3250  -11.9230 N.pl3     1 50I        -0.2544
     21 N6         33.9630   17.5030   -9.8400 N.pl3     1 50I        -0.2544
     22 C9         30.0050   16.5870  -10.9530 C.ar      1 50I         0.1520
     23 N2         30.0140   16.0920  -12.2090 N.ar      1 50I        -0.2721
     24 N4         28.8540   16.9830   -8.9180 N.pl3     1 50I        -0.3144
     25 N1         26.6210   14.7840  -12.4530 N.pl3     1 50I        -0.2850
     26 C3         23.6080   13.9280  -13.2830 C.3       1 50I        -0.0511
     27 C8         28.9100   15.4990  -12.7090 C.ar      1 50I         0.1269
     28 C14        29.0210   13.4850  -15.7550 C.ar      1 50I         0.1233
     29 O2         29.0530   13.6210  -14.4440 O.3       1 50I        -0.2527
     30 H1         23.5162   14.9774  -11.4047 H         1 50I         0.0285
     31 H2         24.7375   13.6617  -11.4690 H         1 50I         0.0285
     32 H3         25.3988   16.2984  -11.6426 H         1 50I         0.0529
     33 H4         25.1299   15.9478  -13.3837 H         1 50I         0.0529
     34 H5         27.7861   13.2386  -13.2939 H         1 50I         0.0529
     35 H6         26.3905   12.6917  -12.3041 H         1 50I         0.0529
     36 H7         26.3379   12.7702  -15.0322 H         1 50I         0.0285
     37 H8         25.7674   14.4352  -14.6730 H         1 50I         0.0285
     38 H9         24.5823   12.0099  -13.2718 H         1 50I         0.0266
     39 H10        23.9947   12.5432  -14.8833 H         1 50I         0.0266
     40 H11        28.6784   16.7794  -15.3856 H         1 50I         0.0364
     41 H12        29.2435   11.3537  -16.0160 H         1 50I         0.0558
     42 H13        29.1360   11.5484  -18.5011 H         1 50I         0.0544
     43 H14        28.8584   13.7606  -19.5595 H         1 50I         0.0528
     44 H15        28.6821   15.8127  -18.1705 H         1 50I         0.0545
     45 H16        31.9427   17.7481  -12.3544 H         1 50I         0.1846
     46 H17        35.0808   18.5269  -11.7374 H         1 50I         0.3199
     47 H18        33.6825   18.5392  -12.8453 H         1 50I         0.3199
     48 H19        33.3867   17.0863   -9.0949 H         1 50I         0.3199
     49 H20        34.9662   17.6737   -9.6805 H         1 50I         0.3199
     50 H21        29.6968   17.4362   -8.5369 H         1 50I         0.1819
     51 H22        28.0044   16.9071   -8.3407 H         1 50I         0.1819
     52 H23        23.4347   14.7495  -13.9937 H         1 50I         0.0266
     53 H24        22.6451   13.4756  -13.0036 H         1 50I         0.0266
@<TRIPOS>BOND
     1    2    1 1  
     2    1   26 1  
     3   25    2 1  
     4    3    9 1  
     5   25    3 1  
     6   12    4 2  
     7    4   27 1  
     8    4   29 1  
     9    5    8 ar 
    10    5   25 1  
    11   27    5 ar 
    12    8    6 ar 
    13    6   22 ar 
    14    6   24 1  
    15    7   17 2  
    16    7   18 am 
    17   22    7 1  
    18    9   10 1  
    19   10   26 1  
    20   11   12 1  
    21   11   16 ar 
    22   28   11 ar 
    23   13   14 ar 
    24   13   28 ar 
    25   14   15 ar 
    26   15   16 ar 
    27   18   19 ar 
    28   19   20 ar 
    29   19   21 ar 
    30   22   23 ar 
    31   23   27 ar 
    32   28   29 1  
    33    1   30 1  
    34    1   31 1  
    35    2   32 1  
    36    2   33 1  
    37    3   34 1  
    38    3   35 1  
    39    9   36 1  
    40    9   37 1  
    41   10   38 1  
    42   10   39 1  
    43   12   40 1  
    44   13   41 1  
    45   14   42 1  
    46   15   43 1  
    47   16   44 1  
    48   18   45 1  
    49   20   46 1  
    50   20   47 1  
    51   21   48 1  
    52   21   49 1  
    53   24   50 1  
    54   24   51 1  
    55   26   52 1  
    56   26   53 1  
@<TRIPOS>SUBSTRUCTURE
     1 50I         1

