### 
### Created by X-TOOL on Wed Jan  1 15:39:38 2020
### 

@<TRIPOS>MOLECULE
5zae_ligand
   47    49     1     0     0
SMALL
GAST_HUCK


@<TRIPOS>ATOM
      1 N1        -27.4490  -16.1920   -3.4480 N.ar      1 EAU        -0.2437
      2 C2        -27.0440  -16.3170   -2.1500 C.ar      1 EAU         0.1432
      3 O2        -28.3800  -17.2980    1.1010 O.3       1 EAU        -0.2627
      4 N3        -28.8410  -16.7080   -5.2470 N.pl3     1 EAU        -0.3160
      5 C4        -29.1710  -17.7600   -3.1500 C.ar      1 EAU         0.1476
      6 N5        -31.0230  -19.1330   -2.5920 N.am      1 EAU        -0.2247
      7 C6        -30.3380  -18.5740   -3.5980 C.2       1 EAU         0.2140
      8 C7        -25.4150  -15.4350   -0.3850 C.3       1 EAU         0.0329
      9 C8        -26.1290  -14.2570    0.2610 C.3       1 EAU        -0.0321
     10 C9        -25.5910  -12.9520   -0.3210 C.3       1 EAU        -0.0511
     11 C10       -26.3590  -12.5320   -1.5690 C.3       1 EAU        -0.0511
     12 O1        -30.6430  -18.6790   -4.7650 O.2       1 EAU        -0.3895
     13 C13       -31.8820  -20.1280   -2.7370 C.cat     1 EAU         0.3257
     14 N7        -32.4990  -20.5730   -1.6340 N.pl3     1 EAU        -0.2544
     15 N6        -32.1120  -20.6540   -3.9470 N.pl3     1 EAU        -0.2544
     16 C3        -28.4810  -16.8850   -3.9540 C.ar      1 EAU         0.1403
     17 N2        -28.8120  -17.9070   -1.8640 N.ar      1 EAU        -0.2781
     18 C1        -27.7750  -17.2200   -1.3520 C.ar      1 EAU         0.1187
     19 C5        -27.5400  -17.5730    0.0610 C.2       1 EAU         0.1328
     20 C14       -26.4660  -18.3250    0.5290 C.2       1 EAU        -0.0570
     21 C15       -26.6270  -18.4590    1.8920 C.2       1 EAU        -0.0629
     22 C16       -27.8000  -17.8280    2.2420 C.2       1 EAU         0.0798
     23 N4        -25.9550  -15.5100   -1.7410 N.pl3     1 EAU        -0.2864
     24 C12       -25.2740  -14.6320   -2.6780 C.3       1 EAU         0.0329
     25 C11       -26.0270  -13.3120   -2.8490 C.3       1 EAU        -0.0321
     26 H1        -29.6325  -17.2383   -5.6384 H         1 EAU         0.1810
     27 H2        -28.3234  -16.0431   -5.8393 H         1 EAU         0.1810
     28 H3        -30.8751  -18.7743   -1.6703 H         1 EAU         0.1846
     29 H4        -25.6250  -16.3634    0.1662 H         1 EAU         0.0528
     30 H5        -24.3291  -15.2615   -0.4108 H         1 EAU         0.0528
     31 H6        -25.9541  -14.2733    1.3469 H         1 EAU         0.0285
     32 H7        -27.2085  -14.3291    0.0623 H         1 EAU         0.0285
     33 H8        -24.5316  -13.0888   -0.5837 H         1 EAU         0.0266
     34 H9        -25.6816  -12.1597    0.4367 H         1 EAU         0.0266
     35 H10       -26.1451  -11.4693   -1.7558 H         1 EAU         0.0266
     36 H11       -27.4322  -12.6596   -1.3643 H         1 EAU         0.0266
     37 H12       -33.1761  -21.3464   -1.6992 H         1 EAU         0.3199
     38 H13       -32.2962  -20.1417   -0.7209 H         1 EAU         0.3199
     39 H14       -31.6177  -20.2844   -4.7716 H         1 EAU         0.3199
     40 H15       -32.7832  -21.4281   -4.0529 H         1 EAU         0.3199
     41 H16       -25.6516  -18.7312   -0.0690 H         1 EAU         0.0362
     42 H17       -25.9476  -18.9724    2.5708 H         1 EAU         0.0353
     43 H18       -28.2052  -17.7573    3.2503 H         1 EAU         0.0988
     44 H19       -25.2046  -15.1341   -3.6542 H         1 EAU         0.0528
     45 H20       -24.2622  -14.4213   -2.3013 H         1 EAU         0.0528
     46 H21       -25.4128  -12.6590   -3.4864 H         1 EAU         0.0285
     47 H22       -26.9762  -13.5343   -3.3586 H         1 EAU         0.0285
@<TRIPOS>BOND
     1    2    1 ar 
     2    1   16 ar 
     3   18    2 ar 
     4    2   23 1  
     5   19    3 1  
     6    3   22 1  
     7   16    4 1  
     8    5    7 1  
     9    5   16 ar 
    10   17    5 ar 
    11    7    6 am 
    12    6   13 ar 
    13    7   12 2  
    14    8    9 1  
    15   23    8 1  
    16    9   10 1  
    17   10   11 1  
    18   11   25 1  
    19   13   14 ar 
    20   13   15 ar 
    21   18   17 ar 
    22   18   19 1  
    23   19   20 2  
    24   20   21 1  
    25   21   22 2  
    26   23   24 1  
    27   24   25 1  
    28    4   26 1  
    29    4   27 1  
    30    6   28 1  
    31    8   29 1  
    32    8   30 1  
    33    9   31 1  
    34    9   32 1  
    35   10   33 1  
    36   10   34 1  
    37   11   35 1  
    38   11   36 1  
    39   14   37 1  
    40   14   38 1  
    41   15   39 1  
    42   15   40 1  
    43   20   41 1  
    44   21   42 1  
    45   22   43 1  
    46   24   44 1  
    47   24   45 1  
    48   25   46 1  
    49   25   47 1  
@<TRIPOS>SUBSTRUCTURE
     1 EAU         1

