### 
### Created by X-TOOL on Wed Jan  1 15:39:37 2020
### 

@<TRIPOS>MOLECULE
5zaf_ligand
   47    49     1     0     0
SMALL
GAST_HUCK


@<TRIPOS>ATOM
      1 C1         -0.4850   31.6850   26.4990 C.ar      1 28I         0.1365
      2 C2         -0.9980   32.7240   27.2850 C.ar      1 28I         0.0739
      3 N6         -1.7390   38.3060   24.6030 N.pl3     1 28I        -0.2544
      4 C7         -1.6390   37.7510   25.8020 C.cat     1 28I         0.3257
      5 C9         -1.5630   33.1070   30.8940 C.2       1 28I         0.0797
      6 C10        -2.3460   31.8010   29.2770 C.2       1 28I         0.0905
      7 C11        -0.3780   29.2070   26.1790 C.3       1 28I         0.0323
      8 C12         1.0100   28.6140   25.9060 C.3       1 28I        -0.0322
      9 C14         1.7990   28.0880   28.2630 C.3       1 28I        -0.0511
     10 N3         -0.1400   33.3680   23.3120 N.pl3     1 28I        -0.3168
     11 C4         -0.4350   33.1710   24.6270 C.ar      1 28I         0.1386
     12 O1         -1.2230   35.8010   23.7520 O.2       1 28I        -0.3898
     13 C6         -1.2320   35.5600   24.9480 C.2       1 28I         0.2133
     14 N5         -1.3890   36.4550   25.9320 N.am      1 28I        -0.2248
     15 N7         -1.7620   38.4400   26.8500 N.pl3     1 28I        -0.2544
     16 C3         -0.9570   34.1780   25.4270 C.ar      1 28I         0.1458
     17 N1         -0.2060   31.9600   25.1870 N.ar      1 28I        -0.2457
     18 N2         -1.2290   33.9290   26.7270 N.ar      1 28I        -0.2841
     19 C5         -1.3970   32.6460   28.7170 C.2       1 28I        -0.0055
     20 C8         -0.9330   33.4580   29.7180 C.2       1 28I        -0.0575
     21 O2         -2.4390   32.0840   30.6200 O.3       1 28I        -0.2663
     22 N4         -0.1450   30.4030   26.9880 N.pl3     1 28I        -0.2879
     23 C16         0.6330   30.3260   28.2510 C.3       1 28I         0.0323
     24 C15         0.6890   28.9330   28.8770 C.3       1 28I        -0.0322
     25 C13         1.3780   27.5230   26.9120 C.3       1 28I        -0.0511
     26 H1         -1.9335   39.3138   24.5166 H         1 28I         0.3199
     27 H2         -1.6222   37.7297   23.7574 H         1 28I         0.3199
     28 H3         -1.3954   33.5613   31.8694 H         1 28I         0.0967
     29 H4         -2.9188   31.0436   28.7440 H         1 28I         0.0998
     30 H5         -1.0012   28.4870   26.7296 H         1 28I         0.0526
     31 H6         -0.8738   29.4738   25.2340 H         1 28I         0.0526
     32 H7          1.7575   29.4187   25.9664 H         1 28I         0.0285
     33 H8          1.0180   28.1811   24.8948 H         1 28I         0.0285
     34 H9          2.0339   27.2556   28.9426 H         1 28I         0.0266
     35 H10         2.6932   28.7140   28.1272 H         1 28I         0.0266
     36 H11         0.2463   32.5964   22.7497 H         1 28I         0.1803
     37 H12        -0.3032   34.2886   22.8799 H         1 28I         0.1803
     38 H13        -1.3090   36.1083   26.8665 H         1 28I         0.1846
     39 H14        -1.9564   39.4493   26.7829 H         1 28I         0.3199
     40 H15        -1.6681   37.9939   27.7736 H         1 28I         0.3199
     41 H16        -0.1917   34.2476   29.6045 H         1 28I         0.0332
     42 H17         0.1749   31.0116   28.9791 H         1 28I         0.0526
     43 H18         1.6630   30.6496   28.0403 H         1 28I         0.0526
     44 H19         0.8724   29.0338   29.9569 H         1 28I         0.0285
     45 H20        -0.2752   28.4292   28.7142 H         1 28I         0.0285
     46 H21         2.2109   26.9327   26.5023 H         1 28I         0.0266
     47 H22         0.5044   26.8712   27.0598 H         1 28I         0.0266
@<TRIPOS>BOND
     1    1    2 ar 
     2   17    1 ar 
     3    1   22 1  
     4    2   18 ar 
     5    2   19 1  
     6    4    3 ar 
     7   14    4 ar 
     8    4   15 ar 
     9    5   20 2  
    10   21    5 1  
    11   19    6 2  
    12    6   21 1  
    13    7    8 1  
    14   22    7 1  
    15    8   25 1  
    16    9   24 1  
    17   25    9 1  
    18   11   10 1  
    19   16   11 ar 
    20   11   17 ar 
    21   13   12 2  
    22   13   14 am 
    23   13   16 1  
    24   16   18 ar 
    25   19   20 1  
    26   22   23 1  
    27   23   24 1  
    28    3   26 1  
    29    3   27 1  
    30    5   28 1  
    31    6   29 1  
    32    7   30 1  
    33    7   31 1  
    34    8   32 1  
    35    8   33 1  
    36    9   34 1  
    37    9   35 1  
    38   10   36 1  
    39   10   37 1  
    40   14   38 1  
    41   15   39 1  
    42   15   40 1  
    43   20   41 1  
    44   23   42 1  
    45   23   43 1  
    46   24   44 1  
    47   24   45 1  
    48   25   46 1  
    49   25   47 1  
@<TRIPOS>SUBSTRUCTURE
     1 28I         1

