### 
### Created by X-TOOL on Wed Jan  1 15:39:37 2020
### 

@<TRIPOS>MOLECULE
5zag_ligand
   48    50     1     0     0
SMALL
GAST_HUCK


@<TRIPOS>ATOM
      1 C5        -28.0150  -17.0720   -1.0820 C.ar      1 94I         0.1061
      2 C3        -26.4960  -17.5270    0.8510 C.ar      1 94I         0.0354
      3 C2        -27.3110  -18.0450    2.9670 C.ar      1 94I         0.0882
      4 C7        -28.5310  -16.8410   -3.7830 C.ar      1 94I         0.1456
      5 C14       -26.9320  -14.3100   -0.2730 C.3       1 94I         0.0332
      6 C13       -25.8220  -13.6110    0.5230 C.3       1 94I        -0.0321
      7 C12       -25.0510  -12.5130   -0.2160 C.3       1 94I        -0.0511
      8 C9        -25.1050  -14.9660   -1.9510 C.3       1 94I         0.0332
      9 C10       -25.1650  -13.5860   -2.6050 C.3       1 94I        -0.0321
     10 C16       -31.9270  -20.1830   -2.7070 C.cat     1 94I         0.3257
     11 N4        -27.6170  -16.0390   -3.1780 N.ar      1 94I        -0.2392
     12 N6        -30.9440  -19.3040   -2.5730 N.am      1 94I        -0.2245
     13 N8        -32.4860  -20.6640   -1.6120 N.pl3     1 94I        -0.2544
     14 O1        -30.4340  -18.7960   -4.7340 O.2       1 94I        -0.3890
     15 C15       -30.2390  -18.7020   -3.5340 C.2       1 94I         0.2160
     16 N7        -32.3520  -20.5620   -3.8980 N.pl3     1 94I        -0.2544
     17 C6        -29.1990  -17.7730   -3.0090 C.ar      1 94I         0.1551
     18 N3        -28.9120  -17.8740   -1.6930 N.ar      1 94I        -0.2696
     19 N9        -28.7790  -16.6980   -5.1120 N.pl3     1 94I        -0.3135
     20 C8        -27.3160  -16.1380   -1.8550 C.ar      1 94I         0.1458
     21 C4        -27.8010  -17.3740    0.3670 C.ar      1 94I         0.0470
     22 N2        -26.2720  -17.8470    2.1380 N.ar      1 94I        -0.2640
     23 N1        -28.5790  -17.9330    2.5260 N.ar      1 94I        -0.2640
     24 C1        -28.8520  -17.6210    1.2490 C.ar      1 94I         0.0354
     25 N5        -26.4100  -15.1940   -1.3460 N.pl3     1 94I        -0.2852
     26 C11       -25.3650  -12.3510   -1.7030 C.3       1 94I        -0.0511
     27 H1        -25.6562  -17.3858    0.1803 H         1 94I         0.0931
     28 H2        -27.1263  -18.2983    4.0047 H         1 94I         0.1110
     29 H3        -27.5708  -13.5413   -0.7324 H         1 94I         0.0528
     30 H4        -27.5311  -14.9178    0.4210 H         1 94I         0.0528
     31 H5        -25.0980  -14.3782    0.8347 H         1 94I         0.0285
     32 H6        -26.2818  -13.1574    1.4134 H         1 94I         0.0285
     33 H7        -23.9778  -12.7354   -0.1221 H         1 94I         0.0266
     34 H8        -25.2720  -11.5562    0.2797 H         1 94I         0.0266
     35 H9        -24.3201  -14.9877   -1.1807 H         1 94I         0.0528
     36 H10       -24.8973  -15.7366   -2.7080 H         1 94I         0.0528
     37 H11       -25.9991  -13.6026   -3.3219 H         1 94I         0.0285
     38 H12       -24.2186  -13.4422   -3.1468 H         1 94I         0.0285
     39 H13       -30.6997  -19.0612   -1.6342 H         1 94I         0.1846
     40 H14       -33.2522  -21.3486   -1.6830 H         1 94I         0.3199
     41 H15       -32.1559  -20.3546   -0.6867 H         1 94I         0.3199
     42 H16       -31.9104  -20.1819   -4.7474 H         1 94I         0.3199
     43 H17       -33.1252  -21.2378   -3.9779 H         1 94I         0.3199
     44 H18       -29.4713  -17.3041   -5.5748 H         1 94I         0.1822
     45 H19       -28.2746  -15.9836   -5.6561 H         1 94I         0.1822
     46 H20       -29.8790  -17.5618    0.9073 H         1 94I         0.0931
     47 H21       -24.7198  -11.5494   -2.0919 H         1 94I         0.0266
     48 H22       -26.4188  -12.0470   -1.7874 H         1 94I         0.0266
@<TRIPOS>BOND
     1    1   18 ar 
     2   20    1 ar 
     3    1   21 1  
     4   21    2 ar 
     5    2   22 ar 
     6   22    3 ar 
     7    3   23 ar 
     8   11    4 ar 
     9    4   17 ar 
    10    4   19 1  
    11    5    6 1  
    12   25    5 1  
    13    6    7 1  
    14   26    7 1  
    15    8    9 1  
    16   25    8 1  
    17    9   26 1  
    18   12   10 ar 
    19   10   13 ar 
    20   10   16 ar 
    21   20   11 ar 
    22   15   12 am 
    23   15   14 2  
    24   17   15 1  
    25   18   17 ar 
    26   20   25 1  
    27   21   24 ar 
    28   23   24 ar 
    29    2   27 1  
    30    3   28 1  
    31    5   29 1  
    32    5   30 1  
    33    6   31 1  
    34    6   32 1  
    35    7   33 1  
    36    7   34 1  
    37    8   35 1  
    38    8   36 1  
    39    9   37 1  
    40    9   38 1  
    41   12   39 1  
    42   13   40 1  
    43   13   41 1  
    44   16   42 1  
    45   16   43 1  
    46   19   44 1  
    47   19   45 1  
    48   24   46 1  
    49   26   47 1  
    50   26   48 1  
@<TRIPOS>SUBSTRUCTURE
     1 94I         1

