### 
### Created by X-TOOL on Mon Aug  2 16:12:23 2021
### 

@<TRIPOS>MOLECULE
5zbz_ligand
   40    45     1     0     0
SMALL
GAST_HUCK


@<TRIPOS>ATOM
      1 N         -15.5170   -5.6180   27.0080 N.pl3     1 SAU        -0.3002
      2 C1        -21.5240   -3.7530   25.5890 C.3       1 SAU         0.1887
      3 O1        -20.4680   -4.6890   25.5050 O.3       1 SAU        -0.2890
      4 C2        -19.5820   -2.7260   26.1340 C.ar      1 SAU         0.1261
      5 O2        -20.8860   -2.5120   25.7570 O.3       1 SAU        -0.2871
      6 C3        -19.3320   -4.0650   26.0090 C.ar      1 SAU         0.1261
      7 O3        -10.0500   -5.7890   29.1120 O.3       1 SAU        -0.2940
      8 C4        -18.5950   -1.8060   26.5640 C.ar      1 SAU        -0.0365
      9 O4        -11.5880   -7.0740   28.1040 O.3       1 SAU        -0.2960
     10 C5        -17.3440   -2.3510   26.8760 C.ar      1 SAU        -0.0470
     11 C6        -17.1020   -3.7280   26.7750 C.ar      1 SAU        -0.0099
     12 C7        -18.0970   -4.6030   26.3230 C.ar      1 SAU        -0.0317
     13 C8        -16.3490   -1.4690   27.3280 C.ar      1 SAU        -0.0814
     14 C9        -15.0980   -1.9540   27.6850 C.ar      1 SAU        -0.0793
     15 C10       -15.8150   -4.2520   27.1350 C.ar      1 SAU         0.0523
     16 C12       -14.2960   -6.1230   27.4300 C.3       1 SAU         0.0571
     17 C13       -13.2710   -5.2090   27.8040 C.ar      1 SAU         0.0041
     18 C14       -13.5410   -3.8820   27.9400 C.ar      1 SAU        -0.0437
     19 C15       -14.8240   -3.3610   27.5700 C.ar      1 SAU        -0.0182
     20 C18       -12.5850   -3.0770   28.5560 C.ar      1 SAU        -0.0839
     21 C19       -11.3460   -3.5860   28.9250 C.ar      1 SAU        -0.0493
     22 C20       -11.1150   -4.9460   28.7620 C.ar      1 SAU         0.1153
     23 C21       -12.0470   -5.7590   28.1980 C.ar      1 SAU         0.1245
     24 C23       -10.4910   -7.1130   29.0310 C.3       1 SAU         0.1847
     25 C25       -16.2090   -6.8820   26.7260 C.3       1 SAU         0.0190
     26 H1        -22.1726   -3.9756   26.4491 H         1 SAU         0.0977
     27 H2        -22.1231   -3.7597   24.6665 H         1 SAU         0.0977
     28 H3        -18.7961   -0.7440   26.6465 H         1 SAU         0.0462
     29 H4        -17.9062   -5.6653   26.2226 H         1 SAU         0.0493
     30 H5        -16.5581   -0.4077   27.3983 H         1 SAU         0.0437
     31 H6        -14.3332   -1.2768   28.0478 H         1 SAU         0.0526
     32 H7        -13.8983   -6.7371   26.6087 H         1 SAU         0.0655
     33 H8        -14.4942   -6.7621   28.3030 H         1 SAU         0.0655
     34 H9        -12.8120   -2.0351   28.7508 H         1 SAU         0.0460
     35 H10       -10.5779   -2.9373   29.3304 H         1 SAU         0.0456
     36 H11       -10.8270   -7.4712   30.0152 H         1 SAU         0.0969
     37 H12        -9.6896   -7.7670   28.6568 H         1 SAU         0.0969
     38 H13       -17.2275   -6.6705   26.3682 H         1 SAU         0.0485
     39 H14       -16.2609   -7.4845   27.6448 H         1 SAU         0.0485
     40 H15       -15.6571   -7.4378   25.9537 H         1 SAU         0.0485
@<TRIPOS>BOND
     1    1   15 1  
     2   16    1 1  
     3    1   25 1  
     4    3    2 1  
     5    5    2 1  
     6    6    3 1  
     7    4    5 1  
     8    6    4 ar 
     9    8    4 ar 
    10   12    6 ar 
    11    7   22 1  
    12   24    7 1  
    13   10    8 ar 
    14   23    9 1  
    15    9   24 1  
    16   11   10 ar 
    17   10   13 ar 
    18   11   12 ar 
    19   15   11 ar 
    20   14   13 ar 
    21   19   14 ar 
    22   15   19 ar 
    23   17   16 1  
    24   17   18 ar 
    25   17   23 ar 
    26   18   19 1  
    27   18   20 ar 
    28   20   21 ar 
    29   21   22 ar 
    30   22   23 ar 
    31    2   26 1  
    32    2   27 1  
    33    8   28 1  
    34   12   29 1  
    35   13   30 1  
    36   14   31 1  
    37   16   32 1  
    38   16   33 1  
    39   20   34 1  
    40   21   35 1  
    41   24   36 1  
    42   24   37 1  
    43   25   38 1  
    44   25   39 1  
    45   25   40 1  
@<TRIPOS>SUBSTRUCTURE
     1 SAU         1

