### 
### Created by X-TOOL on Wed Jan  1 15:39:37 2020
### 

@<TRIPOS>MOLECULE
5zc5_ligand
   53    56     1     0     0
SMALL
GAST_HUCK


@<TRIPOS>ATOM
      1 C5         -2.2560  -32.8620  -31.9880 C.ar      1 09I         0.1256
      2 C8         -1.5530  -32.6110  -28.4000 C.2       1 09I         0.1361
      3 C3         -4.3240  -31.5930  -31.8980 C.ar      1 09I        -0.0757
      4 C6         -2.1040  -32.7060  -30.6090 C.ar      1 09I         0.0261
      5 C1         -3.0590  -32.0050  -29.9210 C.ar      1 09I         0.1220
      6 C17         1.8390  -28.6920  -27.7530 C.3       1 09I        -0.0511
      7 C14        -0.1080  -29.2920  -25.5870 C.3       1 09I         0.0333
      8 C9         -1.0310  -32.7210  -27.0250 C.ar      1 09I         0.1255
      9 C20        -1.4700  -37.8430  -25.7890 C.cat     1 09I         0.3257
     10 C19        -0.4030  -29.7890  -27.9850 C.3       1 09I         0.0333
     11 C4         -3.3730  -32.3080  -32.6260 C.ar      1 09I        -0.0428
     12 C13        -0.9370  -35.7010  -24.8730 C.2       1 09I         0.2152
     13 C7         -1.1270  -33.1170  -29.6260 C.2       1 09I        -0.0375
     14 C18         1.0350  -29.7720  -28.4780 C.3       1 09I        -0.0320
     15 C2         -4.1740  -31.4300  -30.5200 C.ar      1 09I        -0.0354
     16 F1         -1.3320  -33.5430  -32.6870 F         1 09I        -0.1882
     17 O1         -2.7430  -31.9660  -28.6470 O.3       1 09I        -0.2548
     18 C12        -0.5710  -31.6720  -26.2170 C.ar      1 09I         0.1466
     19 N3         -0.3930  -30.3100  -26.6060 N.pl3     1 09I        -0.2852
     20 C16         2.3880  -29.2070  -26.4190 C.3       1 09I        -0.0511
     21 C15         1.3900  -29.3080  -25.2560 C.3       1 09I        -0.0320
     22 N2         -0.2120  -32.0170  -24.9390 N.ar      1 09I        -0.2409
     23 C11        -0.3150  -33.2750  -24.4550 C.ar      1 09I         0.1432
     24 N4          0.0550  -33.5460  -23.1800 N.pl3     1 09I        -0.3146
     25 C10        -0.8090  -34.2760  -25.2790 C.ar      1 09I         0.1513
     26 N1         -1.1490  -33.9730  -26.5450 N.ar      1 09I        -0.2730
     27 O2         -0.8090  -36.0180  -23.7030 O.2       1 09I        -0.3891
     28 N5         -1.0920  -36.5760  -25.8860 N.am      1 09I        -0.2245
     29 N7         -1.5350  -38.5710  -26.9050 N.pl3     1 09I        -0.2544
     30 N6         -1.7670  -38.3800  -24.6090 N.pl3     1 09I        -0.2544
     31 H1         -5.1812  -31.1631  -32.4035 H         1 09I         0.0535
     32 H2          1.1864  -27.8274  -27.5618 H         1 09I         0.0266
     33 H3          2.6801  -28.3827  -28.3909 H         1 09I         0.0266
     34 H4         -0.6871  -29.5106  -24.6777 H         1 09I         0.0529
     35 H5         -0.3885  -28.3000  -25.9707 H         1 09I         0.0529
     36 H6         -1.0128  -30.4406  -28.6281 H         1 09I         0.0529
     37 H7         -0.8166  -28.7698  -27.9983 H         1 09I         0.0529
     38 H8         -3.4996  -32.4360  -33.6950 H         1 09I         0.0508
     39 H9         -0.2308  -33.7082  -29.8087 H         1 09I         0.0365
     40 H10         1.4940  -30.7534  -28.2880 H         1 09I         0.0285
     41 H11         1.0444  -29.5658  -29.5584 H         1 09I         0.0285
     42 H12        -4.9007  -30.8750  -29.9378 H         1 09I         0.0520
     43 H13         3.1961  -28.5291  -26.1069 H         1 09I         0.0266
     44 H14         2.7994  -30.2121  -26.5935 H         1 09I         0.0266
     45 H15         1.5980  -30.2502  -24.7279 H         1 09I         0.0285
     46 H16         1.5852  -28.4598  -24.5834 H         1 09I         0.0285
     47 H17        -0.0244  -34.5053  -22.8136 H         1 09I         0.1818
     48 H18         0.4157  -32.7927  -22.5772 H         1 09I         0.1818
     49 H19        -0.9022  -36.2342  -26.8064 H         1 09I         0.1846
     50 H20        -1.8256  -39.5581  -26.8598 H         1 09I         0.3199
     51 H21        -1.2946  -38.1460  -27.8119 H         1 09I         0.3199
     52 H22        -1.7130  -37.8076  -23.7544 H         1 09I         0.3199
     53 H23        -2.0510  -39.3683  -24.5498 H         1 09I         0.3199
@<TRIPOS>BOND
     1    4    1 ar 
     2    1   11 ar 
     3    1   16 1  
     4    8    2 1  
     5    2   13 2  
     6    2   17 1  
     7    3   11 ar 
     8   15    3 ar 
     9    5    4 ar 
    10   13    4 1  
    11    5   15 ar 
    12   17    5 1  
    13   14    6 1  
    14    6   20 1  
    15   19    7 1  
    16    7   21 1  
    17   18    8 ar 
    18    8   26 ar 
    19   28    9 ar 
    20    9   29 ar 
    21    9   30 ar 
    22   10   14 1  
    23   19   10 1  
    24   25   12 1  
    25   12   27 2  
    26   12   28 am 
    27   18   19 1  
    28   22   18 ar 
    29   21   20 1  
    30   23   22 ar 
    31   23   24 1  
    32   23   25 ar 
    33   25   26 ar 
    34    3   31 1  
    35    6   32 1  
    36    6   33 1  
    37    7   34 1  
    38    7   35 1  
    39   10   36 1  
    40   10   37 1  
    41   11   38 1  
    42   13   39 1  
    43   14   40 1  
    44   14   41 1  
    45   15   42 1  
    46   20   43 1  
    47   20   44 1  
    48   21   45 1  
    49   21   46 1  
    50   24   47 1  
    51   24   48 1  
    52   28   49 1  
    53   29   50 1  
    54   29   51 1  
    55   30   52 1  
    56   30   53 1  
@<TRIPOS>SUBSTRUCTURE
     1 09I         1

