### 
### Created by X-TOOL on Mon Aug  2 16:12:23 2021
### 

@<TRIPOS>MOLECULE
5zcu_ligand
   35    37     1     0     0
SMALL
GAST_HUCK


@<TRIPOS>ATOM
      1 S         -21.9840   -3.4930   30.2670 S.o2      1 PYV         0.0724
      2 BR        -24.1210   -0.6400   35.6790 Br        1 PYV        -0.0495
      3 C1        -23.4470   -1.7030   34.2030 C.ar      1 PYV         0.0197
      4 N1        -23.0330   -4.7560   29.7870 N.am      1 PYV        -0.2334
      5 O1        -20.5870   -3.9290   30.2880 O.2       1 PYV        -0.1496
      6 C2        -23.0400   -3.0490   34.2500 C.ar      1 PYV        -0.0084
      7 N2        -25.6720   -6.3800   30.7570 N.ar      1 PYV        -0.2964
      8 O2        -21.9450   -2.4040   29.2880 O.2       1 PYV        -0.1496
      9 C3        -22.5840   -3.6600   33.1100 C.ar      1 PYV         0.0112
     10 C4        -22.5270   -2.9450   31.9060 C.ar      1 PYV         0.1195
     11 C5        -22.9290   -1.6180   31.8510 C.ar      1 PYV        -0.0306
     12 C6        -23.3900   -0.9950   33.0070 C.ar      1 PYV        -0.0494
     13 C7        -22.1770   -5.0060   33.1320 C.ar      1 PYV        -0.0511
     14 C8        -22.2310   -5.7250   34.3150 C.ar      1 PYV        -0.0605
     15 C9        -22.6880   -5.1080   35.4720 C.ar      1 PYV        -0.0607
     16 C10       -23.0940   -3.7790   35.4510 C.ar      1 PYV        -0.0538
     17 C11       -24.4580   -4.5040   29.6550 C.3       1 PYV         0.0756
     18 C12       -25.2580   -5.0960   30.8150 C.ar      1 PYV         0.0465
     19 C13       -26.3850   -6.9080   31.7770 C.ar      1 PYV         0.0028
     20 C14       -26.7010   -6.1340   32.8800 C.ar      1 PYV        -0.0410
     21 C15       -26.2930   -4.8430   32.9390 C.ar      1 PYV        -0.0488
     22 C16       -25.5800   -4.3150   31.9150 C.ar      1 PYV        -0.0308
     23 H1        -22.6660   -5.6667   29.5974 H         1 PYV         0.1703
     24 H2        -22.8844   -1.0714   30.9159 H         1 PYV         0.0646
     25 H3        -23.7046    0.0419   32.9754 H         1 PYV         0.0655
     26 H4        -21.8215   -5.4803   32.2244 H         1 PYV         0.0630
     27 H5        -21.9185   -6.7627   34.3373 H         1 PYV         0.0618
     28 H6        -22.7284   -5.6677   36.3995 H         1 PYV         0.0624
     29 H7        -23.4516   -3.3060   36.3584 H         1 PYV         0.0620
     30 H8        -24.8117   -4.9528   28.7151 H         1 PYV         0.0668
     31 H9        -24.6247   -3.4171   29.6279 H         1 PYV         0.0668
     32 H10       -26.7103   -7.9410   31.7308 H         1 PYV         0.0803
     33 H11       -27.2741   -6.5599   33.6956 H         1 PYV         0.0652
     34 H12       -26.5363   -4.2348   33.8027 H         1 PYV         0.0719
     35 H13       -25.2605   -3.2799   31.9555 H         1 PYV         0.0652
@<TRIPOS>BOND
     1    4    1 am 
     2    1    5 2  
     3    1    8 2  
     4    1   10 1  
     5    3    2 1  
     6    6    3 ar 
     7   12    3 ar 
     8   17    4 1  
     9    9    6 ar 
    10    6   16 ar 
    11   18    7 ar 
    12    7   19 ar 
    13   10    9 ar 
    14    9   13 ar 
    15   10   11 ar 
    16   11   12 ar 
    17   13   14 ar 
    18   14   15 ar 
    19   16   15 ar 
    20   17   18 1  
    21   18   22 ar 
    22   19   20 ar 
    23   20   21 ar 
    24   21   22 ar 
    25    4   23 1  
    26   11   24 1  
    27   12   25 1  
    28   13   26 1  
    29   14   27 1  
    30   15   28 1  
    31   16   29 1  
    32   17   30 1  
    33   17   31 1  
    34   19   32 1  
    35   20   33 1  
    36   21   34 1  
    37   22   35 1  
@<TRIPOS>SUBSTRUCTURE
     1 PYV         1

