### 
### Created by X-TOOL on Mon Aug  2 16:12:24 2021
### 

@<TRIPOS>MOLECULE
5zdp_ligand
   57    58     1     0     0
SMALL
GAST_HUCK


@<TRIPOS>ATOM
      1 OAE       254.9230   53.0020  137.9920 O.2       1 MOL        -0.3850
      2 CAY       254.0540   52.1240  137.8220 C.2       1 MOL         0.2564
      3 OAS       252.8200   52.3190  138.3780 O.3       1 MOL        -0.2154
      4 CAZ       251.8280   51.3920  138.2040 C.ar      1 MOL         0.1386
      5 CBA       252.0790   50.2340  137.4640 C.ar      1 MOL         0.0509
      6 CAM       251.0810   49.2930  137.3080 C.ar      1 MOL        -0.0563
      7 CAK       249.8400   49.5200  137.8860 C.ar      1 MOL        -0.0702
      8 CAJ       249.5890   50.6710  138.6140 C.ar      1 MOL        -0.0682
      9 CAL       250.5810   51.6180  138.7750 C.ar      1 MOL        -0.0246
     10 CAW       253.3350   50.0200  136.9000 C.2       1 MOL         0.1080
     11 OAF       253.5690   48.8810  136.1800 O.3       1 MOL        -0.3326
     12 CAX       254.3300   50.9810  137.0850 C.2       1 MOL         0.0614
     13 CAP       255.7000   50.7810  136.5800 C.3       1 MOL        -0.0160
     14 CAI       255.8960   49.6980  135.6480 C.2       1 MOL        -0.1017
     15 CAV       256.6230   49.9740  134.5590 C.2       1 MOL        -0.0809
     16 CAD       257.3890   51.2240  134.4880 C.3       1 MOL        -0.0397
     17 CAR       256.7310   49.0630  133.3690 C.3       1 MOL        -0.0249
     18 CAO       255.5530   49.4980  132.4740 C.3       1 MOL        -0.0386
     19 CAH       255.8820   49.5930  131.0000 C.2       1 MOL        -0.1070
     20 CAU       255.6540   48.5890  130.1210 C.2       1 MOL        -0.0827
     21 CAC       255.0900   47.2550  130.5360 C.3       1 MOL        -0.0402
     22 CAQ       256.0430   48.7930  128.6740 C.3       1 MOL        -0.0254
     23 CAN       254.8830   48.7060  127.6970 C.3       1 MOL        -0.0388
     24 CAG       255.4400   48.2670  126.3490 C.2       1 MOL        -0.1074
     25 CAT       255.1730   48.8840  125.1740 C.2       1 MOL        -0.0870
     26 CAB       255.7770   48.3660  123.9060 C.3       1 MOL        -0.0406
     27 CAA       254.2830   50.0800  125.0870 C.3       1 MOL        -0.0406
     28 H1        251.2646   48.3877  136.7408 H         1 MOL         0.0600
     29 H2        249.0536   48.7837  137.7656 H         1 MOL         0.0539
     30 H3        248.6127   50.8287  139.0579 H         1 MOL         0.0596
     31 H4        250.3901   52.5242  139.3383 H         1 MOL         0.0557
     32 H5        254.4654   48.8852  135.8653 H         1 MOL         0.2494
     33 H6        256.3510   50.5961  137.4471 H         1 MOL         0.0449
     34 H7        256.0099   51.7107  136.0803 H         1 MOL         0.0449
     35 H8        255.4750   48.7087  135.8212 H         1 MOL         0.0256
     36 H9        257.9190   51.2750  133.5255 H         1 MOL         0.0377
     37 H10       258.1188   51.2541  135.3105 H         1 MOL         0.0377
     38 H11       256.7033   52.0797  134.5747 H         1 MOL         0.0377
     39 H12       256.6283   48.0099  133.6695 H         1 MOL         0.0427
     40 H13       257.6912   49.2047  132.8513 H         1 MOL         0.0427
     41 H14       255.2114   50.4870  132.8135 H         1 MOL         0.0361
     42 H15       254.7404   48.7670  132.5975 H         1 MOL         0.0361
     43 H16       256.3246   50.5157  130.6275 H         1 MOL         0.0244
     44 H17       254.9947   46.6064  129.6527 H         1 MOL         0.0375
     45 H18       254.0997   47.4014  130.9919 H         1 MOL         0.0375
     46 H19       255.7638   46.7832  131.2663 H         1 MOL         0.0375
     47 H20       256.7799   48.0225  128.4034 H         1 MOL         0.0425
     48 H21       256.5009   49.7884  128.5773 H         1 MOL         0.0425
     49 H22       254.4011   49.6901  127.6000 H         1 MOL         0.0361
     50 H23       254.1470   47.9710  128.0548 H         1 MOL         0.0361
     51 H24       256.0970   47.3987  126.3291 H         1 MOL         0.0244
     52 H25       255.4488   48.9902  123.0618 H         1 MOL         0.0375
     53 H26       255.4521   47.3279  123.7424 H         1 MOL         0.0375
     54 H27       256.8739   48.3993  123.9819 H         1 MOL         0.0375
     55 H28       253.9185   50.3396  126.0918 H         1 MOL         0.0375
     56 H29       253.4274   49.8537  124.4338 H         1 MOL         0.0375
     57 H30       254.8475   50.9277  124.6714 H         1 MOL         0.0375
@<TRIPOS>BOND
     1    1    2 2  
     2    2    3 1  
     3    2   12 1  
     4    3    4 1  
     5    4    5 ar 
     6    4    9 ar 
     7    5    6 ar 
     8    5   10 1  
     9    6    7 ar 
    10    7    8 ar 
    11    8    9 ar 
    12   10   11 1  
    13   10   12 2  
    14   12   13 1  
    15   13   14 1  
    16   14   15 2  
    17   15   16 1  
    18   15   17 1  
    19   17   18 1  
    20   18   19 1  
    21   19   20 2  
    22   20   21 1  
    23   20   22 1  
    24   22   23 1  
    25   23   24 1  
    26   24   25 2  
    27   25   26 1  
    28   25   27 1  
    29    6   28 1  
    30    7   29 1  
    31    8   30 1  
    32    9   31 1  
    33   11   32 1  
    34   13   33 1  
    35   13   34 1  
    36   14   35 1  
    37   16   36 1  
    38   16   37 1  
    39   16   38 1  
    40   17   39 1  
    41   17   40 1  
    42   18   41 1  
    43   18   42 1  
    44   19   43 1  
    45   21   44 1  
    46   21   45 1  
    47   21   46 1  
    48   22   47 1  
    49   22   48 1  
    50   23   49 1  
    51   23   50 1  
    52   24   51 1  
    53   26   52 1  
    54   26   53 1  
    55   26   54 1  
    56   27   55 1  
    57   27   56 1  
    58   27   57 1  
@<TRIPOS>SUBSTRUCTURE
     1 MOL         1

