### 
### Created by X-TOOL on Mon Aug  2 16:12:25 2021
### 

@<TRIPOS>MOLECULE
5zee_ligand
   29    28     1     0     0
SMALL
GAST_HUCK


@<TRIPOS>ATOM
      1 N          -3.6920   19.6960   -8.7720 N.4       1 HAR         0.2328
      2 CA         -2.7410   19.6940   -9.9390 C.3       1 HAR         0.0313
      3 C          -3.4940   19.5510  -11.2810 C.2       1 HAR         0.0847
      4 O          -2.8590   20.0090  -12.2680 O.co2     1 HAR        -0.5642
      5 CB         -1.7230   18.5720   -9.8010 C.3       1 HAR         0.0200
      6 CG         -2.4350   17.2440   -9.4730 C.3       1 HAR         0.0140
      7 CD         -1.7380   15.9520   -9.8340 C.2       1 HAR         0.0103
      8 NE         -0.5140   15.7390   -9.4470 N.2       1 HAR        -0.2552
      9 CZ          0.1140   14.4540   -9.7600 C.3       1 HAR         0.0890
     10 NH1        -0.6650   13.4120   -9.0240 N.4       1 HAR         0.4251
     11 NH2         1.5290   14.5140   -9.4970 N.4       1 HAR         0.2647
     12 OH1        -0.4430   13.1640   -7.6510 O.3       1 HAR        -0.3365
     13 OXT        -4.6560   19.0100  -11.2700 O.co2     1 HAR        -0.5642
     14 H1         -3.1711   19.7904   -7.9142 H         1 HAR         0.2010
     15 H2         -4.2084   18.8305   -8.7579 H         1 HAR         0.2010
     16 H3         -4.3332   20.4685   -8.8624 H         1 HAR         0.2010
     17 H4         -2.2035   20.6537   -9.9443 H         1 HAR         0.1027
     18 H5         -1.0199   18.8169   -8.9913 H         1 HAR         0.0374
     19 H6         -1.1707   18.4643  -10.7461 H         1 HAR         0.0374
     20 H7         -3.4002   17.2523  -10.0005 H         1 HAR         0.0546
     21 H8         -2.6107   17.2275   -8.3873 H         1 HAR         0.0546
     22 H9         -2.2616   15.1976  -10.4194 H         1 HAR         0.1208
     23 H10        -0.0010   14.2549  -10.8357 H         1 HAR         0.1629
     24 H11        -0.4984   12.5403   -9.5020 H         1 HAR         0.2435
     25 H12        -1.6366   13.6647   -9.1149 H         1 HAR         0.2435
     26 H13         1.9422   15.2503  -10.0477 H         1 HAR         0.2062
     27 H14         1.9538   13.6331   -9.7411 H         1 HAR         0.2062
     28 H15         1.6812   14.7007   -8.5182 H         1 HAR         0.2062
     29 H16        -1.0252   12.4733   -7.3569 H         1 HAR         0.2697
@<TRIPOS>BOND
     1    1    2 1  
     2    2    3 1  
     3    2    5 1  
     4    3    4 ar 
     5    3   13 ar 
     6    5    6 1  
     7    6    7 1  
     8    7    8 2  
     9    8    9 1  
    10    9   10 1  
    11    9   11 1  
    12   10   12 1  
    13    1   14 1  
    14    1   15 1  
    15    1   16 1  
    16    2   17 1  
    17    5   18 1  
    18    5   19 1  
    19    6   20 1  
    20    6   21 1  
    21    7   22 1  
    22    9   23 1  
    23   10   24 1  
    24   10   25 1  
    25   11   26 1  
    26   11   27 1  
    27   11   28 1  
    28   12   29 1  
@<TRIPOS>SUBSTRUCTURE
     1 HAR         1

