### 
### Created by X-TOOL on Mon Aug  2 16:12:25 2021
### 

@<TRIPOS>MOLECULE
5zef_ligand
   19    18     1     0     0
SMALL
GAST_HUCK


@<TRIPOS>ATOM
      1 N          -3.9400  -19.6220   11.7860 N.4       1 NVA         0.2327
      2 CA         -3.0240  -19.8310   12.9060 C.3       1 NVA         0.0283
      3 CB         -1.7650  -18.9400   12.7590 C.3       1 NVA         0.0021
      4 CG         -2.0640  -17.4370   12.6960 C.3       1 NVA        -0.0492
      5 CD         -0.8120  -16.5610   12.7280 C.3       1 NVA        -0.0650
      6 C          -3.7270  -19.5930   14.2520 C.2       1 NVA         0.0844
      7 O          -4.9130  -19.1720   14.1110 O.co2     1 NVA        -0.5643
      8 OXT        -2.9220  -19.8870   15.1760 O.co2     1 NVA        -0.5643
      9 H1         -3.4528  -19.7846   10.9187 H         1 NVA         0.2010
     10 H2         -4.2841  -18.6748   11.8056 H         1 NVA         0.2010
     11 H3         -4.7147  -20.2625   11.8614 H         1 NVA         0.2010
     12 H4         -2.6968  -20.8809   12.8815 H         1 NVA         0.1024
     13 H5         -1.2447  -19.2275   11.8335 H         1 NVA         0.0338
     14 H6         -1.1082  -19.1254   13.6217 H         1 NVA         0.0338
     15 H7         -2.6956  -17.1719   13.5567 H         1 NVA         0.0266
     16 H8         -2.6092  -17.2299   11.7634 H         1 NVA         0.0266
     17 H9         -1.1044  -15.5017   12.6797 H         1 NVA         0.0230
     18 H10        -0.1721  -16.8044   11.8670 H         1 NVA         0.0230
     19 H11        -0.2585  -16.7464   13.6603 H         1 NVA         0.0230
@<TRIPOS>BOND
     1    1    2 1  
     2    2    3 1  
     3    2    6 1  
     4    3    4 1  
     5    4    5 1  
     6    6    7 ar 
     7    6    8 ar 
     8    1    9 1  
     9    1   10 1  
    10    1   11 1  
    11    2   12 1  
    12    3   13 1  
    13    3   14 1  
    14    4   15 1  
    15    4   16 1  
    16    5   17 1  
    17    5   18 1  
    18    5   19 1  
@<TRIPOS>SUBSTRUCTURE
     1 NVA         1

