### 
### Created by X-TOOL on Wed Jan  1 15:39:36 2020
### 

@<TRIPOS>MOLECULE
5zfi_ligand
   66    69     1     0     0
SMALL
GAST_HUCK


@<TRIPOS>ATOM
      1 C1        -10.9690   24.7660   51.5860 C.2       1 9C9         0.1898
      2 O2        -10.6570   24.4730   50.4280 O.2       1 9C9        -0.3960
      3 CL1       -10.4330   21.1920   54.3210 Cl        1 9C9        -0.0772
      4 C6        -11.9730   20.6730   53.6010 C.ar      1 9C9         0.0420
      5 C7        -12.6450   19.6120   54.1850 C.ar      1 9C9        -0.0544
      6 C8        -13.8310   19.1520   53.6450 C.ar      1 9C9        -0.0677
      7 C9        -14.3750   19.8070   52.5520 C.ar      1 9C9        -0.0544
      8 C10       -13.6850   20.8610   51.9600 C.ar      1 9C9         0.0420
      9 CL2       -14.3900   21.6920   50.5750 Cl        1 9C9        -0.0772
     10 C5        -12.5160   21.3410   52.5060 C.ar      1 9C9        -0.0123
     11 C4        -11.7340   22.4220   51.7550 C.3       1 9C9         0.0037
     12 C3        -11.7290   23.7950   52.4310 C.3       1 9C9         0.0787
     13 C11       -13.1340   24.2430   52.6480 C.3       1 9C9         0.0489
     14 N12       -13.2970   25.3210   53.5910 N.pl3     1 9C9        -0.3044
     15 C13       -12.4540   26.3300   53.8240 C.2       1 9C9         0.1137
     16 N14       -12.9230   27.2860   54.5020 N.2       1 9C9        -0.2604
     17 N62       -14.2190   27.1760   54.8780 N.pl3     1 9C9        -0.3004
     18 C63       -15.1220   28.1870   54.2900 C.3       1 9C9         0.0147
     19 C68       -14.3370   27.1080   56.3510 C.3       1 9C9         0.0147
     20 C15       -10.9360   26.2580   53.5620 C.3       1 9C9         0.1034
     21 N16       -10.5970   25.9090   52.1630 N.am      1 9C9        -0.2369
     22 C17        -9.7370   26.8590   51.4360 C.3       1 9C9         0.1311
     23 C19        -8.4460   26.1550   50.9730 C.2       1 9C9         0.2263
     24 O30        -7.9510   25.2780   51.6670 O.2       1 9C9        -0.3827
     25 N20        -7.9070   26.5700   49.7990 N.am      1 9C9        -0.2335
     26 C21        -6.7730   25.9890   49.2400 C.ar      1 9C9         0.0608
     27 C25        -5.8440   25.2310   49.9940 C.ar      1 9C9        -0.0427
     28 C26        -4.7430   24.6330   49.3540 C.ar      1 9C9        -0.0493
     29 C27        -4.5420   24.8250   47.9890 C.ar      1 9C9        -0.0774
     30 C28        -5.4460   25.5710   47.2490 C.ar      1 9C9        -0.0801
     31 C29        -6.5420   26.1650   47.8700 C.ar      1 9C9        -0.0460
     32 C60        -3.7400   23.8300   50.1240 C.2       1 9C9        -0.0024
     33 C64        -3.9950   22.9680   51.2020 C.2       1 9C9         0.0059
     34 N63        -2.8130   22.4270   51.5970 N.2       1 9C9        -0.2135
     35 N71        -1.8450   22.9490   50.7330 N.pl3     1 9C9        -0.2056
     36 C67        -0.4480   22.4990   50.9870 C.3       1 9C9         0.0615
     37 C61        -2.3750   23.7890   49.8590 C.2       1 9C9         0.0638
     38 H1        -12.2379   19.1393   55.0715 H         1 9C9         0.0607
     39 H2        -14.3297   18.2891   54.0714 H         1 9C9         0.0560
     40 H3        -15.3369   19.4990   52.1583 H         1 9C9         0.0607
     41 H4        -12.1787   22.5342   50.7552 H         1 9C9         0.0458
     42 H5        -10.6916   22.0848   51.6569 H         1 9C9         0.0458
     43 H6        -11.2302   23.7131   53.4079 H         1 9C9         0.0581
     44 H7        -13.7131   23.3818   53.0127 H         1 9C9         0.0548
     45 H8        -13.5388   24.5738   51.6802 H         1 9C9         0.0548
     46 H9        -14.1628   25.3119   54.1489 H         1 9C9         0.1815
     47 H10       -16.1470   28.0177   54.6517 H         1 9C9         0.0465
     48 H11       -15.1017   28.1033   53.1934 H         1 9C9         0.0465
     49 H12       -14.7897   29.1926   54.5872 H         1 9C9         0.0465
     50 H13       -15.3973   27.0192   56.6302 H         1 9C9         0.0465
     51 H14       -13.9163   28.0222   56.7952 H         1 9C9         0.0465
     52 H15       -13.7853   26.2321   56.7230 H         1 9C9         0.0465
     53 H16       -10.5031   25.4956   54.2263 H         1 9C9         0.0749
     54 H17       -10.4952   27.2389   53.7933 H         1 9C9         0.0749
     55 H18        -9.4769   27.6965   52.1001 H         1 9C9         0.0773
     56 H19       -10.2780   27.2416   50.5580 H         1 9C9         0.0773
     57 H20        -8.3443   27.3272   49.3138 H         1 9C9         0.2255
     58 H21        -5.9811   25.1118   51.0627 H         1 9C9         0.0451
     59 H22        -3.6758   24.3896   47.5040 H         1 9C9         0.0449
     60 H23        -5.2992   25.6927   46.1819 H         1 9C9         0.0566
     61 H24        -7.2248   26.7711   47.2856 H         1 9C9         0.0465
     62 H25        -4.9698   22.7679   51.6444 H         1 9C9         0.0675
     63 H26         0.2267   22.9669   50.2550 H         1 9C9         0.0607
     64 H27        -0.3919   21.4047   50.8902 H         1 9C9         0.0607
     65 H28        -0.1471   22.7931   52.0033 H         1 9C9         0.0607
     66 H29        -1.8459   24.3407   49.0834 H         1 9C9         0.1041
@<TRIPOS>BOND
     1    1    2 2  
     2   12    1 1  
     3    1   21 am 
     4    4    3 1  
     5    4    5 ar 
     6   10    4 ar 
     7    5    6 ar 
     8    7    6 ar 
     9    8    7 ar 
    10    8    9 1  
    11   10    8 ar 
    12   11   10 1  
    13   11   12 1  
    14   12   13 1  
    15   13   14 1  
    16   14   15 1  
    17   15   16 2  
    18   15   20 1  
    19   16   17 1  
    20   17   18 1  
    21   17   19 1  
    22   20   21 1  
    23   21   22 1  
    24   22   23 1  
    25   23   24 2  
    26   23   25 am 
    27   25   26 1  
    28   26   27 ar 
    29   26   31 ar 
    30   27   28 ar 
    31   28   29 ar 
    32   28   32 1  
    33   29   30 ar 
    34   30   31 ar 
    35   32   33 1  
    36   32   37 2  
    37   33   34 2  
    38   34   35 1  
    39   35   36 1  
    40   35   37 1  
    41    5   38 1  
    42    6   39 1  
    43    7   40 1  
    44   11   41 1  
    45   11   42 1  
    46   12   43 1  
    47   13   44 1  
    48   13   45 1  
    49   14   46 1  
    50   18   47 1  
    51   18   48 1  
    52   18   49 1  
    53   19   50 1  
    54   19   51 1  
    55   19   52 1  
    56   20   53 1  
    57   20   54 1  
    58   22   55 1  
    59   22   56 1  
    60   25   57 1  
    61   27   58 1  
    62   29   59 1  
    63   30   60 1  
    64   31   61 1  
    65   33   62 1  
    66   36   63 1  
    67   36   64 1  
    68   36   65 1  
    69   37   66 1  
@<TRIPOS>SUBSTRUCTURE
     1 9C9         1

