### 
### Created by X-TOOL on Mon Aug  2 16:10:29 2021
### 

@<TRIPOS>MOLECULE
5zg0_ligand
   42    44     1     0     0
SMALL
GAST_HUCK


@<TRIPOS>ATOM
      1 C4         33.7820  -54.2580   18.9440 C.ar      1 MOL        -0.0385
      2 C5         32.9890  -56.4910   19.2080 C.ar      1 MOL        -0.0213
      3 C6         32.4750  -53.8580   18.7890 C.ar      1 MOL         0.0852
      4 C7         32.7540  -60.1550   18.6580 C.2       1 MOL        -0.0687
      5 C8         32.5930  -58.7420   18.5690 C.2       1 MOL        -0.0623
      6 C10        33.2140  -57.9010   19.4110 C.3       1 MOL         0.0861
      7 C13        34.9900  -59.7330   22.7740 C.3       1 MOL         0.0949
      8 C15        31.1160  -51.4680   20.3360 C.3       1 MOL        -0.0347
      9 C1         31.6890  -56.0780   19.0470 C.ar      1 MOL        -0.0635
     10 C2         34.0360  -55.5940   19.1570 C.ar      1 MOL        -0.0635
     11 C3         31.4330  -54.7510   18.8360 C.ar      1 MOL        -0.0385
     12 C9         33.5550  -60.6360   19.6040 C.3       1 MOL         0.0566
     13 C11        34.0750  -58.4710   20.4610 C.2       1 MOL         0.1336
     14 C12        35.0820  -60.4680   21.4680 C.3       1 MOL         0.0598
     15 C14        32.8820  -50.4470   19.0070 C.3       1 MOL        -0.0347
     16 C16        32.4280  -51.7300   19.6490 C.3       1 MOL         0.0743
     17 N17        34.6110  -57.6040   21.2650 N.2       1 MOL        -0.2334
     18 N18        34.2250  -59.8390   20.4980 N.pl3     1 MOL        -0.2624
     19 O19        36.9560  -58.1930   22.0860 O.2       1 MOL        -0.1668
     20 O20        35.2250  -57.3700   23.6920 O.2       1 MOL        -0.1668
     21 O21        32.1480  -52.5470   18.5450 O.3       1 MOL        -0.3193
     22 S22        35.5590  -58.0850   22.4920 S.o2      1 MOL         0.0177
     23 H1         34.5919  -53.5389   18.8995 H         1 MOL         0.0527
     24 H2         32.2357  -60.8220   17.9707 H         1 MOL         0.0501
     25 H3         31.9466  -58.3320   17.7944 H         1 MOL         0.0495
     26 H4         32.3618  -57.9331   20.1058 H         1 MOL         0.0845
     27 H5         35.6217  -60.2252   23.5281 H         1 MOL         0.0527
     28 H6         33.9472  -59.7162   23.1237 H         1 MOL         0.0527
     29 H7         31.2836  -50.8272   21.2142 H         1 MOL         0.0258
     30 H8         30.6734  -52.4223   20.6575 H         1 MOL         0.0258
     31 H9         30.4315  -50.9628   19.6388 H         1 MOL         0.0258
     32 H10        30.8764  -56.7944   19.0866 H         1 MOL         0.0540
     33 H11        35.0553  -55.9402   19.2842 H         1 MOL         0.0540
     34 H12        30.4134  -54.4063   18.7066 H         1 MOL         0.0527
     35 H13        34.3277  -61.2168   19.0790 H         1 MOL         0.0667
     36 H14        32.9348  -61.3136   20.2092 H         1 MOL         0.0667
     37 H15        34.7667  -61.5119   21.6125 H         1 MOL         0.0553
     38 H16        36.1210  -60.4453   21.1076 H         1 MOL         0.0553
     39 H17        33.8422  -50.6123   18.4964 H         1 MOL         0.0258
     40 H18        33.0060  -49.6741   19.7798 H         1 MOL         0.0258
     41 H19        32.1298  -50.1168   18.2754 H         1 MOL         0.0258
     42 H20        33.1771  -52.1596   20.3304 H         1 MOL         0.0642
@<TRIPOS>BOND
     1    3    1 ar 
     2    1   10 ar 
     3    2    6 1  
     4    9    2 ar 
     5   10    2 ar 
     6    3   11 ar 
     7   21    3 1  
     8    5    4 2  
     9    4   12 1  
    10    6    5 1  
    11    6   13 1  
    12   14    7 1  
    13    7   22 1  
    14   16    8 1  
    15   11    9 ar 
    16   18   12 1  
    17   13   17 2  
    18   13   18 1  
    19   18   14 1  
    20   16   15 1  
    21   16   21 1  
    22   17   22 1  
    23   22   19 2  
    24   22   20 2  
    25    1   23 1  
    26    4   24 1  
    27    5   25 1  
    28    6   26 1  
    29    7   27 1  
    30    7   28 1  
    31    8   29 1  
    32    8   30 1  
    33    8   31 1  
    34    9   32 1  
    35   10   33 1  
    36   11   34 1  
    37   12   35 1  
    38   12   36 1  
    39   14   37 1  
    40   14   38 1  
    41   15   39 1  
    42   15   40 1  
    43   15   41 1  
    44   16   42 1  
@<TRIPOS>SUBSTRUCTURE
     1 MOL         1

