### 
### Created by X-TOOL on Mon Aug  2 16:10:29 2021
### 

@<TRIPOS>MOLECULE
5zg1_ligand
   44    46     1     0     0
SMALL
GAST_HUCK


@<TRIPOS>ATOM
      1 C4         16.1030    1.4500   21.8780 C.ar      1 MOL        -0.0449
      2 C5         16.2490   -0.3210   23.4850 C.ar      1 MOL         0.0208
      3 C6         16.0370    0.5310   20.8500 C.ar      1 MOL        -0.0580
      4 C7         15.6210   -0.6130   27.2260 C.2       1 MOL        -0.0655
      5 C8         15.5180   -0.2690   25.8290 C.2       1 MOL        -0.0537
      6 C10        16.3820   -0.7150   24.8900 C.3       1 MOL         0.1061
      7 C13        19.8570   -2.5380   26.5120 C.3       1 MOL         0.0951
      8 C15        16.0500   -0.0790   18.4150 C.3       1 MOL        -0.0886
      9 C17        15.9130    1.0220   19.4320 C.3       1 MOL        -0.0534
     10 C1         16.1920   -1.2470   22.4640 C.ar      1 MOL        -0.0238
     11 C2         16.2070    1.0260   23.1830 C.ar      1 MOL        -0.0238
     12 C3         16.0800   -0.8180   21.1580 C.ar      1 MOL        -0.0449
     13 C9         16.6070   -1.4290   27.5940 C.3       1 MOL         0.0580
     14 C11        17.4750   -1.6010   25.3650 C.2       1 MOL         0.1422
     15 C12        18.5740   -2.7920   27.2550 C.3       1 MOL         0.0600
     16 C14        14.5360    1.6060   19.2720 C.3       1 MOL        -0.0886
     17 C16        16.9870    2.0400   19.1130 C.3       1 MOL        -0.0886
     18 N18        18.3050   -2.0100   24.4550 N.2       1 MOL        -0.2301
     19 N19        17.5360   -1.9200   26.7180 N.pl3     1 MOL        -0.2608
     20 O20        19.1720   -4.3850   24.7520 O.2       1 MOL        -0.1666
     21 O21        20.7260   -2.5950   24.1210 O.2       1 MOL        -0.1666
     22 S22        19.5520   -2.9830   24.8260 S.o2      1 MOL         0.0186
     23 H1         16.0728    2.5106   21.6562 H         1 MOL         0.0830
     24 H2         14.9156   -0.2184   27.9558 H         1 MOL         0.0524
     25 H3         14.7037    0.3824   25.5152 H         1 MOL         0.0511
     26 H4         15.7431   -1.5893   24.6967 H         1 MOL         0.0941
     27 H5         20.6667   -3.1554   26.9282 H         1 MOL         0.0527
     28 H6         20.1333   -1.4755   26.5813 H         1 MOL         0.0527
     29 H7         15.9506    0.3417   17.4035 H         1 MOL         0.0123
     30 H8         15.2628   -0.8296   18.5789 H         1 MOL         0.0123
     31 H9         17.0368   -0.5538   18.5192 H         1 MOL         0.0123
     32 H10        16.2350   -2.3069   22.6872 H         1 MOL         0.0660
     33 H11        16.2565    1.7567   23.9822 H         1 MOL         0.0660
     34 H12        16.0247   -1.5491   20.3596 H         1 MOL         0.0830
     35 H13        16.1210   -2.3075   28.0436 H         1 MOL         0.0673
     36 H14        17.1748   -0.8888   28.3659 H         1 MOL         0.0673
     37 H15        18.7183   -2.5788   28.3244 H         1 MOL         0.0554
     38 H16        18.2755   -3.8430   27.1276 H         1 MOL         0.0554
     39 H17        14.3952    2.4179   20.0006 H         1 MOL         0.0123
     40 H18        13.7832    0.8230   19.4455 H         1 MOL         0.0123
     41 H19        14.4227    2.0042   18.2529 H         1 MOL         0.0123
     42 H20        17.9779    1.5796   19.2402 H         1 MOL         0.0123
     43 H21        16.8917    2.8990   19.7934 H         1 MOL         0.0123
     44 H22        16.8719    2.3810   18.0736 H         1 MOL         0.0123
@<TRIPOS>BOND
     1    1    3 ar 
     2   11    1 ar 
     3    6    2 1  
     4    2   10 ar 
     5    2   11 ar 
     6    3    9 1  
     7   12    3 ar 
     8    4    5 2  
     9   13    4 1  
    10    6    5 1  
    11   14    6 1  
    12   15    7 1  
    13    7   22 1  
    14    9    8 1  
    15    9   16 1  
    16    9   17 1  
    17   10   12 ar 
    18   19   13 1  
    19   14   18 2  
    20   19   14 1  
    21   15   19 1  
    22   18   22 1  
    23   22   20 2  
    24   22   21 2  
    25    1   23 1  
    26    4   24 1  
    27    5   25 1  
    28    6   26 1  
    29    7   27 1  
    30    7   28 1  
    31    8   29 1  
    32    8   30 1  
    33    8   31 1  
    34   10   32 1  
    35   11   33 1  
    36   12   34 1  
    37   13   35 1  
    38   13   36 1  
    39   15   37 1  
    40   15   38 1  
    41   16   39 1  
    42   16   40 1  
    43   16   41 1  
    44   17   42 1  
    45   17   43 1  
    46   17   44 1  
@<TRIPOS>SUBSTRUCTURE
     1 MOL         1

