### 
### Created by X-TOOL on Mon Aug  2 16:10:29 2021
### 

@<TRIPOS>MOLECULE
5zg3_ligand
   43    46     1     0     0
SMALL
GAST_HUCK


@<TRIPOS>ATOM
      1 N1         34.6330  -59.9890   20.1760 N.pl3     1 MOL        -0.2779
      2 C4         33.9600  -60.8770   19.2880 C.2       1 MOL         0.0110
      3 C5         34.2660  -58.6070   20.1000 C.3       1 MOL         0.1462
      4 C6         35.0980  -59.6260   22.6890 C.3       1 MOL         0.1058
      5 C7         34.9720  -60.5730   21.5050 C.3       1 MOL         0.0563
      6 C8         33.0190  -56.7260   18.9290 C.ar      1 MOL        -0.0384
      7 C10        31.1390  -55.2290   18.9080 C.ar      1 MOL        -0.0307
      8 C13        33.9280  -55.6540   18.9190 C.ar      1 MOL        -0.0663
      9 C15        32.1100  -50.7870   19.5340 C.ar      1 MOL        -0.0284
     10 C17        33.1560  -49.3440   17.9050 C.ar      1 MOL        -0.0723
     11 O2         35.1360  -57.2450   23.3090 O.2       1 MOL        -0.1552
     12 S1         35.5420  -58.0770   22.2260 S.o2      1 MOL         0.0444
     13 O1         36.9870  -58.0400   22.0350 O.2       1 MOL        -0.1552
     14 C3         33.0950  -60.4490   18.2800 C.2       1 MOL        -0.0733
     15 C2         32.7930  -59.0970   18.1460 C.2       1 MOL        -0.0913
     16 N2         34.8240  -57.6760   20.9340 N.am      1 MOL        -0.2179
     17 C1         33.3840  -58.1550   18.9980 C.2       1 MOL        -0.0177
     18 C12        33.3990  -54.3560   18.8880 C.ar      1 MOL        -0.0307
     19 C11        32.0140  -54.1650   18.8850 C.ar      1 MOL         0.1142
     20 C9         31.6500  -56.5040   18.9270 C.ar      1 MOL        -0.0663
     21 O3         31.4130  -52.9330   18.8860 O.3       1 MOL        -0.2589
     22 C14        32.0020  -51.7640   18.5490 C.ar      1 MOL         0.1160
     23 C19        32.4340  -51.5400   17.2380 C.ar      1 MOL        -0.0284
     24 C18        33.0200  -50.3190   16.9170 C.ar      1 MOL        -0.0697
     25 C16        32.7060  -49.5770   19.2050 C.ar      1 MOL        -0.0697
     26 H1         34.1296  -61.9467   19.4019 H         1 MOL         0.0985
     27 H2         33.4142  -58.7581   20.7795 H         1 MOL         0.0924
     28 H3         35.8599  -60.0207   23.3772 H         1 MOL         0.0540
     29 H4         34.1281  -59.5756   23.2055 H         1 MOL         0.0540
     30 H5         35.9354  -61.0930   21.3979 H         1 MOL         0.0551
     31 H6         34.1868  -61.3028   21.7518 H         1 MOL         0.0551
     32 H7         30.0678  -55.0632   18.9110 H         1 MOL         0.0549
     33 H8         34.9984  -55.8245   18.9347 H         1 MOL         0.0564
     34 H9         31.7371  -50.9667   20.5359 H         1 MOL         0.0552
     35 H10        33.6168  -48.3939   17.6600 H         1 MOL         0.0528
     36 H11        32.6554  -61.1743   17.5969 H         1 MOL         0.0294
     37 H12        32.0951  -58.7704   17.3765 H         1 MOL         0.0402
     38 H13        34.7611  -56.7075   20.6931 H         1 MOL         0.1719
     39 H14        34.0640  -53.5002   18.8664 H         1 MOL         0.0549
     40 H15        30.9724  -57.3500   18.9406 H         1 MOL         0.0564
     41 H16        32.3141  -52.3072   16.4817 H         1 MOL         0.0552
     42 H17        33.3675  -50.1276   15.9082 H         1 MOL         0.0590
     43 H18        32.8223  -48.8096   19.9617 H         1 MOL         0.0590
@<TRIPOS>BOND
     1    1    2 1  
     2    3    1 1  
     3    1    5 1  
     4   14    2 2  
     5    3   16 1  
     6   17    3 1  
     7    5    4 1  
     8   12    4 1  
     9    8    6 ar 
    10    6   17 1  
    11   20    6 ar 
    12   19    7 ar 
    13    7   20 ar 
    14   18    8 ar 
    15   22    9 ar 
    16    9   25 ar 
    17   10   24 ar 
    18   25   10 ar 
    19   12   11 2  
    20   12   13 2  
    21   16   12 am 
    22   15   14 1  
    23   17   15 2  
    24   19   18 ar 
    25   21   19 1  
    26   21   22 1  
    27   22   23 ar 
    28   23   24 ar 
    29    2   26 1  
    30    3   27 1  
    31    4   28 1  
    32    4   29 1  
    33    5   30 1  
    34    5   31 1  
    35    7   32 1  
    36    8   33 1  
    37    9   34 1  
    38   10   35 1  
    39   14   36 1  
    40   15   37 1  
    41   16   38 1  
    42   18   39 1  
    43   20   40 1  
    44   23   41 1  
    45   24   42 1  
    46   25   43 1  
@<TRIPOS>SUBSTRUCTURE
     1 MOL         1

