### 
### Created by X-TOOL on Mon Aug  2 16:12:26 2021
### 

@<TRIPOS>MOLECULE
5zgg_ligand
   30    31     1     0     0
SMALL
GAST_HUCK


@<TRIPOS>ATOM
      1 O1         36.8540   14.1190   49.7710 O.3       1 MOL        -0.3273
      2 C2         37.0500   13.1150   48.8760 C.ar      1 MOL         0.1083
      3 C8         35.9920   12.2300   48.6580 C.ar      1 MOL        -0.0267
      4 C10        36.1330   11.1870   47.7420 C.ar      1 MOL        -0.0658
      5 C9         37.3330   11.0390   47.0480 C.ar      1 MOL        -0.0668
      6 C4         38.3540   11.9780   47.2020 C.ar      1 MOL        -0.0514
      7 C1         38.2230   13.0390   48.1130 C.ar      1 MOL         0.0612
      8 C3         39.3050   14.0780   48.2510 C.2       1 MOL         0.1293
      9 O2         39.5750   14.7250   49.3030 O.2       1 MOL        -0.3850
     10 C6         40.0240   14.4240   47.0040 C.3       1 MOL         0.0312
     11 C7         39.3690   14.5830   45.6910 C.3       1 MOL         0.0022
     12 C5         39.9010   15.3270   44.5210 C.ar      1 MOL        -0.0129
     13 C12        41.1310   15.9980   44.5770 C.ar      1 MOL         0.0127
     14 N1         41.6220   16.6310   43.4640 N.ar      1 MOL        -0.3044
     15 C14        40.9360   16.5850   42.2790 C.ar      1 MOL         0.0042
     16 C13        39.6870   15.9660   42.2320 C.ar      1 MOL        -0.0404
     17 C11        39.1440   15.3560   43.3540 C.ar      1 MOL        -0.0403
     18 H1         37.6411   14.6478   49.8294 H         1 MOL         0.2511
     19 H2         35.0615   12.3533   49.2002 H         1 MOL         0.0556
     20 H3         35.3151   10.4965   47.5711 H         1 MOL         0.0627
     21 H4         37.4735   10.1918   46.3865 H         1 MOL         0.0537
     22 H5         39.2586   11.8874   46.6117 H         1 MOL         0.0643
     23 H6         40.7794   13.6363   46.8669 H         1 MOL         0.0506
     24 H7         40.5256   15.3821   47.2050 H         1 MOL         0.0506
     25 H8         38.3989   15.0527   45.9109 H         1 MOL         0.0465
     26 H9         39.2060   13.5578   45.3272 H         1 MOL         0.0465
     27 H10        41.6952   16.0164   45.5024 H         1 MOL         0.0765
     28 H11        41.3607   17.0264   41.3846 H         1 MOL         0.0767
     29 H12        39.1302   15.9613   41.3019 H         1 MOL         0.0693
     30 H13        38.1550   14.9133   43.3220 H         1 MOL         0.0678
@<TRIPOS>BOND
     1    1    2 1  
     2    2    3 ar 
     3    2    7 ar 
     4    3    4 ar 
     5    4    5 ar 
     6    5    6 ar 
     7    6    7 ar 
     8    7    8 1  
     9    8    9 2  
    10    8   10 1  
    11   10   11 1  
    12   11   12 1  
    13   12   13 ar 
    14   12   17 ar 
    15   13   14 ar 
    16   14   15 ar 
    17   15   16 ar 
    18   16   17 ar 
    19    1   18 1  
    20    3   19 1  
    21    4   20 1  
    22    5   21 1  
    23    6   22 1  
    24   10   23 1  
    25   10   24 1  
    26   11   25 1  
    27   11   26 1  
    28   13   27 1  
    29   15   28 1  
    30   16   29 1  
    31   17   30 1  
@<TRIPOS>SUBSTRUCTURE
     1 MOL         1

