### 
### Created by X-TOOL on Wed Jan  1 15:39:38 2020
### 

@<TRIPOS>MOLECULE
5zh2_ligand
   41    43     1     0     0
SMALL
GAST_HUCK


@<TRIPOS>ATOM
      1 C16        18.6600   12.7830   31.4570 C.3       1 9CU        -0.0387
      2 C7         17.4790   15.6320   27.5550 C.3       1 9CU         0.0982
      3 C6         16.4180   16.6310   27.2750 C.3       1 9CU         0.0108
      4 C9         15.8210   15.0950   25.4950 C.ar      1 9CU         0.0804
      5 C2         13.5120   15.0090   24.8140 C.ar      1 9CU        -0.0057
      6 C14        21.5110   14.9710   30.1290 C.3       1 9CU        -0.0484
      7 C15        20.6090   16.0020   29.6350 C.3       1 9CU        -0.0264
      8 C8         17.1400   14.6460   25.3760 C.2       1 9CU         0.2447
      9 C5         15.4720   16.0710   26.4360 C.ar      1 9CU        -0.0346
     10 C4         14.1600   16.5100   26.5580 C.ar      1 9CU        -0.0364
     11 C12        19.4990   13.4880   30.4120 C.3       1 9CU         0.0563
     12 C3         13.1660   15.9670   25.7480 C.ar      1 9CU         0.0783
     13 C10        18.5910   16.3370   28.3120 C.3       1 9CU         0.0060
     14 C1         14.8130   14.5810   24.6880 C.ar      1 9CU         0.0962
     15 C13        20.7600   14.0370   31.0820 C.3       1 9CU        -0.0268
     16 O5         18.7010   14.5850   29.8880 O.3       1 9CU        -0.3735
     17 C11        19.5010   15.3040   28.9340 C.3       1 9CU         0.0619
     18 O3         18.0040   15.0820   26.3070 O.3       1 9CU        -0.2762
     19 O4         17.4820   13.8070   24.5440 O.2       1 9CU        -0.3727
     20 O2         11.8570   16.3800   25.8620 O.3       1 9CU        -0.3340
     21 O1         15.1550   13.6640   23.7330 O.3       1 9CU        -0.3317
     22 H1         19.2306   11.9428   31.8796 H         1 9CU         0.0254
     23 H2         17.7383   12.4032   30.9921 H         1 9CU         0.0254
     24 H3         18.4017   13.4907   32.2585 H         1 9CU         0.0254
     25 H4         17.0683   14.8163   28.1681 H         1 9CU         0.0672
     26 H5         16.8624   17.5129   26.7906 H         1 9CU         0.0466
     27 H6         15.9395   16.9329   28.2183 H         1 9CU         0.0466
     28 H7         12.7469   14.5888   24.1713 H         1 9CU         0.0422
     29 H8         22.3473   15.4437   30.6649 H         1 9CU         0.0267
     30 H9         21.9010   14.3899   29.2803 H         1 9CU         0.0267
     31 H10        21.1395   16.6664   28.9370 H         1 9CU         0.0290
     32 H11        20.2133   16.5927   30.4743 H         1 9CU         0.0290
     33 H12        13.9098   17.2753   27.2838 H         1 9CU         0.0406
     34 H13        19.7731   12.7941   29.6037 H         1 9CU         0.0593
     35 H14        18.1563   16.9674   29.1016 H         1 9CU         0.0320
     36 H15        19.1681   16.9651   27.6174 H         1 9CU         0.0320
     37 H16        20.4756   14.5950   31.9863 H         1 9CU         0.0290
     38 H17        21.4164   13.1990   31.3595 H         1 9CU         0.0290
     39 H18        19.9030   14.6226   28.1697 H         1 9CU         0.0597
     40 H19        11.8036   17.3119   25.6853 H         1 9CU         0.2497
     41 H20        16.0862   13.4839   23.7875 H         1 9CU         0.2506
@<TRIPOS>BOND
     1   11    1 1  
     2    2    3 1  
     3   13    2 1  
     4    2   18 1  
     5    3    9 1  
     6    8    4 1  
     7    9    4 ar 
     8    4   14 ar 
     9   12    5 ar 
    10   14    5 ar 
    11    7    6 1  
    12    6   15 1  
    13   17    7 1  
    14   18    8 1  
    15    8   19 2  
    16    9   10 ar 
    17   10   12 ar 
    18   15   11 1  
    19   11   16 1  
    20   12   20 1  
    21   13   17 1  
    22   14   21 1  
    23   16   17 1  
    24    1   22 1  
    25    1   23 1  
    26    1   24 1  
    27    2   25 1  
    28    3   26 1  
    29    3   27 1  
    30    5   28 1  
    31    6   29 1  
    32    6   30 1  
    33    7   31 1  
    34    7   32 1  
    35   10   33 1  
    36   11   34 1  
    37   13   35 1  
    38   13   36 1  
    39   15   37 1  
    40   15   38 1  
    41   17   39 1  
    42   20   40 1  
    43   21   41 1  
@<TRIPOS>SUBSTRUCTURE
     1 9CU         1

