### 
### Created by X-TOOL on Wed Jan  1 15:39:38 2020
### 

@<TRIPOS>MOLECULE
5zh3_ligand
   41    43     1     0     0
SMALL
GAST_HUCK


@<TRIPOS>ATOM
      1 C15        75.3400  406.7770   29.7960 C.3       1 9CF        -0.0264
      2 C14        74.2590  406.6470   28.7600 C.3       1 9CF        -0.0484
      3 C13        74.6390  405.6470   27.6910 C.3       1 9CF        -0.0268
      4 C12        74.8390  404.3110   28.3400 C.3       1 9CF         0.0563
      5 C16        75.3180  403.3330   27.2760 C.3       1 9CF        -0.0387
      6 O5         75.8760  404.4170   29.3180 O.3       1 9CF        -0.3735
      7 C11        75.7540  405.4200   30.3280 C.3       1 9CF         0.0619
      8 C10        77.2000  405.5700   30.7830 C.3       1 9CF         0.0060
      9 C7         77.4960  404.8320   32.0880 C.3       1 9CF         0.0982
     10 C6         78.5360  403.7630   31.7650 C.3       1 9CF         0.0108
     11 O3         76.2740  404.2880   32.6190 O.3       1 9CF        -0.2762
     12 C8         76.4170  403.4370   33.6690 C.2       1 9CF         0.2447
     13 O4         75.7200  403.5060   34.6830 O.2       1 9CF        -0.3727
     14 C9         77.4170  402.4680   33.5210 C.ar      1 9CF         0.0804
     15 C5         78.4510  402.6470   32.5920 C.ar      1 9CF        -0.0346
     16 C4         79.4410  401.6820   32.4580 C.ar      1 9CF        -0.0364
     17 C3         79.4140  400.5430   33.2390 C.ar      1 9CF         0.0783
     18 O2         80.3880  399.6350   33.0800 O.3       1 9CF        -0.3340
     19 C2         78.4010  400.3400   34.1630 C.ar      1 9CF        -0.0057
     20 C1         77.4090  401.3080   34.2910 C.ar      1 9CF         0.0962
     21 O1         76.3940  401.1810   35.1790 O.3       1 9CF        -0.3317
     22 H1         74.9668  407.3905   30.6292 H         1 9CF         0.0290
     23 H2         76.2144  407.2669   29.3429 H         1 9CF         0.0290
     24 H3         74.0931  407.6277   28.2903 H         1 9CF         0.0267
     25 H4         73.3321  406.3133   29.2494 H         1 9CF         0.0267
     26 H5         75.5709  405.9644   27.2002 H         1 9CF         0.0290
     27 H6         73.8352  405.5797   26.9431 H         1 9CF         0.0290
     28 H7         73.9034  403.9619   28.8012 H         1 9CF         0.0593
     29 H8         75.4719  402.3432   27.7305 H         1 9CF         0.0254
     30 H9         76.2660  403.6915   26.8485 H         1 9CF         0.0254
     31 H10        74.5622  403.2576   26.4803 H         1 9CF         0.0254
     32 H11        75.0788  405.0985   31.1347 H         1 9CF         0.0597
     33 H12        77.4121  406.6394   30.9295 H         1 9CF         0.0320
     34 H13        77.8578  405.1699   29.9974 H         1 9CF         0.0320
     35 H14        77.9169  405.5319   32.8249 H         1 9CF         0.0672
     36 H15        79.5373  404.2047   31.8760 H         1 9CF         0.0466
     37 H16        78.3917  403.4383   30.7240 H         1 9CF         0.0466
     38 H17        80.2383  401.8234   31.7373 H         1 9CF         0.0406
     39 H18        80.2440  398.9100   33.6767 H         1 9CF         0.2497
     40 H19        78.3817  399.4448   34.7740 H         1 9CF         0.0422
     41 H20        75.8236  401.9381   35.1167 H         1 9CF         0.2506
@<TRIPOS>BOND
     1    1    2 1  
     2    1    7 1  
     3    2    3 1  
     4    3    4 1  
     5    4    5 1  
     6    4    6 1  
     7    6    7 1  
     8    7    8 1  
     9    8    9 1  
    10    9   10 1  
    11    9   11 1  
    12   10   15 1  
    13   11   12 1  
    14   12   13 2  
    15   12   14 1  
    16   14   15 ar 
    17   14   20 ar 
    18   15   16 ar 
    19   16   17 ar 
    20   17   18 1  
    21   17   19 ar 
    22   19   20 ar 
    23   20   21 1  
    24    1   22 1  
    25    1   23 1  
    26    2   24 1  
    27    2   25 1  
    28    3   26 1  
    29    3   27 1  
    30    4   28 1  
    31    5   29 1  
    32    5   30 1  
    33    5   31 1  
    34    7   32 1  
    35    8   33 1  
    36    8   34 1  
    37    9   35 1  
    38   10   36 1  
    39   10   37 1  
    40   16   38 1  
    41   18   39 1  
    42   19   40 1  
    43   21   41 1  
@<TRIPOS>SUBSTRUCTURE
     1 9CF         1

