### 
### Created by X-TOOL on Wed Jan  1 15:39:38 2020
### 

@<TRIPOS>MOLECULE
5zh4_ligand
   41    43     1     0     0
SMALL
GAST_HUCK


@<TRIPOS>ATOM
      1 C1         14.2910  -14.9380  -24.1640 C.ar      1 9CC         0.0962
      2 C8         16.6950  -14.7660  -24.6360 C.2       1 9CC         0.2447
      3 C4         14.0370  -16.8760  -26.1440 C.ar      1 9CC        -0.0364
      4 C3         12.9140  -16.4780  -25.4200 C.ar      1 9CC         0.0783
      5 C7         17.4170  -15.5950  -26.7750 C.3       1 9CC         0.0982
      6 C6         16.4010  -16.7350  -26.6430 C.3       1 9CC         0.0108
      7 C2         13.0610  -15.5090  -24.4440 C.ar      1 9CC        -0.0057
      8 C5         15.2910  -16.3100  -25.8850 C.ar      1 9CC        -0.0346
      9 C9         15.4340  -15.3180  -24.8930 C.ar      1 9CC         0.0804
     10 C10        18.7640  -16.0990  -27.3490 C.3       1 9CC         0.0060
     11 C11        18.6230  -16.4470  -28.8400 C.3       1 9CC         0.0619
     12 C12        18.5940  -14.1610  -29.8200 C.3       1 9CC         0.0563
     13 C13        19.8990  -14.4770  -30.4990 C.3       1 9CC        -0.0268
     14 C14        20.7480  -15.4720  -29.6780 C.3       1 9CC        -0.0484
     15 O3         17.7110  -15.0930  -25.4760 O.3       1 9CC        -0.2762
     16 C15        19.9900  -16.7660  -29.5790 C.3       1 9CC        -0.0264
     17 C16        17.7270  -13.3070  -30.7670 C.3       1 9CC        -0.0387
     18 O5         17.8570  -15.3870  -29.5090 O.3       1 9CC        -0.3735
     19 O4         16.8890  -14.0260  -23.6770 O.2       1 9CC        -0.3727
     20 O2         11.6660  -17.0130  -25.6400 O.3       1 9CC        -0.3340
     21 O1         14.3820  -13.9790  -23.1610 O.3       1 9CC        -0.3317
     22 H1         13.9382  -17.6313  -26.9152 H         1 9CC         0.0406
     23 H2         17.0032  -14.8024  -27.4157 H         1 9CC         0.0672
     24 H3         16.8774  -17.5906  -26.1420 H         1 9CC         0.0466
     25 H4         16.0626  -17.0385  -27.6447 H         1 9CC         0.0466
     26 H5         12.1904  -15.1881  -23.8835 H         1 9CC         0.0422
     27 H6         19.0785  -16.9969  -26.7968 H         1 9CC         0.0320
     28 H7         19.5235  -15.3119  -27.2322 H         1 9CC         0.0320
     29 H8         18.0233  -17.3674  -28.8961 H         1 9CC         0.0597
     30 H9         18.7919  -13.6057  -28.8913 H         1 9CC         0.0593
     31 H10        20.4684  -13.5446  -30.6270 H         1 9CC         0.0290
     32 H11        19.6896  -14.9172  -31.4851 H         1 9CC         0.0290
     33 H12        20.9262  -15.0669  -28.6710 H         1 9CC         0.0267
     34 H13        21.7115  -15.6424  -30.1805 H         1 9CC         0.0267
     35 H14        19.7917  -17.1655  -30.5845 H         1 9CC         0.0290
     36 H15        20.5699  -17.5002  -29.0005 H         1 9CC         0.0290
     37 H16        16.7707  -13.0721  -30.2767 H         1 9CC         0.0254
     38 H17        17.5358  -13.8672  -31.6942 H         1 9CC         0.0254
     39 H18        18.2559  -12.3725  -31.0056 H         1 9CC         0.0254
     40 H19        11.7180  -17.6605  -26.3332 H         1 9CC         0.2497
     41 H20        14.9878  -14.2776  -22.4929 H         1 9CC         0.2506
@<TRIPOS>BOND
     1    1    7 ar 
     2    9    1 ar 
     3    1   21 1  
     4    2    9 1  
     5   15    2 1  
     6    2   19 2  
     7    3    4 ar 
     8    8    3 ar 
     9    4    7 ar 
    10    4   20 1  
    11    5    6 1  
    12   10    5 1  
    13    5   15 1  
    14    6    8 1  
    15    8    9 ar 
    16   11   10 1  
    17   11   16 1  
    18   18   11 1  
    19   12   13 1  
    20   12   17 1  
    21   12   18 1  
    22   13   14 1  
    23   14   16 1  
    24    3   22 1  
    25    5   23 1  
    26    6   24 1  
    27    6   25 1  
    28    7   26 1  
    29   10   27 1  
    30   10   28 1  
    31   11   29 1  
    32   12   30 1  
    33   13   31 1  
    34   13   32 1  
    35   14   33 1  
    36   14   34 1  
    37   16   35 1  
    38   16   36 1  
    39   17   37 1  
    40   17   38 1  
    41   17   39 1  
    42   20   40 1  
    43   21   41 1  
@<TRIPOS>SUBSTRUCTURE
     1 9CC         1

