### 
### Created by X-TOOL on Wed Jan  1 15:39:38 2020
### 

@<TRIPOS>MOLECULE
5zh5_ligand
   41    43     1     0     0
SMALL
GAST_HUCK


@<TRIPOS>ATOM
      1 C8         19.3790  -14.6760  -22.0670 C.2       1 9CX         0.2447
      2 C5         17.7460  -16.0850  -23.2850 C.ar      1 9CX        -0.0346
      3 C6         18.6810  -16.3370  -24.3000 C.3       1 9CX         0.0108
      4 C2         15.7040  -15.7800  -21.4470 C.ar      1 9CX        -0.0057
      5 C4         16.5180  -16.6960  -23.4660 C.ar      1 9CX        -0.0364
      6 C15        23.0660  -14.9710  -25.5060 C.3       1 9CX        -0.0264
      7 C14        23.1520  -15.3650  -26.8660 C.3       1 9CX        -0.0484
      8 C13        22.3780  -14.3080  -27.6320 C.3       1 9CX        -0.0268
      9 C12        20.8890  -14.3080  -27.3290 C.3       1 9CX         0.0563
     10 C16        20.3150  -13.1040  -28.0500 C.3       1 9CX        -0.0387
     11 O5         20.6360  -14.1780  -25.9170 O.3       1 9CX        -0.3735
     12 C11        21.5490  -14.9710  -25.0590 C.3       1 9CX         0.0619
     13 C10        21.0930  -16.4260  -24.8280 C.3       1 9CX         0.0060
     14 C7         20.0750  -16.4370  -23.6990 C.3       1 9CX         0.0982
     15 O3         20.3550  -15.3060  -22.8200 O.3       1 9CX        -0.2762
     16 O4         19.7430  -13.7150  -21.3510 O.2       1 9CX        -0.3727
     17 C9         18.0220  -15.2550  -22.1600 C.ar      1 9CX         0.0804
     18 C3         15.4980  -16.5590  -22.5610 C.ar      1 9CX         0.0783
     19 O2         14.3430  -17.1950  -22.8130 O.3       1 9CX        -0.3340
     20 C1         16.9210  -15.1360  -21.2470 C.ar      1 9CX         0.0962
     21 O1         17.0120  -14.4010  -20.1140 O.3       1 9CX        -0.3317
     22 H1         18.6564  -15.5163  -25.0320 H         1 9CX         0.0466
     23 H2         18.4303  -17.2833  -24.8015 H         1 9CX         0.0466
     24 H3         14.9104  -15.6664  -20.7173 H         1 9CX         0.0422
     25 H4         16.3577  -17.3016  -24.3507 H         1 9CX         0.0406
     26 H5         23.4840  -13.9603  -25.3887 H         1 9CX         0.0290
     27 H6         23.6333  -15.6771  -24.8819 H         1 9CX         0.0290
     28 H7         22.6984  -16.3566  -27.0105 H         1 9CX         0.0267
     29 H8         24.2012  -15.3902  -27.1954 H         1 9CX         0.0267
     30 H9         22.5141  -14.4886  -28.7085 H         1 9CX         0.0290
     31 H10        22.7862  -13.3204  -27.3714 H         1 9CX         0.0290
     32 H11        20.4286  -15.2357  -27.6995 H         1 9CX         0.0593
     33 H12        19.2316  -13.0495  -27.8675 H         1 9CX         0.0254
     34 H13        20.5004  -13.2005  -29.1299 H         1 9CX         0.0254
     35 H14        20.7964  -12.1885  -27.6756 H         1 9CX         0.0254
     36 H15        21.5202  -14.4778  -24.0762 H         1 9CX         0.0597
     37 H16        21.9583  -17.0473  -24.5538 H         1 9CX         0.0320
     38 H17        20.6337  -16.8215  -25.7460 H         1 9CX         0.0320
     39 H18        20.1588  -17.3732  -23.1277 H         1 9CX         0.0672
     40 H19        13.7258  -17.0176  -22.1129 H         1 9CX         0.2497
     41 H20        17.7078  -14.7478  -19.5679 H         1 9CX         0.2506
@<TRIPOS>BOND
     1    1   15 1  
     2    1   16 2  
     3   17    1 1  
     4    3    2 1  
     5    2    5 ar 
     6    2   17 ar 
     7   14    3 1  
     8   18    4 ar 
     9    4   20 ar 
    10    5   18 ar 
    11    6    7 1  
    12   12    6 1  
    13    7    8 1  
    14    9    8 1  
    15    9   10 1  
    16   11    9 1  
    17   12   11 1  
    18   13   12 1  
    19   13   14 1  
    20   14   15 1  
    21   17   20 ar 
    22   18   19 1  
    23   20   21 1  
    24    3   22 1  
    25    3   23 1  
    26    4   24 1  
    27    5   25 1  
    28    6   26 1  
    29    6   27 1  
    30    7   28 1  
    31    7   29 1  
    32    8   30 1  
    33    8   31 1  
    34    9   32 1  
    35   10   33 1  
    36   10   34 1  
    37   10   35 1  
    38   12   36 1  
    39   13   37 1  
    40   13   38 1  
    41   14   39 1  
    42   19   40 1  
    43   21   41 1  
@<TRIPOS>SUBSTRUCTURE
     1 9CX         1

