### 
### Created by X-TOOL on Mon Aug  2 16:12:26 2021
### 

@<TRIPOS>MOLECULE
5zhj_ligand
   46    48     1     0     0
SMALL
GAST_HUCK


@<TRIPOS>ATOM
      1 N           6.0140  -21.2320  -15.7950 N.4       1 SAH         0.2327
      2 CA          6.2270  -20.8580  -14.3830 C.3       1 SAH         0.0291
      3 CB          4.9360  -20.3390  -13.7510 C.3       1 SAH         0.0114
      4 CG          4.7940  -18.8490  -14.0210 C.3       1 SAH         0.0005
      5 SD          3.7110  -17.9820  -12.8240 S.3       1 SAH        -0.1578
      6 C           6.7920  -22.0420  -13.5680 C.2       1 SAH         0.0844
      7 O           6.3740  -23.1950  -13.8400 O.co2     1 SAH        -0.5643
      8 OXT         7.6170  -21.7630  -12.6720 O.co2     1 SAH        -0.5643
      9 C5'         4.7210  -16.4640  -12.5940 C.3       1 SAH         0.0226
     10 C4'         5.4090  -16.3680  -11.2180 C.3       1 SAH         0.0995
     11 O4'         4.4310  -16.4810  -10.2320 O.3       1 SAH        -0.3383
     12 C3'         6.3480  -17.5320  -10.9330 C.3       1 SAH         0.1132
     13 O3'         7.6070  -17.2540  -11.5570 O.3       1 SAH        -0.3864
     14 C2'         6.4610  -17.4530   -9.4100 C.3       1 SAH         0.1385
     15 O2'         7.4000  -16.3700   -8.9720 O.3       1 SAH        -0.3836
     16 C1'         5.0210  -17.0980   -9.0450 C.3       1 SAH         0.2009
     17 N9          4.1480  -18.2400   -8.5920 N.pl3     1 SAH        -0.1919
     18 C8          3.0290  -18.6680   -9.1980 C.2       1 SAH         0.1123
     19 N7          2.5000  -19.6630   -8.4620 N.2       1 SAH        -0.2958
     20 C5          3.2620  -19.8230   -7.3700 C.ar      1 SAH         0.1045
     21 C6          3.1700  -20.6670   -6.3240 C.ar      1 SAH         0.1298
     22 N6          2.1750  -21.5680   -6.3380 N.pl3     1 SAH        -0.3152
     23 N1          4.0670  -20.6840   -5.3370 N.ar      1 SAH        -0.2698
     24 C2          5.1420  -19.7800   -5.3780 C.ar      1 SAH         0.0533
     25 N3          5.2140  -18.9210   -6.4990 N.ar      1 SAH        -0.2714
     26 C4          4.2910  -18.9660   -7.4670 C.ar      1 SAH         0.1613
     27 H1          5.6458  -20.4412  -16.3001 H         1 SAH         0.2010
     28 H2          5.3594  -21.9969  -15.8449 H         1 SAH         0.2010
     29 H3          6.8913  -21.5132  -16.2041 H         1 SAH         0.2010
     30 H4          6.9679  -20.0454  -14.3579 H         1 SAH         0.1024
     31 H5          4.9654  -20.5123  -12.6651 H         1 SAH         0.0347
     32 H6          4.0770  -20.8722  -14.1843 H         1 SAH         0.0347
     33 H7          4.3727  -18.7175  -15.0286 H         1 SAH         0.0379
     34 H8          5.7936  -18.3918  -13.9789 H         1 SAH         0.0379
     35 H9          4.0634  -15.5903  -12.7130 H         1 SAH         0.0402
     36 H10         5.4992  -16.4458  -13.3712 H         1 SAH         0.0402
     37 H11         5.9485  -15.4124  -11.1421 H         1 SAH         0.0632
     38 H12         5.9469  -18.4985  -11.2721 H         1 SAH         0.0647
     39 H13         8.2073  -17.9710  -11.3896 H         1 SAH         0.2100
     40 H14         6.7725  -18.4136   -8.9739 H         1 SAH         0.0676
     41 H15         8.2651  -16.5403   -9.3258 H         1 SAH         0.2101
     42 H16         5.0503  -16.3620   -8.2280 H         1 SAH         0.0996
     43 H17         2.6188  -18.2764  -10.1277 H         1 SAH         0.1349
     44 H18         2.0699  -22.2314   -5.5571 H         1 SAH         0.1820
     45 H19         1.5166  -21.5959   -7.1296 H         1 SAH         0.1820
     46 H20         5.8820  -19.7428   -4.5868 H         1 SAH         0.0996
@<TRIPOS>BOND
     1    1    2 1  
     2    2    3 1  
     3    2    6 1  
     4    3    4 1  
     5    4    5 1  
     6    5    9 1  
     7    6    7 ar 
     8    6    8 ar 
     9    9   10 1  
    10   10   11 1  
    11   10   12 1  
    12   11   16 1  
    13   12   13 1  
    14   12   14 1  
    15   14   15 1  
    16   14   16 1  
    17   16   17 1  
    18   17   18 1  
    19   17   26 1  
    20   18   19 2  
    21   19   20 1  
    22   20   21 ar 
    23   20   26 ar 
    24   21   22 1  
    25   21   23 ar 
    26   23   24 ar 
    27   24   25 ar 
    28   25   26 ar 
    29    1   27 1  
    30    1   28 1  
    31    1   29 1  
    32    2   30 1  
    33    3   31 1  
    34    3   32 1  
    35    4   33 1  
    36    4   34 1  
    37    9   35 1  
    38    9   36 1  
    39   10   37 1  
    40   12   38 1  
    41   13   39 1  
    42   14   40 1  
    43   15   41 1  
    44   16   42 1  
    45   18   43 1  
    46   22   44 1  
    47   22   45 1  
    48   24   46 1  
@<TRIPOS>SUBSTRUCTURE
     1 SAH         1

