### 
### Created by X-TOOL on Mon Aug  2 16:12:26 2021
### 

@<TRIPOS>MOLECULE
5zhl_ligand
   61    63     1     0     0
SMALL
GAST_HUCK


@<TRIPOS>ATOM
      1 CAA        -1.6120  -16.0540  -22.3070 C.3       1 MOL        -0.0653
      2 CAJ        -0.3640  -15.8950  -21.4250 C.3       1 MOL        -0.0559
      3 CAK         0.3710  -17.2350  -21.2980 C.3       1 MOL        -0.0533
      4 CAL         0.0180  -17.9020  -19.9630 C.3       1 MOL        -0.0531
      5 CAM         0.7650  -19.2290  -19.8200 C.3       1 MOL        -0.0529
      6 CAN         0.7180  -19.6720  -18.3530 C.3       1 MOL        -0.0483
      7 CAO         1.2660  -21.1010  -18.2350 C.3       1 MOL        -0.0126
      8 CAP         1.9080  -21.3060  -16.8580 C.3       1 MOL        -0.0324
      9 NAT         3.2930  -20.8120  -16.8170 N.4       1 MOL         0.2382
     10 CAQ         4.0080  -21.1900  -15.5880 C.3       1 MOL        -0.0029
     11 CAY         4.0520  -20.1880  -14.5960 C.ar      1 MOL        -0.0054
     12 CAE         5.2570  -19.5270  -14.2900 C.ar      1 MOL        -0.0617
     13 CAG         5.3150  -18.5840  -13.2500 C.ar      1 MOL        -0.0647
     14 CAD         2.9160  -19.9280  -13.8180 C.ar      1 MOL        -0.0617
     15 CAF         2.9710  -18.9750  -12.7960 C.ar      1 MOL        -0.0647
     16 CAZ         4.1610  -18.2950  -12.5060 C.ar      1 MOL        -0.0278
     17 CAR         4.1920  -17.3680  -11.4530 C.3       1 MOL         0.0606
     18 NAU         4.1220  -18.0510  -10.1250 N.am      1 MOL        -0.2790
     19 CAX         4.9360  -17.7770   -9.0770 C.2       1 MOL         0.1882
     20 OAB         5.8430  -16.9520   -9.2180 O.2       1 MOL        -0.3937
     21 CBA         4.8340  -18.4910   -7.8910 C.2       1 MOL         0.0389
     22 CBD         3.9340  -19.4610   -7.4700 C.2       1 MOL         0.0636
     23 CBB         2.8040  -20.0210   -8.0220 C.2       1 MOL         0.1433
     24 OAC         2.3280  -19.7310   -9.1280 O.2       1 MOL        -0.4189
     25 NAV         2.0920  -21.0260   -7.3510 N.2       1 MOL        -0.2549
     26 CAH         2.3910  -21.4300   -6.1430 C.2       1 MOL         0.1306
     27 NAS         3.5020  -20.8460   -5.5640 N.pl3     1 MOL        -0.2136
     28 CBC         4.2490  -19.9390   -6.2160 C.2       1 MOL         0.1679
     29 SAW         5.5870  -19.2240   -5.5960 S.3       1 MOL         0.0101
     30 CAI         5.7960  -18.2560   -6.9700 C.2       1 MOL         0.0121
     31 H1         -2.1286  -15.0863  -22.3892 H         1 MOL         0.0230
     32 H2         -2.2889  -16.7937  -21.8547 H         1 MOL         0.0230
     33 H3         -1.3120  -16.3957  -23.3086 H         1 MOL         0.0230
     34 H4         -0.6674  -15.5512  -20.4251 H         1 MOL         0.0263
     35 H5          0.3094  -15.1532  -21.8791 H         1 MOL         0.0263
     36 H6          1.4562  -17.0610  -21.3425 H         1 MOL         0.0265
     37 H7          0.0712  -17.8949  -22.1254 H         1 MOL         0.0265
     38 H8         -1.0653  -18.0894  -19.9260 H         1 MOL         0.0265
     39 H9          0.3031  -17.2341  -19.1368 H         1 MOL         0.0265
     40 H10         1.8116  -19.0988  -20.1326 H         1 MOL         0.0265
     41 H11         0.2859  -19.9919  -20.4512 H         1 MOL         0.0265
     42 H12        -0.3218  -19.6469  -17.9950 H         1 MOL         0.0267
     43 H13         1.3320  -18.9920  -17.7443 H         1 MOL         0.0267
     44 H14         2.0215  -21.2669  -19.0171 H         1 MOL         0.0317
     45 H15         0.4421  -21.8185  -18.3629 H         1 MOL         0.0317
     46 H16         1.9070  -22.3804  -16.6220 H         1 MOL         0.0814
     47 H17         1.3155  -20.7648  -16.1057 H         1 MOL         0.0814
     48 H18         3.2763  -19.8062  -16.8812 H         1 MOL         0.2026
     49 H19         3.7916  -21.1909  -17.6069 H         1 MOL         0.2026
     50 H20         5.0423  -21.4479  -15.8596 H         1 MOL         0.0966
     51 H21         3.5101  -22.0728  -15.1605 H         1 MOL         0.0966
     52 H22         6.1500  -19.7481  -14.8633 H         1 MOL         0.0542
     53 H23         6.2483  -18.0814  -13.0232 H         1 MOL         0.0540
     54 H24         1.9942  -20.4657  -14.0084 H         1 MOL         0.0542
     55 H25         2.0789  -18.7591  -12.2192 H         1 MOL         0.0540
     56 H26         3.3344  -16.6861  -11.5507 H         1 MOL         0.0669
     57 H27         5.1272  -16.7917  -11.5105 H         1 MOL         0.0669
     58 H28         3.4265  -18.7589  -10.0016 H         1 MOL         0.1864
     59 H29         1.7991  -22.1825   -5.6240 H         1 MOL         0.1577
     60 H30         3.7650  -21.1138   -4.6048 H         1 MOL         0.2444
     61 H31         6.6029  -17.5356   -7.0959 H         1 MOL         0.0720
@<TRIPOS>BOND
     1    1    2 1  
     2    2    3 1  
     3    3    4 1  
     4    4    5 1  
     5    5    6 1  
     6    6    7 1  
     7    7    8 1  
     8    8    9 1  
     9    9   10 1  
    10   10   11 1  
    11   11   12 ar 
    12   11   14 ar 
    13   12   13 ar 
    14   13   16 ar 
    15   14   15 ar 
    16   15   16 ar 
    17   16   17 1  
    18   17   18 1  
    19   18   19 am 
    20   19   20 2  
    21   19   21 1  
    22   21   22 1  
    23   21   30 2  
    24   22   23 1  
    25   22   28 2  
    26   23   24 2  
    27   23   25 1  
    28   25   26 2  
    29   26   27 1  
    30   27   28 1  
    31   28   29 1  
    32   29   30 1  
    33    1   31 1  
    34    1   32 1  
    35    1   33 1  
    36    2   34 1  
    37    2   35 1  
    38    3   36 1  
    39    3   37 1  
    40    4   38 1  
    41    4   39 1  
    42    5   40 1  
    43    5   41 1  
    44    6   42 1  
    45    6   43 1  
    46    7   44 1  
    47    7   45 1  
    48    8   46 1  
    49    8   47 1  
    50    9   48 1  
    51    9   49 1  
    52   10   50 1  
    53   10   51 1  
    54   12   52 1  
    55   13   53 1  
    56   14   54 1  
    57   15   55 1  
    58   17   56 1  
    59   17   57 1  
    60   18   58 1  
    61   26   59 1  
    62   27   60 1  
    63   30   61 1  
@<TRIPOS>SUBSTRUCTURE
     1 MOL         1

