### 
### Created by X-TOOL on Mon Aug  2 16:10:30 2021
### 

@<TRIPOS>MOLECULE
5zhm_ligand
   49    51     1     0     0
SMALL
GAST_HUCK


@<TRIPOS>ATOM
      1 CAA        47.7150  123.2820   20.6500 C.3       1 MOL        -0.0244
      2 CAK        48.2590  122.2090   19.6760 C.3       1 MOL        -0.0335
      3 NAZ        47.8800  120.8040   20.0040 N.4       1 MOL         0.2459
      4 CAL        48.6390  120.2600   21.1670 C.3       1 MOL        -0.0335
      5 CAB        47.7840  120.1270   22.4400 C.3       1 MOL        -0.0244
      6 CAN        48.1960  119.9590   18.8220 C.3       1 MOL        -0.0011
      7 CAU        47.0910  119.2130   18.3940 C.ar      1 MOL        -0.0053
      8 CAH        46.3420  119.6620   17.2970 C.ar      1 MOL        -0.0617
      9 CAF        45.2130  118.9650   16.8490 C.ar      1 MOL        -0.0647
     10 CAG        46.7380  118.0160   19.0350 C.ar      1 MOL        -0.0617
     11 CAE        45.6120  117.3110   18.5900 C.ar      1 MOL        -0.0647
     12 CAT        44.8440  117.7980   17.5150 C.ar      1 MOL        -0.0278
     13 CAM        43.7340  117.1050   17.0960 C.3       1 MOL         0.0606
     14 NAP        44.1750  116.1930   16.0470 N.am      1 MOL        -0.2790
     15 CAS        44.0170  114.8690   16.1090 C.2       1 MOL         0.1882
     16 OAC        43.5110  114.3440   17.1080 O.2       1 MOL        -0.3937
     17 CAV        44.4560  114.1000   15.0690 C.2       1 MOL         0.0389
     18 CAY        44.8410  114.4770   13.7900 C.2       1 MOL         0.0636
     19 CAW        44.9180  115.6800   13.1320 C.2       1 MOL         0.1433
     20 OAD        44.6010  116.7640   13.6380 O.2       1 MOL        -0.4189
     21 NAQ        45.3690  115.7690   11.7690 N.2       1 MOL        -0.2549
     22 CAI        45.6590  114.6820   11.0860 C.2       1 MOL         0.1306
     23 NAO        45.5460  113.4640   11.7540 N.pl3     1 MOL        -0.2136
     24 CAX        45.1830  113.3820   13.0430 C.2       1 MOL         0.1679
     25 SAR        44.9710  111.9720   13.9330 S.3       1 MOL         0.0101
     26 CAJ        44.4350  112.7640   15.2950 C.2       1 MOL         0.0121
     27 H1         48.0485  124.2776   20.3221 H         1 MOL         0.0281
     28 H2         48.0943  123.0835   21.6633 H         1 MOL         0.0281
     29 H3         46.6156  123.2475   20.6567 H         1 MOL         0.0281
     30 H4         49.3570  122.2743   19.6763 H         1 MOL         0.0812
     31 H5         47.8783  122.4382   18.6698 H         1 MOL         0.0812
     32 H6         46.8930  120.7656   20.2050 H         1 MOL         0.2047
     33 H7         49.4817  120.9339   21.3807 H         1 MOL         0.0812
     34 H8         49.0239  119.2651   20.8989 H         1 MOL         0.0812
     35 H9         48.4012  119.7222   23.2556 H         1 MOL         0.0281
     36 H10        46.9410  119.4474   22.2462 H         1 MOL         0.0281
     37 H11        47.3988  121.1163   22.7280 H         1 MOL         0.0281
     38 H12        49.0087  119.2672   19.0883 H         1 MOL         0.0967
     39 H13        48.5240  120.6103   17.9985 H         1 MOL         0.0967
     40 H14        46.6434  120.5684   16.7845 H         1 MOL         0.0542
     41 H15        44.6390  119.3253   16.0030 H         1 MOL         0.0540
     42 H16        47.3285  117.6416   19.8634 H         1 MOL         0.0542
     43 H17        45.3301  116.3843   19.0766 H         1 MOL         0.0540
     44 H18        42.9806  117.8015   16.6995 H         1 MOL         0.0669
     45 H19        43.3036  116.5375   17.9343 H         1 MOL         0.0669
     46 H20        44.6191  116.5798   15.2388 H         1 MOL         0.1864
     47 H21        45.9735  114.7321   10.0446 H         1 MOL         0.1577
     48 H22        45.7486  112.5951   11.2393 H         1 MOL         0.2444
     49 H23        44.1180  112.2851   16.2202 H         1 MOL         0.0720
@<TRIPOS>BOND
     1    1    2 1  
     2    2    3 1  
     3    3    4 1  
     4    3    6 1  
     5    4    5 1  
     6    6    7 1  
     7    7    8 ar 
     8    7   10 ar 
     9    8    9 ar 
    10    9   12 ar 
    11   10   11 ar 
    12   11   12 ar 
    13   12   13 1  
    14   13   14 1  
    15   14   15 am 
    16   15   16 2  
    17   15   17 1  
    18   17   18 1  
    19   17   26 2  
    20   18   19 1  
    21   18   24 2  
    22   19   20 2  
    23   19   21 1  
    24   21   22 2  
    25   22   23 1  
    26   23   24 1  
    27   24   25 1  
    28   25   26 1  
    29    1   27 1  
    30    1   28 1  
    31    1   29 1  
    32    2   30 1  
    33    2   31 1  
    34    3   32 1  
    35    4   33 1  
    36    4   34 1  
    37    5   35 1  
    38    5   36 1  
    39    5   37 1  
    40    6   38 1  
    41    6   39 1  
    42    8   40 1  
    43    9   41 1  
    44   10   42 1  
    45   11   43 1  
    46   13   44 1  
    47   13   45 1  
    48   14   46 1  
    49   22   47 1  
    50   23   48 1  
    51   26   49 1  
@<TRIPOS>SUBSTRUCTURE
     1 MOL         1

