### 
### Created by X-TOOL on Mon Aug  2 16:12:26 2021
### 

@<TRIPOS>MOLECULE
5zhn_ligand
   61    63     1     0     0
SMALL
GAST_HUCK


@<TRIPOS>ATOM
      1 CAA        54.6730  125.8360   22.9310 C.3       1 MOL        -0.0653
      2 CAJ        54.9830  124.6030   22.0710 C.3       1 MOL        -0.0559
      3 CAK        53.6920  124.0730   21.4230 C.3       1 MOL        -0.0533
      4 CAL        54.0000  123.3470   20.0970 C.3       1 MOL        -0.0531
      5 CAM        53.1030  123.8830   18.9650 C.3       1 MOL        -0.0529
      6 CAN        52.6210  122.7400   18.0560 C.3       1 MOL        -0.0483
      7 CAO        51.1360  122.4320   18.3070 C.3       1 MOL        -0.0126
      8 CAP        50.4880  121.7240   17.0880 C.3       1 MOL        -0.0324
      9 NAT        49.7060  120.5030   17.4390 N.4       1 MOL         0.2382
     10 CAQ        48.4770  120.7830   18.2240 C.3       1 MOL        -0.0029
     11 CAY        47.4530  119.8480   18.0080 C.ar      1 MOL        -0.0054
     12 CAE        47.3970  118.6430   18.7340 C.ar      1 MOL        -0.0617
     13 CAG        46.3510  117.7350   18.5060 C.ar      1 MOL        -0.0647
     14 CAD        46.4370  120.1400   17.0840 C.ar      1 MOL        -0.0617
     15 CAF        45.3750  119.2500   16.8840 C.ar      1 MOL        -0.0647
     16 CAZ        45.3300  118.0360   17.5800 C.ar      1 MOL        -0.0278
     17 CAR        44.2650  117.1440   17.3650 C.3       1 MOL         0.0606
     18 NAU        44.5350  116.3190   16.1810 N.am      1 MOL        -0.2790
     19 CAX        44.5050  114.9830   16.2200 C.2       1 MOL         0.1882
     20 OAB        44.2730  114.4230   17.2970 O.2       1 MOL        -0.3937
     21 CBA        44.8330  114.2370   15.1010 C.2       1 MOL         0.0389
     22 CBD        45.1970  114.6240   13.8080 C.2       1 MOL         0.0636
     23 CBB        45.2640  115.8370   13.1600 C.2       1 MOL         0.1433
     24 OAC        45.0310  116.9370   13.6930 O.2       1 MOL        -0.4189
     25 NAV        45.6250  115.9170   11.7830 N.2       1 MOL        -0.2549
     26 CAH        45.9150  114.8470   11.0670 C.2       1 MOL         0.1306
     27 NAS        45.8830  113.6180   11.7220 N.pl3     1 MOL        -0.2136
     28 CBC        45.5120  113.5370   13.0170 C.2       1 MOL         0.1679
     29 SAW        45.3410  112.1390   13.8430 S.3       1 MOL         0.0101
     30 CAI        44.8880  112.9010   15.3060 C.2       1 MOL         0.0121
     31 H1         55.6019  126.2064   23.3891 H         1 MOL         0.0230
     32 H2         53.9586  125.5617   23.7211 H         1 MOL         0.0230
     33 H3         54.2365  126.6235   22.2991 H         1 MOL         0.0230
     34 H4         55.4208  123.8179   22.7049 H         1 MOL         0.0263
     35 H5         55.6987  124.8796   21.2829 H         1 MOL         0.0263
     36 H6         53.0164  124.9177   21.2227 H         1 MOL         0.0265
     37 H7         53.2046  123.3695   22.1140 H         1 MOL         0.0265
     38 H8         53.8174  122.2697   20.2237 H         1 MOL         0.0265
     39 H9         55.0547  123.5114   19.8312 H         1 MOL         0.0265
     40 H10        53.6755  124.6042   18.3632 H         1 MOL         0.0265
     41 H11        52.2291  124.3851   19.4056 H         1 MOL         0.0265
     42 H12        53.2163  121.8386   18.2636 H         1 MOL         0.0267
     43 H13        52.7555  123.0342   17.0046 H         1 MOL         0.0267
     44 H14        50.6027  123.3750   18.4977 H         1 MOL         0.0317
     45 H15        51.0505  121.7779   19.1872 H         1 MOL         0.0317
     46 H16        51.2882  121.4335   16.3914 H         1 MOL         0.0814
     47 H17        49.8120  122.4370   16.5933 H         1 MOL         0.0814
     48 H18        50.2969  119.8922   17.9810 H         1 MOL         0.2026
     49 H19        49.4385  120.0404   16.5843 H         1 MOL         0.2026
     50 H20        48.1041  121.7794   17.9445 H         1 MOL         0.0966
     51 H21        48.7366  120.7752   19.2929 H         1 MOL         0.0966
     52 H22        48.1612  118.4165   19.4687 H         1 MOL         0.0542
     53 H23        46.3275  116.7952   19.0457 H         1 MOL         0.0540
     54 H24        46.4753  121.0646   16.5194 H         1 MOL         0.0542
     55 H25        44.5839  119.5020   16.1871 H         1 MOL         0.0540
     56 H26        43.3376  117.7143   17.2082 H         1 MOL         0.0669
     57 H27        44.1511  116.4933   18.2445 H         1 MOL         0.0669
     58 H28        44.7487  116.7720   15.3155 H         1 MOL         0.1864
     59 H29        46.1682  114.9216   10.0105 H         1 MOL         0.1577
     60 H30        46.1453  112.7621   11.2126 H         1 MOL         0.2444
     61 H31        44.6785  112.3943   16.2469 H         1 MOL         0.0720
@<TRIPOS>BOND
     1    1    2 1  
     2    2    3 1  
     3    3    4 1  
     4    4    5 1  
     5    5    6 1  
     6    6    7 1  
     7    7    8 1  
     8    8    9 1  
     9    9   10 1  
    10   10   11 1  
    11   11   12 ar 
    12   11   14 ar 
    13   12   13 ar 
    14   13   16 ar 
    15   14   15 ar 
    16   15   16 ar 
    17   16   17 1  
    18   17   18 1  
    19   18   19 am 
    20   19   20 2  
    21   19   21 1  
    22   21   22 1  
    23   21   30 2  
    24   22   23 1  
    25   22   28 2  
    26   23   24 2  
    27   23   25 1  
    28   25   26 2  
    29   26   27 1  
    30   27   28 1  
    31   28   29 1  
    32   29   30 1  
    33    1   31 1  
    34    1   32 1  
    35    1   33 1  
    36    2   34 1  
    37    2   35 1  
    38    3   36 1  
    39    3   37 1  
    40    4   38 1  
    41    4   39 1  
    42    5   40 1  
    43    5   41 1  
    44    6   42 1  
    45    6   43 1  
    46    7   44 1  
    47    7   45 1  
    48    8   46 1  
    49    8   47 1  
    50    9   48 1  
    51    9   49 1  
    52   10   50 1  
    53   10   51 1  
    54   12   52 1  
    55   13   53 1  
    56   14   54 1  
    57   15   55 1  
    58   17   56 1  
    59   17   57 1  
    60   18   58 1  
    61   26   59 1  
    62   27   60 1  
    63   30   61 1  
@<TRIPOS>SUBSTRUCTURE
     1 MOL         1

