### 
### Created by X-TOOL on Mon Aug  2 16:12:28 2021
### 

@<TRIPOS>MOLECULE
5zjf_ligand
   46    49     1     0     0
SMALL
GAST_HUCK


@<TRIPOS>ATOM
      1 O1         32.4460  -45.9510  -46.5260 O.3       1 MOL        -0.2927
      2 O2         26.4780  -43.4440  -51.9430 O.3       1 MOL        -0.2927
      3 O3         32.7010  -47.2830  -44.6580 O.3       1 MOL        -0.2956
      4 O4         25.9910  -43.2780  -49.7010 O.3       1 MOL        -0.2956
      5 C5         30.7010  -49.2850  -50.7640 C.3       1 MOL        -0.0316
      6 C6         29.2550  -49.1300  -51.5550 C.3       1 MOL        -0.0316
      7 C7         31.4870  -49.9740  -49.5740 C.3       1 MOL        -0.0237
      8 C8         27.7690  -48.5120  -51.3740 C.3       1 MOL        -0.0237
      9 C9         31.4120  -50.3660  -51.5730 C.3       1 MOL        -0.0604
     10 C10        28.8450  -50.4560  -52.1230 C.3       1 MOL        -0.0604
     11 C11        31.8970  -49.2360  -48.2750 C.ar      1 MOL        -0.0623
     12 C12        27.2910  -47.0480  -51.1260 C.ar      1 MOL        -0.0623
     13 C13        32.0140  -47.8280  -48.1590 C.ar      1 MOL        -0.0397
     14 C14        27.1350  -45.9420  -52.0100 C.ar      1 MOL        -0.0397
     15 C15        32.0500  -50.0230  -47.0890 C.ar      1 MOL        -0.0801
     16 C16        26.9220  -46.7770  -49.8040 C.ar      1 MOL        -0.0801
     17 C17        32.2850  -47.2620  -46.9100 C.ar      1 MOL         0.1170
     18 C18        26.7090  -44.7040  -51.4180 C.ar      1 MOL         0.1170
     19 C19        32.4510  -48.1010  -45.7270 C.ar      1 MOL         0.1160
     20 C20        26.3830  -44.5520  -49.9880 C.ar      1 MOL         0.1160
     21 C21        32.3150  -49.4890  -45.8100 C.ar      1 MOL        -0.0478
     22 C22        26.5070  -45.6230  -49.1440 C.ar      1 MOL        -0.0478
     23 C23        32.5460  -45.9060  -45.0760 C.3       1 MOL         0.1854
     24 C24        26.2270  -42.4810  -50.8840 C.3       1 MOL         0.1854
     25 H1         31.1199  -48.2708  -50.8406 H         1 MOL         0.0322
     26 H2         29.6104  -48.5218  -52.3998 H         1 MOL         0.0322
     27 H3         32.4224  -50.3525  -50.0118 H         1 MOL         0.0407
     28 H4         30.8631  -50.8213  -49.2533 H         1 MOL         0.0407
     29 H5         27.3530  -49.0720  -50.5235 H         1 MOL         0.0407
     30 H6         27.2477  -48.8060  -52.2969 H         1 MOL         0.0407
     31 H7         31.1318  -50.2747  -52.6328 H         1 MOL         0.0234
     32 H8         31.1162  -51.3575  -51.1997 H         1 MOL         0.0234
     33 H9         32.5004  -50.2450  -51.4698 H         1 MOL         0.0234
     34 H10        29.7412  -51.0601  -52.3277 H         1 MOL         0.0234
     35 H11        28.2880  -50.2979  -53.0583 H         1 MOL         0.0234
     36 H12        28.2052  -50.9827  -51.3997 H         1 MOL         0.0234
     37 H13        31.8943  -47.1958  -49.0314 H         1 MOL         0.0450
     38 H14        27.3275  -46.0297  -53.0732 H         1 MOL         0.0450
     39 H15        31.9562  -51.0992  -47.1793 H         1 MOL         0.0436
     40 H16        26.9689  -47.6468  -49.1587 H         1 MOL         0.0436
     41 H17        32.4083  -50.1236  -44.9361 H         1 MOL         0.0493
     42 H18        26.3046  -45.5777  -48.0800 H         1 MOL         0.0493
     43 H19        31.6337  -45.4722  -44.6407 H         1 MOL         0.0970
     44 H20        33.4181  -45.3102  -44.7688 H         1 MOL         0.0970
     45 H21        25.3443  -41.8685  -51.1198 H         1 MOL         0.0970
     46 H22        27.0998  -41.8269  -50.7415 H         1 MOL         0.0970
@<TRIPOS>BOND
     1   17    1 1  
     2    1   23 1  
     3   18    2 1  
     4    2   24 1  
     5    3   19 1  
     6   23    3 1  
     7    4   20 1  
     8   24    4 1  
     9    6    5 1  
    10    5    7 1  
    11    5    9 1  
    12    8    6 1  
    13    6   10 1  
    14    7   11 1  
    15   12    8 1  
    16   11   13 ar 
    17   11   15 ar 
    18   14   12 ar 
    19   12   16 ar 
    20   13   17 ar 
    21   14   18 ar 
    22   15   21 ar 
    23   16   22 ar 
    24   17   19 ar 
    25   18   20 ar 
    26   19   21 ar 
    27   20   22 ar 
    28    5   25 1  
    29    6   26 1  
    30    7   27 1  
    31    7   28 1  
    32    8   29 1  
    33    8   30 1  
    34    9   31 1  
    35    9   32 1  
    36    9   33 1  
    37   10   34 1  
    38   10   35 1  
    39   10   36 1  
    40   13   37 1  
    41   14   38 1  
    42   15   39 1  
    43   16   40 1  
    44   21   41 1  
    45   22   42 1  
    46   23   43 1  
    47   23   44 1  
    48   24   45 1  
    49   24   46 1  
@<TRIPOS>SUBSTRUCTURE
     1 MOL         1

