### 
### Created by X-TOOL on Wed Jan  1 15:39:38 2020
### 

@<TRIPOS>MOLECULE
5zk3_ligand
   49    52     1     0     0
SMALL
GAST_HUCK


@<TRIPOS>ATOM
      1 C1        183.2750   25.8000  527.6850 C.3       1 QNB         0.1511
      2 C2        183.9070   26.8450  528.6140 C.ar      1 QNB        -0.0330
      3 C3        184.1980   28.1250  528.1570 C.ar      1 QNB        -0.0473
      4 C4        184.7710   29.0630  529.0000 C.ar      1 QNB        -0.0391
      5 C5        185.0600   28.7370  530.3060 C.ar      1 QNB        -0.0398
      6 C6        184.7790   27.4720  530.7730 C.ar      1 QNB        -0.0391
      7 C7        184.2050   26.5310  529.9340 C.ar      1 QNB        -0.0473
      8 C8        183.8870   25.8690  526.2810 C.ar      1 QNB        -0.0330
      9 C9        185.2490   25.6650  526.0910 C.ar      1 QNB        -0.0473
     10 C10       185.8040   25.7280  524.8250 C.ar      1 QNB        -0.0391
     11 C11       185.0100   25.9950  523.7320 C.ar      1 QNB        -0.0398
     12 C12       183.6590   26.2000  523.9040 C.ar      1 QNB        -0.0391
     13 C13       183.1000   26.1370  525.1680 C.ar      1 QNB        -0.0473
     14 C14       181.7450   25.9890  527.6360 C.2       1 QNB         0.2342
     15 O15       183.5460   24.5020  528.2210 O.3       1 QNB        -0.4350
     16 O16       180.9700   25.0790  527.7320 O.2       1 QNB        -0.3439
     17 O17       181.3850   27.2720  527.4990 O.3       1 QNB        -0.2780
     18 C18       179.9650   27.5880  527.5920 C.3       1 QNB         0.1283
     19 C19       179.8130   28.9670  528.1970 C.3       1 QNB        -0.0003
     20 N20       179.3420   29.9400  527.2100 N.4       1 QNB         0.2373
     21 C21       180.2530   29.9670  526.0620 C.3       1 QNB        -0.0314
     22 C22       180.3010   28.6090  525.3710 C.3       1 QNB        -0.0066
     23 C23       179.4400   27.6310  526.1650 C.3       1 QNB         0.0042
     24 C24       178.0010   28.1420  526.1970 C.3       1 QNB        -0.0066
     25 C25       178.0030   29.5640  526.7450 C.3       1 QNB        -0.0314
     26 H1        183.9743   28.3919  527.1305 H         1 QNB         0.0794
     27 H2        184.9927   30.0575  528.6300 H         1 QNB         0.0681
     28 H3        185.5070   29.4731  530.9643 H         1 QNB         0.0806
     29 H4        185.0077   27.2120  531.8002 H         1 QNB         0.0681
     30 H5        183.9860   25.5388  530.3116 H         1 QNB         0.0794
     31 H6        185.8834   25.4542  526.9443 H         1 QNB         0.0794
     32 H7        186.8678   25.5666  524.6931 H         1 QNB         0.0681
     33 H8        185.4463   26.0436  522.7409 H         1 QNB         0.0806
     34 H9        183.0313   26.4115  523.0459 H         1 QNB         0.0681
     35 H10       182.0352   26.2987  525.2914 H         1 QNB         0.0794
     36 H11       183.1571   23.8414  527.6599 H         1 QNB         0.1880
     37 H12       179.4292   26.8373  528.1915 H         1 QNB         0.0705
     38 H13       180.7883   29.2960  528.5851 H         1 QNB         0.0844
     39 H14       179.0878   28.9166  529.0226 H         1 QNB         0.0844
     40 H15       179.3072   30.8542  527.6332 H         1 QNB         0.2034
     41 H16       181.2629   30.2293  526.4102 H         1 QNB         0.0814
     42 H17       179.9046   30.7239  525.3439 H         1 QNB         0.0814
     43 H18       181.3390   28.2464  525.3370 H         1 QNB         0.0320
     44 H19       179.9106   28.6999  524.3466 H         1 QNB         0.0320
     45 H20       179.4794   26.6304  525.7098 H         1 QNB         0.0335
     46 H21       177.3923   27.4954  526.8462 H         1 QNB         0.0320
     47 H22       177.5832   28.1375  525.1794 H         1 QNB         0.0320
     48 H23       177.6890   30.2572  525.9507 H         1 QNB         0.0814
     49 H24       177.2977   29.6272  527.5868 H         1 QNB         0.0814
@<TRIPOS>BOND
     1    1    2 1  
     2    1    8 1  
     3    1   14 1  
     4    1   15 1  
     5    2    3 ar 
     6    2    7 ar 
     7    3    4 ar 
     8    4    5 ar 
     9    5    6 ar 
    10    6    7 ar 
    11    8    9 ar 
    12    8   13 ar 
    13    9   10 ar 
    14   10   11 ar 
    15   11   12 ar 
    16   12   13 ar 
    17   14   16 2  
    18   14   17 1  
    19   17   18 1  
    20   18   19 1  
    21   18   23 1  
    22   19   20 1  
    23   20   21 1  
    24   20   25 1  
    25   21   22 1  
    26   22   23 1  
    27   23   24 1  
    28   24   25 1  
    29    3   26 1  
    30    4   27 1  
    31    5   28 1  
    32    6   29 1  
    33    7   30 1  
    34    9   31 1  
    35   10   32 1  
    36   11   33 1  
    37   12   34 1  
    38   13   35 1  
    39   15   36 1  
    40   18   37 1  
    41   19   38 1  
    42   19   39 1  
    43   20   40 1  
    44   21   41 1  
    45   21   42 1  
    46   22   43 1  
    47   22   44 1  
    48   23   45 1  
    49   24   46 1  
    50   24   47 1  
    51   25   48 1  
    52   25   49 1  
@<TRIPOS>SUBSTRUCTURE
     1 QNB         1

