### 
### Created by X-TOOL on Mon Aug  2 16:10:30 2021
### 

@<TRIPOS>MOLECULE
5zk7_ligand
   87    87     1     0     0
SMALL
GAST_HUCK


@<TRIPOS>ATOM
      1 C         -17.3550    9.5870   12.7310 C.2       1 ACE         0.1751
      2 O         -18.1120    8.7820   13.2960 O.2       1 ACE        -0.3972
      3 CH3       -17.3520   11.0430   13.2070 C.3       1 ACE         0.0258
      4 N         -16.5340    9.1770   11.7220 N.am      1 ACE        -0.2658
      5 CA        -15.5590    9.9990   10.9340 C.3       1 ACE         0.1310
      6 C         -16.2840   10.8930    9.9280 C.2       1 ACE         0.2040
      7 O         -16.0940   12.1100    9.9390 O.2       1 ACE        -0.3944
      8 CB        -14.5390    9.1000   10.2220 C.3       1 ACE        -0.0092
      9 CG        -13.4730    9.8640    9.4460 C.3       1 ACE        -0.0156
     10 CD        -12.3740    8.9490    8.9400 C.3       1 ACE         0.0627
     11 NE        -11.4520    8.5490   10.0010 N.pl3     1 ACE        -0.2723
     12 CZ        -10.4010    7.7440    9.8360 C.cat     1 ACE         0.2882
     13 NH1       -10.1100    7.2300    8.6370 N.pl3     1 ACE        -0.2849
     14 NH2        -9.6360    7.4460   10.8810 N.pl3     1 ACE        -0.2849
     15 N         -17.1060   10.2840    9.0700 N.am      1 ACE        -0.2621
     16 CA        -17.9060   11.0310    8.0850 C.3       1 ACE         0.1390
     17 C         -19.3990   10.8370    8.3220 C.2       1 ACE         0.2058
     18 O         -19.8550    9.7170    8.5600 O.2       1 ACE        -0.3942
     19 CB        -17.5770   10.6150    6.6460 C.3       1 ACE         0.0163
     20 CG        -16.1030   10.6430    6.3320 C.ar      1 ACE        -0.0493
     21 CD1       -15.4160   11.8510    6.1850 C.ar      1 ACE        -0.0685
     22 CD2       -15.3840    9.4610    6.1980 C.ar      1 ACE        -0.0685
     23 CE1       -14.0470   11.8710    5.9050 C.ar      1 ACE        -0.0398
     24 CE2       -14.0240    9.4730    5.9230 C.ar      1 ACE        -0.0398
     25 CZ        -13.3600   10.6760    5.7790 C.ar      1 ACE         0.0805
     26 OH        -12.0100   10.6700    5.5120 O.3       1 ACE        -0.3376
     27 N         -20.1440   11.9340    8.2470 N.am      1 ACE        -0.2614
     28 CA        -21.5920   11.8800    8.1390 C.3       1 ACE         0.1539
     29 C         -21.9760   11.3850    6.7450 C.2       1 ACE         0.2062
     30 O         -21.1400   11.3760    5.8200 O.2       1 ACE        -0.3943
     31 CB        -22.1930   13.2690    8.3710 C.3       1 ACE         0.0843
     32 OG        -21.8000   14.1820    7.3510 O.3       1 ACE        -0.3903
     33 N         -23.2430   10.9970    6.5930 N.am      1 ACE        -0.2649
     34 CA        -23.7910   10.6350    5.2870 C.3       1 ACE         0.1129
     35 C         -23.5660   11.7580    4.2660 C.2       1 ACE         0.1245
     36 O         -23.1160   11.4710    3.1470 O.2       1 ACE        -0.3725
     37 CB        -25.2910   10.3010    5.3800 C.3       1 ACE        -0.0105
     38 CG        -25.8900    9.8590    4.0520 C.3       1 ACE        -0.0155
     39 CD        -27.3990    9.6640    4.0790 C.3       1 ACE         0.0627
     40 NE        -27.7940    9.0580    2.8110 N.pl3     1 ACE        -0.2723
     41 CZ        -27.9760    9.7160    1.6640 C.cat     1 ACE         0.2882
     42 NH1       -28.3030    9.0390    0.5690 N.pl3     1 ACE        -0.2849
     43 NH2       -27.8520   11.0360    1.5870 N.pl3     1 ACE        -0.2849
     44 H1        -16.6330   11.6226   12.6094 H         1 ACE         0.0467
     45 H2        -17.0625   11.0815   14.2675 H         1 ACE         0.0467
     46 H3        -18.3582   11.4705   13.0858 H         1 ACE         0.0467
     47 H4        -16.5892    8.2088   11.4778 H         1 ACE         0.1882
     48 H5        -15.0133   10.6468   11.6358 H         1 ACE         0.0800
     49 H6        -15.0814    8.4521    9.5177 H         1 ACE         0.0313
     50 H7        -14.0372    8.4795   10.9791 H         1 ACE         0.0313
     51 H8        -13.0277   10.6223   10.1067 H         1 ACE         0.0301
     52 H9        -13.9466   10.3597    8.5858 H         1 ACE         0.0301
     53 H10       -11.8067    9.4761    8.1588 H         1 ACE         0.0689
     54 H11       -12.8344    8.0460    8.5127 H         1 ACE         0.0689
     55 H12       -11.6268    8.9162   10.9473 H         1 ACE         0.2642
     56 H13        -9.2949    6.6101    8.5265 H         1 ACE         0.2615
     57 H14       -10.7009    7.4538    7.8235 H         1 ACE         0.2615
     58 H15        -9.8545    7.8386   11.8078 H         1 ACE         0.2615
     59 H16        -8.8246    6.8224   10.7641 H         1 ACE         0.2615
     60 H17       -17.1809    9.2872    9.0972 H         1 ACE         0.1885
     61 H18       -17.6705   12.0994    8.1994 H         1 ACE         0.0821
     62 H19       -18.0920   11.3024    5.9588 H         1 ACE         0.0453
     63 H20       -17.9471    9.5915    6.4866 H         1 ACE         0.0453
     64 H21       -15.9531   12.7867    6.2897 H         1 ACE         0.0530
     65 H22       -15.8954    8.5119    6.3105 H         1 ACE         0.0530
     66 H23       -13.5272   12.8150    5.7874 H         1 ACE         0.0525
     67 H24       -13.4829    8.5392    5.8212 H         1 ACE         0.0525
     68 H25       -11.5509   10.2286    6.2169 H         1 ACE         0.2458
     69 H26       -19.6935   12.8266    8.2655 H         1 ACE         0.1884
     70 H27       -21.9861   11.1847    8.8948 H         1 ACE         0.0823
     71 H28       -21.8492   13.6498    9.3440 H         1 ACE         0.0606
     72 H29       -23.2900   13.1881    8.3757 H         1 ACE         0.0606
     73 H30       -22.1875   15.0323    7.5222 H         1 ACE         0.2097
     74 H31       -23.8361   10.9524    7.3969 H         1 ACE         0.1884
     75 H32       -23.2615    9.7378    4.9340 H         1 ACE         0.0790
     76 H33       -23.7980   12.7912    4.5203 H         1 ACE         0.1373
     77 H34       -25.8280   11.1969    5.7249 H         1 ACE         0.0314
     78 H35       -25.4240    9.4897    6.1108 H         1 ACE         0.0314
     79 H36       -25.4245    8.9046    3.7649 H         1 ACE         0.0301
     80 H37       -25.6550   10.6234    3.2968 H         1 ACE         0.0301
     81 H38       -27.8997   10.6358    4.2011 H         1 ACE         0.0689
     82 H39       -27.6758    9.0016    4.9124 H         1 ACE         0.0689
     83 H40       -27.9446    8.0391    2.8006 H         1 ACE         0.2642
     84 H41       -28.4457    9.5372   -0.3211 H         1 ACE         0.2615
     85 H42       -28.4139    8.0158    0.6100 H         1 ACE         0.2615
     86 H43       -27.5991   11.5792    2.4247 H         1 ACE         0.2615
     87 H44       -28.0087   11.5165    0.6895 H         1 ACE         0.2615
@<TRIPOS>BOND
     1    1    2 2  
     2    1    3 1  
     3    1    4 am 
     4    4    5 1  
     5    5    6 1  
     6    5    8 1  
     7    6    7 2  
     8    6   15 am 
     9    8    9 1  
    10    9   10 1  
    11   10   11 1  
    12   11   12 ar 
    13   12   13 ar 
    14   12   14 ar 
    15   15   16 1  
    16   16   17 1  
    17   16   19 1  
    18   17   18 2  
    19   17   27 am 
    20   19   20 1  
    21   20   21 ar 
    22   20   22 ar 
    23   21   23 ar 
    24   22   24 ar 
    25   23   25 ar 
    26   24   25 ar 
    27   25   26 1  
    28   27   28 1  
    29   28   29 1  
    30   28   31 1  
    31   29   30 2  
    32   29   33 am 
    33   31   32 1  
    34   33   34 1  
    35   34   35 1  
    36   34   37 1  
    37   35   36 2  
    38   37   38 1  
    39   38   39 1  
    40   39   40 1  
    41   40   41 ar 
    42   41   42 ar 
    43   41   43 ar 
    44    3   44 1  
    45    3   45 1  
    46    3   46 1  
    47    4   47 1  
    48    5   48 1  
    49    8   49 1  
    50    8   50 1  
    51    9   51 1  
    52    9   52 1  
    53   10   53 1  
    54   10   54 1  
    55   11   55 1  
    56   13   56 1  
    57   13   57 1  
    58   14   58 1  
    59   14   59 1  
    60   15   60 1  
    61   16   61 1  
    62   19   62 1  
    63   19   63 1  
    64   21   64 1  
    65   22   65 1  
    66   23   66 1  
    67   24   67 1  
    68   26   68 1  
    69   27   69 1  
    70   28   70 1  
    71   31   71 1  
    72   31   72 1  
    73   32   73 1  
    74   33   74 1  
    75   34   75 1  
    76   35   76 1  
    77   37   77 1  
    78   37   78 1  
    79   38   79 1  
    80   38   80 1  
    81   39   81 1  
    82   39   82 1  
    83   40   83 1  
    84   42   84 1  
    85   42   85 1  
    86   43   86 1  
    87   43   87 1  
@<TRIPOS>SUBSTRUCTURE
     1 ACE         1

