### 
### Created by X-TOOL on Wed Jan  1 15:39:38 2020
### 

@<TRIPOS>MOLECULE
5zk8_ligand
   47    50     1     0     0
SMALL
GAST_HUCK


@<TRIPOS>ATOM
      1 C10       187.8850   24.3400  525.9740 C.3       1 3C0         0.0743
      2 C13       183.9180   26.9520  524.8540 C.3       1 3C0         0.0981
      3 C15       183.4120   29.4720  524.6210 C.3       1 3C0         0.0130
      4 C17       184.6740   29.1790  526.6420 C.3       1 3C0         0.1332
      5 C20       182.1410   30.8040  526.2830 C.3       1 3C0        -0.0408
      6 C21       181.1480   28.9210  525.3740 C.3       1 3C0        -0.0408
      7 C22       183.2270   28.6180  526.6860 C.3       1 3C0         0.0130
      8 N19       182.4660   29.4650  525.7490 N.4       1 3C0         0.2472
      9 C14       183.4590   28.0930  523.9190 C.3       1 3C0         0.0239
     10 C16       184.7960   29.7710  525.2610 C.3       1 3C0         0.1332
     11 O18       184.9180   30.6080  526.4580 O.3       1 3C0        -0.3566
     12 C23       183.2550   27.1460  526.2370 C.3       1 3C0         0.0239
     13 O12       185.3700   26.8580  524.9000 O.3       1 3C0        -0.2714
     14 C02       185.8710   25.7460  525.5040 C.2       1 3C0         0.2510
     15 O01       185.2030   24.7920  525.9010 O.2       1 3C0        -0.3669
     16 C03       187.3950   25.7480  525.6370 C.3       1 3C0         0.1160
     17 O11       187.3850   23.4230  524.9960 O.3       1 3C0        -0.3903
     18 C04       187.7800   26.6460  526.6270 C.ar      1 3C0        -0.0177
     19 C05       188.3430   27.8660  526.2680 C.ar      1 3C0        -0.0575
     20 C06       188.7290   28.7710  527.2500 C.ar      1 3C0        -0.0681
     21 C07       188.5520   28.4560  528.5930 C.ar      1 3C0        -0.0684
     22 C08       187.9880   27.2370  528.9520 C.ar      1 3C0        -0.0681
     23 C09       187.6010   26.3310  527.9700 C.ar      1 3C0        -0.0575
     24 H1        187.5191   24.0514  526.9704 H         1 3C0         0.0608
     25 H2        188.9848   24.3215  525.9677 H         1 3C0         0.0608
     26 H3        183.5475   26.0026  524.4401 H         1 3C0         0.0653
     27 H4        183.1390   30.2497  523.8926 H         1 3C0         0.0879
     28 H5        185.4121   28.5400  527.1488 H         1 3C0         0.0681
     29 H6        181.4320   30.7035  527.1180 H         1 3C0         0.0778
     30 H7        181.6878   31.4154  525.4888 H         1 3C0         0.0778
     31 H8        183.0612   31.2897  526.6398 H         1 3C0         0.0778
     32 H9        181.2734   27.9105  524.9579 H         1 3C0         0.0778
     33 H10       180.6833   29.5730  524.6197 H         1 3C0         0.0778
     34 H11       180.5040   28.8735  526.2645 H         1 3C0         0.0778
     35 H12       182.8044   28.6890  527.6991 H         1 3C0         0.0879
     36 H13       182.4519   27.8559  523.5456 H         1 3C0         0.0349
     37 H14       184.1588   28.1548  523.0726 H         1 3C0         0.0349
     38 H15       185.6402   29.6568  524.5651 H         1 3C0         0.0681
     39 H16       183.8174   26.5627  526.9809 H         1 3C0         0.0349
     40 H17       182.2208   26.7749  526.1857 H         1 3C0         0.0349
     41 H18       187.8385   26.0606  524.6802 H         1 3C0         0.0734
     42 H19       186.4352   23.4413  525.0027 H         1 3C0         0.2098
     43 H20       188.4810   28.1115  525.2212 H         1 3C0         0.0561
     44 H21       189.1677   29.7217  526.9692 H         1 3C0         0.0600
     45 H22       188.8537   29.1606  529.3595 H         1 3C0         0.0561
     46 H23       187.8496   26.9922  529.9989 H         1 3C0         0.0600
     47 H24       187.1607   25.3811  528.2508 H         1 3C0         0.0561
@<TRIPOS>BOND
     1   16    1 1  
     2    1   17 1  
     3    2    9 1  
     4    2   12 1  
     5   13    2 1  
     6    3    8 1  
     7    9    3 1  
     8    3   10 1  
     9    7    4 1  
    10    4   10 1  
    11    4   11 1  
    12    8    5 1  
    13    8    6 1  
    14    7    8 1  
    15   12    7 1  
    16   10   11 1  
    17   14   13 1  
    18   14   15 2  
    19   14   16 1  
    20   16   18 1  
    21   18   19 ar 
    22   18   23 ar 
    23   19   20 ar 
    24   20   21 ar 
    25   21   22 ar 
    26   22   23 ar 
    27    1   24 1  
    28    1   25 1  
    29    2   26 1  
    30    3   27 1  
    31    4   28 1  
    32    5   29 1  
    33    5   30 1  
    34    5   31 1  
    35    6   32 1  
    36    6   33 1  
    37    6   34 1  
    38    7   35 1  
    39    9   36 1  
    40    9   37 1  
    41   10   38 1  
    42   12   39 1  
    43   12   40 1  
    44   16   41 1  
    45   17   42 1  
    46   19   43 1  
    47   20   44 1  
    48   21   45 1  
    49   22   46 1  
    50   23   47 1  
@<TRIPOS>SUBSTRUCTURE
     1 3C0         1

