### 
### Created by X-TOOL on Wed Jan  1 15:39:38 2020
### 

@<TRIPOS>MOLECULE
5zkb_ligand
   75    78     1     0     0
SMALL
GAST_HUCK


@<TRIPOS>ATOM
      1 C4        -60.7580  -12.7980   12.5880 C.ar      1 82F        -0.0231
      2 C5        -58.8130  -13.6420   11.7410 C.ar      1 82F         0.1908
      3 C6        -56.7290  -14.8380   12.1730 C.ar      1 82F         0.1149
      4 N1        -59.9970  -13.8700   12.3210 N.ar      1 82F        -0.2965
      5 C7        -56.4900  -15.8350   13.1150 C.ar      1 82F        -0.0293
      6 C8        -55.2690  -15.8810   13.7650 C.ar      1 82F        -0.0692
      7 N2        -57.9940  -14.7760   11.5030 N.am      1 82F        -0.1385
      8 C9        -54.2920  -14.9480   13.4850 C.ar      1 82F        -0.0699
      9 C10       -54.5200  -13.9510   12.5520 C.ar      1 82F        -0.0528
     10 C11       -55.7420  -13.8820   11.8850 C.ar      1 82F         0.0823
     11 C12       -58.3980  -15.7930   10.5900 C.2       1 82F         0.3183
     12 N3        -57.4570  -16.7000   10.3130 N.am      1 82F        -0.2576
     13 C13       -57.7750  -17.7920    9.4060 C.3       1 82F         0.0723
     14 C14       -57.3640  -17.4720    7.9840 C.3       1 82F        -0.0109
     15 C15       -56.3800  -18.7520    6.1710 C.3       1 82F        -0.0314
     16 N4        -57.6260  -18.3520    6.8390 N.4       1 82F         0.2425
     17 N         -57.1000  -12.1540   10.7770 N.am      1 82F        -0.2316
     18 C         -55.9090  -12.7680   10.9070 C.2       1 82F         0.2265
     19 O         -54.9570  -12.4310   10.2080 O.2       1 82F        -0.3762
     20 C1        -58.3520  -12.3630   11.4040 C.ar      1 82F         0.1231
     21 C16       -55.7640  -17.6060    5.4050 C.3       1 82F        -0.0123
     22 C17       -56.7390  -17.0520    4.3920 C.3       1 82F        -0.0430
     23 C18       -58.0500  -16.6570    5.0590 C.3       1 82F        -0.0045
     24 C19       -58.6100  -17.8120    5.8770 C.3       1 82F         0.0201
     25 C2        -59.1650  -11.2730   11.6950 C.ar      1 82F        -0.0338
     26 C20       -59.2480  -18.9340    5.0530 C.3       1 82F         0.0121
     27 C21       -61.3410  -18.6460    6.2840 C.3       1 82F        -0.0319
     28 C22       -61.7190  -18.5810    7.7490 C.3       1 82F        -0.0153
     29 C23       -62.9060  -17.6840    7.9800 C.3       1 82F        -0.0605
     30 C24       -60.6320  -20.8690    5.5980 C.3       1 82F        -0.0319
     31 C25       -60.6590  -21.8640    6.7330 C.3       1 82F        -0.0153
     32 C26       -61.1090  -23.2050    6.2760 C.3       1 82F        -0.0605
     33 C3        -60.3890  -11.5020   12.2990 C.ar      1 82F        -0.0650
     34 N5        -60.2000  -19.5260    6.0000 N.4       1 82F         0.2392
     35 O1        -59.5260  -15.7850   10.1190 O.2       1 82F        -0.3806
     36 H1        -61.7206  -12.9609   13.0592 H         1 82F         0.0630
     37 H2        -57.2549  -16.5701   13.3378 H         1 82F         0.0533
     38 H3        -55.0790  -16.6555   14.4992 H         1 82F         0.0617
     39 H4        -53.3390  -14.9960   13.9993 H         1 82F         0.0512
     40 H5        -53.7462  -13.2221   12.3396 H         1 82F         0.0632
     41 H6        -56.5477  -16.6293   10.7230 H         1 82F         0.1862
     42 H7        -58.8596  -17.9735    9.4320 H         1 82F         0.0571
     43 H8        -57.2437  -18.6968    9.7362 H         1 82F         0.0571
     44 H9        -56.2729  -17.3350    8.0120 H         1 82F         0.0834
     45 H10       -57.8477  -16.5143    7.7415 H         1 82F         0.0834
     46 H11       -56.5982  -19.5721    5.4711 H         1 82F         0.0814
     47 H12       -55.6638  -19.0988    6.9305 H         1 82F         0.0814
     48 H13       -58.0345  -19.1922    7.2173 H         1 82F         0.2039
     49 H14       -57.1004  -11.4083   10.1107 H         1 82F         0.2231
     50 H15       -54.8649  -17.9638    4.8819 H         1 82F         0.0317
     51 H16       -55.4852  -16.8093    6.1103 H         1 82F         0.0317
     52 H17       -56.9398  -17.8184    3.6289 H         1 82F         0.0269
     53 H18       -56.2968  -16.1655    3.9139 H         1 82F         0.0269
     54 H19       -58.7789  -16.3773    4.2841 H         1 82F         0.0322
     55 H20       -57.8724  -15.7979    5.7227 H         1 82F         0.0322
     56 H21       -59.4243  -17.3807    6.4777 H         1 82F         0.0905
     57 H22       -58.8468  -10.2652   11.4538 H         1 82F         0.0553
     58 H23       -58.4951  -19.6701    4.7346 H         1 82F         0.0871
     59 H24       -59.7651  -18.5326    4.1690 H         1 82F         0.0871
     60 H25       -61.0867  -17.6303    5.9470 H         1 82F         0.0814
     61 H26       -62.2101  -19.0132    5.7185 H         1 82F         0.0814
     62 H27       -60.8630  -18.1934    8.3209 H         1 82F         0.0314
     63 H28       -61.9650  -19.5945    8.0987 H         1 82F         0.0314
     64 H29       -63.1474  -17.6643    9.0530 H         1 82F         0.0232
     65 H30       -63.7699  -18.0667    7.4168 H         1 82F         0.0232
     66 H31       -62.6679  -16.6657    7.6390 H         1 82F         0.0232
     67 H32       -61.6453  -20.7959    5.1763 H         1 82F         0.0814
     68 H33       -59.9401  -21.2400    4.8275 H         1 82F         0.0814
     69 H34       -61.3492  -21.5014    7.5090 H         1 82F         0.0314
     70 H35       -59.6468  -21.9519    7.1546 H         1 82F         0.0314
     71 H36       -61.1154  -23.8999    7.1287 H         1 82F         0.0232
     72 H37       -60.4211  -23.5790    5.5034 H         1 82F         0.0232
     73 H38       -62.1235  -23.1285    5.8578 H         1 82F         0.0232
     74 H39       -61.0470  -10.6752   12.5409 H         1 82F         0.0546
     75 H40       -59.7019  -19.6353    6.8695 H         1 82F         0.2036
@<TRIPOS>BOND
     1    4    1 ar 
     2    1   33 ar 
     3    2    4 ar 
     4    7    2 1  
     5    2   20 ar 
     6    3    5 ar 
     7    7    3 1  
     8    3   10 ar 
     9    5    6 ar 
    10    6    8 ar 
    11   11    7 am 
    12    9    8 ar 
    13   10    9 ar 
    14   10   18 1  
    15   12   11 am 
    16   11   35 2  
    17   13   12 1  
    18   14   13 1  
    19   16   14 1  
    20   16   15 1  
    21   15   21 1  
    22   24   16 1  
    23   18   17 am 
    24   20   17 1  
    25   18   19 2  
    26   20   25 ar 
    27   22   21 1  
    28   23   22 1  
    29   24   23 1  
    30   26   24 1  
    31   25   33 ar 
    32   34   26 1  
    33   27   28 1  
    34   34   27 1  
    35   28   29 1  
    36   30   31 1  
    37   30   34 1  
    38   31   32 1  
    39    1   36 1  
    40    5   37 1  
    41    6   38 1  
    42    8   39 1  
    43    9   40 1  
    44   12   41 1  
    45   13   42 1  
    46   13   43 1  
    47   14   44 1  
    48   14   45 1  
    49   15   46 1  
    50   15   47 1  
    51   16   48 1  
    52   17   49 1  
    53   21   50 1  
    54   21   51 1  
    55   22   52 1  
    56   22   53 1  
    57   23   54 1  
    58   23   55 1  
    59   24   56 1  
    60   25   57 1  
    61   26   58 1  
    62   26   59 1  
    63   27   60 1  
    64   27   61 1  
    65   28   62 1  
    66   28   63 1  
    67   29   64 1  
    68   29   65 1  
    69   29   66 1  
    70   30   67 1  
    71   30   68 1  
    72   31   69 1  
    73   31   70 1  
    74   32   71 1  
    75   32   72 1  
    76   32   73 1  
    77   33   74 1  
    78   34   75 1  
@<TRIPOS>SUBSTRUCTURE
     1 82F         1

