### 
### Created by X-TOOL on Wed Jan  1 15:39:38 2020
### 

@<TRIPOS>MOLECULE
5zkc_ligand
   47    50     1     0     0
SMALL
GAST_HUCK


@<TRIPOS>ATOM
      1 C10       186.1620   24.4620  525.6110 C.3       1 3C0         0.0743
      2 C13       181.9930   26.8730  524.8220 C.3       1 3C0         0.0981
      3 C15       181.4450   29.3020  524.1570 C.3       1 3C0         0.0130
      4 C17       182.9440   29.3990  526.0350 C.3       1 3C0         0.1332
      5 C20       180.3730   30.9610  525.6400 C.3       1 3C0        -0.0408
      6 C21       179.2940   28.9530  525.2640 C.3       1 3C0        -0.0408
      7 C22       181.5200   28.8810  526.3590 C.3       1 3C0         0.0130
      8 N19       180.6430   29.5350  525.3670 N.4       1 3C0         0.2472
      9 C14       181.4080   27.8110  523.7470 C.3       1 3C0         0.0239
     10 C16       182.8910   29.7010  524.5610 C.3       1 3C0         0.1332
     11 O18       183.1500   30.7590  525.5430 O.3       1 3C0        -0.3566
     12 C23       181.5170   27.3460  526.2150 C.3       1 3C0         0.0239
     13 O12       183.4350   26.7790  524.6850 O.3       1 3C0        -0.2714
     14 C02       184.0310   25.7740  525.3780 C.2       1 3C0         0.2510
     15 O01       183.4350   24.8590  525.9450 O.2       1 3C0        -0.3669
     16 C03       185.5630   25.8500  525.3730 C.3       1 3C0         0.1160
     17 O11       185.7660   23.5920  524.5440 O.3       1 3C0        -0.3903
     18 C04       185.9970   26.7490  526.3460 C.ar      1 3C0        -0.0177
     19 C05       186.5020   27.9840  525.9590 C.ar      1 3C0        -0.0575
     20 C06       186.9350   28.8910  526.9180 C.ar      1 3C0        -0.0681
     21 C07       186.8620   28.5640  528.2670 C.ar      1 3C0        -0.0684
     22 C08       186.3560   27.3280  528.6560 C.ar      1 3C0        -0.0681
     23 C09       185.9220   26.4210  527.6950 C.ar      1 3C0        -0.0575
     24 H1        185.7958   24.0618  526.5679 H         1 3C0         0.0608
     25 H2        187.2592   24.5341  525.6396 H         1 3C0         0.0608
     26 H3        181.5847   25.8648  524.6581 H         1 3C0         0.0653
     27 H4        181.0834   29.9241  523.3250 H         1 3C0         0.0879
     28 H5        183.7434   28.8625  526.5671 H         1 3C0         0.0681
     29 H6        179.7712   31.0513  526.5564 H         1 3C0         0.0778
     30 H7        179.8215   31.3982  524.7946 H         1 3C0         0.0778
     31 H8        181.3251   31.4957  525.7725 H         1 3C0         0.0778
     32 H9        179.3743   27.8754  525.0584 H         1 3C0         0.0778
     33 H10       178.7450   29.4424  524.4460 H         1 3C0         0.0778
     34 H11       178.7552   29.1065  526.2106 H         1 3C0         0.0778
     35 H12       181.2185   29.1588  527.3797 H         1 3C0         0.0879
     36 H13       180.3619   27.5242  523.5639 H         1 3C0         0.0349
     37 H14       181.9893   27.6881  522.8213 H         1 3C0         0.0349
     38 H15       183.6475   29.4372  523.8072 H         1 3C0         0.0681
     39 H16       182.1854   26.9204  526.9779 H         1 3C0         0.0349
     40 H17       180.4928   26.9798  526.3793 H         1 3C0         0.0349
     41 H18       185.8955   26.2107  524.3885 H         1 3C0         0.0734
     42 H19       184.8182   23.5322  524.5209 H         1 3C0         0.2098
     43 H20       186.5582   28.2403  524.9072 H         1 3C0         0.0561
     44 H21       187.3298   29.8538  526.6143 H         1 3C0         0.0600
     45 H22       187.1992   29.2718  529.0156 H         1 3C0         0.0561
     46 H23       186.3000   27.0718  529.7078 H         1 3C0         0.0600
     47 H24       185.5254   25.4586  527.9977 H         1 3C0         0.0561
@<TRIPOS>BOND
     1   16    1 1  
     2    1   17 1  
     3    2    9 1  
     4    2   12 1  
     5   13    2 1  
     6    3    8 1  
     7    9    3 1  
     8    3   10 1  
     9    7    4 1  
    10    4   10 1  
    11    4   11 1  
    12    8    5 1  
    13    8    6 1  
    14    7    8 1  
    15   12    7 1  
    16   10   11 1  
    17   14   13 1  
    18   14   15 2  
    19   14   16 1  
    20   16   18 1  
    21   18   19 ar 
    22   18   23 ar 
    23   19   20 ar 
    24   20   21 ar 
    25   21   22 ar 
    26   22   23 ar 
    27    1   24 1  
    28    1   25 1  
    29    2   26 1  
    30    3   27 1  
    31    4   28 1  
    32    5   29 1  
    33    5   30 1  
    34    5   31 1  
    35    6   32 1  
    36    6   33 1  
    37    6   34 1  
    38    7   35 1  
    39    9   36 1  
    40    9   37 1  
    41   10   38 1  
    42   12   39 1  
    43   12   40 1  
    44   16   41 1  
    45   17   42 1  
    46   19   43 1  
    47   20   44 1  
    48   21   45 1  
    49   22   46 1  
    50   23   47 1  
@<TRIPOS>SUBSTRUCTURE
     1 3C0         1

