### 
### Created by X-TOOL on Wed Jan  1 15:39:36 2020
### 

@<TRIPOS>MOLECULE
5zku_ligand
   42    44     1     0     0
SMALL
GAST_HUCK


@<TRIPOS>ATOM
      1 C1         -4.9320   19.5580   39.8450 C.3       1 9F3         0.1462
      2 C2         -6.3300   20.2120   39.6780 C.3       1 9F3         0.2235
      3 C3         -4.4840   19.2260   38.4000 C.3       1 9F3         0.1148
      4 C4         -5.8930   16.3130   41.6680 C.3       1 9F3         0.1394
      5 C5         -7.3740   17.9680   40.3360 C.3       1 9F3         0.1077
      6 C6         -5.4510   19.9900   37.4920 C.3       1 9F3         0.1134
      7 O1         -7.4330   19.3870   40.0930 O.3       1 9F3        -0.3391
      8 C9         -6.5510   21.4350   40.5660 C.3       1 9F3         0.1008
      9 O7         -5.4230   22.2770   40.5440 O.3       1 9F3        -0.3896
     10 O2         -6.3870   20.7280   38.3450 O.3       1 9F3        -0.3363
     11 C10        -6.2160   19.0040   36.6110 C.3       1 9F3         0.0730
     12 O8         -7.1880   19.7210   35.8640 O.3       1 9F3        -0.3924
     13 O4         -3.1640   19.6460   38.1500 O.3       1 9F3        -0.3864
     14 O          -4.9420   18.4070   40.7700 O.3       1 9F3        -0.3331
     15 C          -5.9650   17.3820   40.5690 C.3       1 9F3         0.2238
     16 O3         -5.5530   16.6230   39.4290 O.3       1 9F3        -0.3363
     17 C8         -6.0260   15.2780   39.5170 C.3       1 9F3         0.1134
     18 C11        -7.1890   15.2140   38.5350 C.3       1 9F3         0.0730
     19 O9         -6.7920   14.2020   37.6620 O.3       1 9F3        -0.3924
     20 C7         -6.4270   15.0870   40.9770 C.3       1 9F3         0.1145
     21 O6         -5.7430   13.9730   41.5020 O.3       1 9F3        -0.3864
     22 O5         -6.7030   16.5750   42.8370 O.3       1 9F3        -0.3837
     23 H1         -4.2379   20.3008   40.2650 H         1 9F3         0.0679
     24 H2         -4.5596   18.1434   38.2202 H         1 9F3         0.0648
     25 H3         -4.8492   16.1706   41.9846 H         1 9F3         0.0675
     26 H4         -7.8111   17.4583   39.4647 H         1 9F3         0.0616
     27 H5         -7.9801   17.7534   41.2285 H         1 9F3         0.0616
     28 H6         -4.8917   20.6926   36.8567 H         1 9F3         0.0647
     29 H7         -6.7335   21.1031   41.5987 H         1 9F3         0.0612
     30 H8         -7.4254   21.9934   40.2003 H         1 9F3         0.0612
     31 H9         -5.5804   23.0301   41.1014 H         1 9F3         0.2096
     32 H10        -6.7139   18.2530   37.2419 H         1 9F3         0.0584
     33 H11        -5.5181   18.5020   35.9248 H         1 9F3         0.0584
     34 H12        -7.7874   20.1545   36.4601 H         1 9F3         0.2095
     35 H13        -2.9450   19.4746   37.2416 H         1 9F3         0.2100
     36 H14        -5.2519   14.5478   39.2386 H         1 9F3         0.0647
     37 H15        -7.3146   16.1696   38.0048 H         1 9F3         0.0584
     38 H16        -8.1271   14.9523   39.0464 H         1 9F3         0.0584
     39 H17        -6.6745   13.3942   38.1479 H         1 9F3         0.2095
     40 H18        -7.5154   14.9806   41.0952 H         1 9F3         0.0648
     41 H19        -5.9901   13.8507   42.4111 H         1 9F3         0.2100
     42 H20        -6.6611   15.8289   43.4236 H         1 9F3         0.2101
@<TRIPOS>BOND
     1    2    1 1  
     2    1    3 1  
     3    1   14 1  
     4    7    2 1  
     5    2    8 1  
     6    2   10 1  
     7    3    6 1  
     8    3   13 1  
     9   15    4 1  
    10    4   20 1  
    11    4   22 1  
    12    5    7 1  
    13    5   15 1  
    14    6   10 1  
    15    6   11 1  
    16    8    9 1  
    17   11   12 1  
    18   14   15 1  
    19   15   16 1  
    20   16   17 1  
    21   17   18 1  
    22   17   20 1  
    23   18   19 1  
    24   20   21 1  
    25    1   23 1  
    26    3   24 1  
    27    4   25 1  
    28    5   26 1  
    29    5   27 1  
    30    6   28 1  
    31    8   29 1  
    32    8   30 1  
    33    9   31 1  
    34   11   32 1  
    35   11   33 1  
    36   12   34 1  
    37   13   35 1  
    38   17   36 1  
    39   18   37 1  
    40   18   38 1  
    41   19   39 1  
    42   20   40 1  
    43   21   41 1  
    44   22   42 1  
@<TRIPOS>SUBSTRUCTURE
     1 9F3         1

