### 
### Created by X-TOOL on Wed Jan  1 15:39:34 2020
### 

@<TRIPOS>MOLECULE
5zla_ligand
   42    44     1     0     0
SMALL
GAST_HUCK


@<TRIPOS>ATOM
      1 C1          5.6780    0.1300  -40.0890 C.3       1 9F3         0.1462
      2 C2          7.0970    0.7580  -39.9310 C.3       1 9F3         0.2235
      3 C3          5.2890   -0.2680  -38.6510 C.3       1 9F3         0.1148
      4 C4          6.6110   -3.1210  -41.9050 C.3       1 9F3         0.1394
      5 C5          8.0320   -1.1200  -41.1310 C.3       1 9F3         0.1077
      6 C6          6.2920    0.4780  -37.7260 C.3       1 9F3         0.1134
      7 O1          8.1630   -0.2240  -40.0390 O.3       1 9F3        -0.3391
      8 C9          7.3890    1.8320  -40.9640 C.3       1 9F3         0.1008
      9 O7          6.4040    2.8650  -40.8140 O.3       1 9F3        -0.3896
     10 O2          7.1720    1.2480  -38.6030 O.3       1 9F3        -0.3363
     11 C10         7.0910   -0.4930  -36.8640 C.3       1 9F3         0.0730
     12 O8          7.8830    0.3260  -35.9450 O.3       1 9F3        -0.3924
     13 O4          3.8950    0.0820  -38.3980 O.3       1 9F3        -0.3864
     14 O           5.6180   -1.0420  -40.9820 O.3       1 9F3        -0.3331
     15 C           6.8020   -1.9580  -40.9010 C.3       1 9F3         0.2238
     16 O3          6.9740   -2.6160  -39.6020 O.3       1 9F3        -0.3363
     17 C8          6.4210   -3.9580  -39.7400 C.3       1 9F3         0.1134
     18 C11         6.8240   -4.9020  -38.6150 C.3       1 9F3         0.0730
     19 O9          8.2410   -4.8170  -38.4680 O.3       1 9F3        -0.3924
     20 C7          6.9920   -4.3520  -41.0940 C.3       1 9F3         0.1145
     21 O6          6.3210   -5.4460  -41.6100 O.3       1 9F3        -0.3864
     22 O5          7.4360   -3.1120  -43.0870 O.3       1 9F3        -0.3837
     23 H1          4.9832    0.8902  -40.4754 H         1 9F3         0.0679
     24 H2          5.4062   -1.3532  -38.5151 H         1 9F3         0.0648
     25 H3          5.5569   -3.1599  -42.2170 H         1 9F3         0.0675
     26 H4          8.9190   -1.7677  -41.1908 H         1 9F3         0.0616
     27 H5          7.9277   -0.5535  -42.0681 H         1 9F3         0.0616
     28 H6          5.7409    1.1621  -37.0639 H         1 9F3         0.0647
     29 H7          7.3309    1.4038  -41.9756 H         1 9F3         0.0612
     30 H8          8.3942    2.2468  -40.7985 H         1 9F3         0.0612
     31 H9          6.5661    3.5505  -41.4514 H         1 9F3         0.2096
     32 H10         7.7526   -1.1055  -37.4942 H         1 9F3         0.0584
     33 H11         6.4115   -1.1488  -36.2999 H         1 9F3         0.0584
     34 H12         8.4007   -0.2398  -35.3842 H         1 9F3         0.2095
     35 H13         3.6726   -0.1366  -37.5006 H         1 9F3         0.2100
     36 H14         5.3223   -3.9219  -39.7782 H         1 9F3         0.0647
     37 H15         6.5342   -5.9325  -38.8680 H         1 9F3         0.0584
     38 H16         6.3310   -4.6018  -37.6786 H         1 9F3         0.0584
     39 H17         8.6586   -5.0733  -39.2819 H         1 9F3         0.2095
     40 H18         8.0766   -4.5327  -41.0626 H         1 9F3         0.0648
     41 H19         6.6925   -5.6749  -42.4538 H         1 9F3         0.2100
     42 H20         7.2780   -3.9034  -43.5882 H         1 9F3         0.2101
@<TRIPOS>BOND
     1    2    1 1  
     2    1    3 1  
     3    1   14 1  
     4    7    2 1  
     5    2    8 1  
     6    2   10 1  
     7    3    6 1  
     8    3   13 1  
     9   15    4 1  
    10    4   20 1  
    11    4   22 1  
    12    5    7 1  
    13    5   15 1  
    14    6   10 1  
    15    6   11 1  
    16    8    9 1  
    17   11   12 1  
    18   14   15 1  
    19   15   16 1  
    20   16   17 1  
    21   17   18 1  
    22   17   20 1  
    23   18   19 1  
    24   20   21 1  
    25    1   23 1  
    26    3   24 1  
    27    4   25 1  
    28    5   26 1  
    29    5   27 1  
    30    6   28 1  
    31    8   29 1  
    32    8   30 1  
    33    9   31 1  
    34   11   32 1  
    35   11   33 1  
    36   12   34 1  
    37   13   35 1  
    38   17   36 1  
    39   18   37 1  
    40   18   38 1  
    41   19   39 1  
    42   20   40 1  
    43   21   41 1  
    44   22   42 1  
@<TRIPOS>SUBSTRUCTURE
     1 9F3         1

