### 
### Created by X-TOOL on Mon Aug  2 16:12:28 2021
### 

@<TRIPOS>MOLECULE
5zma_ligand
   35    37     1     0     0
SMALL
GAST_HUCK


@<TRIPOS>ATOM
      1 C4          6.7600   77.5670   57.2010 C.ar      1 MOL         0.1857
      2 C14        -2.5390   85.4850   56.6240 C.ar      1 MOL        -0.0240
      3 C5          6.5450   80.2630   57.7000 C.2       1 MOL         0.1795
      4 C6          7.3770   81.1560   57.0660 C.2       1 MOL        -0.0489
      5 C11        -0.4820   83.6640   57.0520 C.ar      1 MOL         0.0561
      6 C7          6.5970   82.2340   56.6330 C.2       1 MOL        -0.0669
      7 C8          5.2900   81.9570   57.0140 C.2       1 MOL         0.1139
      8 C9          4.0780   82.7250   56.8460 C.2       1 MOL         0.0475
      9 C10         0.6200   82.6830   57.2840 C.2       1 MOL         0.2464
     10 C12        -1.7990   83.2860   57.2780 C.ar      1 MOL        -0.0080
     11 C13        -2.7860   84.2070   57.0560 C.ar      1 MOL         0.1377
     12 N1          7.3790   76.4010   57.3760 N.ar      1 MOL        -0.2517
     13 N2          6.0360   77.9070   56.1370 N.ar      1 MOL        -0.2517
     14 C3          5.9380   76.9900   55.1730 C.ar      1 MOL         0.0224
     15 N3          2.9460   82.2740   57.2320 N.2       1 MOL        -0.2006
     16 C1          7.2500   75.5110   56.3910 C.ar      1 MOL         0.0224
     17 C15        -1.2260   85.8520   56.4020 C.ar      1 MOL        -0.0581
     18 C16        -0.2010   84.9520   56.6120 C.ar      1 MOL        -0.0455
     19 C2          6.5320   75.7620   55.2560 C.ar      1 MOL        -0.0156
     20 F1         -4.0750   83.8380   57.2770 F         1 MOL        -0.1823
     21 N4          1.8710   83.1180   57.0230 N.am      1 MOL        -0.1749
     22 O1          5.2410   80.7240   57.6560 O.3       1 MOL        -0.2459
     23 O2          0.3900   81.5460   57.6860 O.2       1 MOL        -0.3708
     24 S1          6.9170   78.7530   58.5010 S.3       1 MOL         0.0425
     25 H1         -3.3498   86.1860   56.4617 H         1 MOL         0.0638
     26 H2          8.4511   81.0441   56.9260 H         1 MOL         0.0276
     27 H3          6.9463   83.1177   56.1011 H         1 MOL         0.0333
     28 H4          4.1299   83.7083   56.3810 H         1 MOL         0.0703
     29 H5         -2.0390   82.2863   57.6217 H         1 MOL         0.0654
     30 H6          5.3626   77.2292   54.2860 H         1 MOL         0.0921
     31 H7          7.7355   74.5474   56.4954 H         1 MOL         0.0921
     32 H8         -0.9988   86.8552   56.0600 H         1 MOL         0.0618
     33 H9          0.8257   85.2504   56.4333 H         1 MOL         0.0633
     34 H10         6.4386   75.0272   54.4645 H         1 MOL         0.0721
     35 H11         2.0194   84.0457   56.6803 H         1 MOL         0.2492
@<TRIPOS>BOND
     1    1   12 ar 
     2    1   13 ar 
     3   24    1 1  
     4   11    2 ar 
     5    2   17 ar 
     6    3    4 2  
     7   22    3 1  
     8    3   24 1  
     9    6    4 1  
    10    9    5 1  
    11    5   10 ar 
    12    5   18 ar 
    13    7    6 2  
    14    8    7 1  
    15    7   22 1  
    16   15    8 2  
    17   21    9 am 
    18    9   23 2  
    19   10   11 ar 
    20   11   20 1  
    21   12   16 ar 
    22   13   14 ar 
    23   14   19 ar 
    24   15   21 1  
    25   16   19 ar 
    26   17   18 ar 
    27    2   25 1  
    28    4   26 1  
    29    6   27 1  
    30    8   28 1  
    31   10   29 1  
    32   14   30 1  
    33   16   31 1  
    34   17   32 1  
    35   18   33 1  
    36   19   34 1  
    37   21   35 1  
@<TRIPOS>SUBSTRUCTURE
     1 MOL         1

