### 
### Created by X-TOOL on Mon Aug  2 16:12:29 2021
### 

@<TRIPOS>MOLECULE
5znc_ligand
   49    52     1     0     0
SMALL
GAST_HUCK


@<TRIPOS>ATOM
      1 O1         65.5100   65.6290   14.9480 O.3       1 QI9        -0.3704
      2 C10        65.9550   64.6830   13.9730 C.3       1 QI9         0.1401
      3 C11        64.9990   63.4510   13.9550 C.3       1 QI9         0.0187
      4 N1         65.3510   62.4420   12.8720 N.4       1 QI9         0.2429
      5 C15        66.7010   61.8920   13.1350 C.3       1 QI9        -0.0307
      6 C14        66.8620   61.5100   14.6380 C.3       1 QI9        -0.0070
      7 C16        64.3780   61.3450   13.0140 C.3       1 QI9        -0.0180
      8 C17        64.6640   60.4590   14.2640 C.3       1 QI9         0.0303
      9 C18        63.3990   59.8800   14.8600 C.2       1 QI9        -0.0809
     10 C19        63.1220   58.6100   14.9360 C.2       1 QI9        -0.1170
     11 C13        65.4720   61.3360   15.2330 C.3       1 QI9        -0.0129
     12 C12        64.8390   62.7430   15.3300 C.3       1 QI9         0.0007
     13 C4         66.0130   65.2850   12.5560 C.ar      1 QI9         0.0151
     14 C5         67.1030   65.0030   11.7820 C.ar      1 QI9        -0.0331
     15 C6         67.1130   65.3710   10.4280 C.ar      1 QI9        -0.0046
     16 N          66.1110   65.9990    9.8270 N.ar      1 QI9        -0.3134
     17 C7         65.0120   66.3170   10.5670 C.ar      1 QI9         0.0314
     18 C3         64.9170   65.9960   11.9530 C.ar      1 QI9         0.0045
     19 C2         63.7600   66.3850   12.6640 C.ar      1 QI9        -0.0215
     20 C8         63.9740   67.0200    9.9410 C.ar      1 QI9        -0.0449
     21 C9         62.8580   67.3700   10.6380 C.ar      1 QI9        -0.0240
     22 C1         62.8070   67.1510   12.0440 C.ar      1 QI9         0.0956
     23 O          61.6330   67.5950   12.5670 O.3       1 QI9        -0.3199
     24 C          61.5070   67.5680   14.0040 C.3       1 QI9         0.0597
     25 H1         65.5076   65.2207   15.8057 H         1 QI9         0.2140
     26 H2         66.9651   64.3488   14.2521 H         1 QI9         0.0856
     27 H3         64.0061   63.8489   13.6985 H         1 QI9         0.0907
     28 H4         65.3065   62.8594   11.9555 H         1 QI9         0.2041
     29 H5         67.4556   62.6482   12.8726 H         1 QI9         0.0815
     30 H6         66.8511   60.9944   12.5171 H         1 QI9         0.0815
     31 H7         67.3981   62.3093   15.1705 H         1 QI9         0.0321
     32 H8         67.4254   60.5693   14.7254 H         1 QI9         0.0321
     33 H9         64.4234   60.7132   12.1147 H         1 QI9         0.0845
     34 H10        63.3704   61.7759   13.1089 H         1 QI9         0.0845
     35 H11        65.2947   59.6113   13.9580 H         1 QI9         0.0533
     36 H12        62.6640   60.5793   15.2557 H         1 QI9         0.0677
     37 H13        62.1842   58.2830   15.3827 H         1 QI9         0.0290
     38 H14        63.8281   57.8748   14.5528 H         1 QI9         0.0290
     39 H15        65.5226   60.8663   16.2264 H         1 QI9         0.0334
     40 H16        63.7714   62.6533   15.5793 H         1 QI9         0.0327
     41 H17        65.3499   63.3268   16.1098 H         1 QI9         0.0327
     42 H18        67.9586   64.4959   12.2132 H         1 QI9         0.0595
     43 H19        67.9901   65.1281    9.8392 H         1 QI9         0.0804
     44 H20        63.6263   66.0792   13.6953 H         1 QI9         0.0534
     45 H21        64.0602   67.2872    8.8940 H         1 QI9         0.0622
     46 H22        62.0123   67.8133   10.1249 H         1 QI9         0.0620
     47 H23        60.5169   67.9507   14.2925 H         1 QI9         0.0578
     48 H24        62.2887   68.1986   14.4526 H         1 QI9         0.0578
     49 H25        61.6192   66.5342   14.3626 H         1 QI9         0.0578
@<TRIPOS>BOND
     1    1    2 1  
     2    2    3 1  
     3    2   13 1  
     4    3    4 1  
     5    3   12 1  
     6    4    5 1  
     7    4    7 1  
     8    5    6 1  
     9    6   11 1  
    10    7    8 1  
    11    8    9 1  
    12    8   11 1  
    13    9   10 2  
    14   11   12 1  
    15   13   14 ar 
    16   13   18 ar 
    17   14   15 ar 
    18   15   16 ar 
    19   16   17 ar 
    20   17   18 ar 
    21   17   20 ar 
    22   18   19 ar 
    23   19   22 ar 
    24   20   21 ar 
    25   21   22 ar 
    26   22   23 1  
    27   23   24 1  
    28    1   25 1  
    29    2   26 1  
    30    3   27 1  
    31    4   28 1  
    32    5   29 1  
    33    5   30 1  
    34    6   31 1  
    35    6   32 1  
    36    7   33 1  
    37    7   34 1  
    38    8   35 1  
    39    9   36 1  
    40   10   37 1  
    41   10   38 1  
    42   11   39 1  
    43   12   40 1  
    44   12   41 1  
    45   14   42 1  
    46   15   43 1  
    47   19   44 1  
    48   20   45 1  
    49   21   46 1  
    50   24   47 1  
    51   24   48 1  
    52   24   49 1  
@<TRIPOS>SUBSTRUCTURE
     1 QI9         1

