### 
### Created by X-TOOL on Mon Aug  2 16:12:29 2021
### 

@<TRIPOS>MOLECULE
5zni_ligand
   43    45     1     0     0
SMALL
GAST_HUCK


@<TRIPOS>ATOM
      1 FAE        -5.3810   33.0040    7.1120 F         1 YMZ        -0.2369
      2 CAZ        -4.9430   31.7540    7.0920 C.3       1 YMZ         0.3645
      3 FAF        -5.5920   31.2460    6.0930 F         1 YMZ        -0.2369
      4 FAG        -3.6570   31.8480    6.9960 F         1 YMZ        -0.2369
      5 CAT        -5.1600   30.8060    8.1930 C.ar      1 YMZ         0.0666
      6 CAI        -5.1550   29.4290    7.9380 C.ar      1 YMZ        -0.0124
      7 CAH        -5.3540   28.5450    8.9930 C.ar      1 YMZ        -0.0060
      8 CAJ        -5.5600   29.0740   10.2960 C.ar      1 YMZ         0.0017
      9 CAU        -5.5730   30.4330   10.5480 C.ar      1 YMZ         0.0647
     10 CAV        -5.3600   31.3000    9.4690 C.ar      1 YMZ         0.0895
     11 NAP        -5.3270   32.6470    9.6130 N.ar      1 YMZ        -0.2581
     12 CAR        -5.5130   33.1630   10.8410 C.ar      1 YMZ         0.1206
     13 CAY        -5.5230   34.6540   11.0300 C.3       1 YMZ         0.4011
     14 FAC        -6.4880   35.1160   10.2910 F         1 YMZ        -0.2081
     15 FAD        -5.6170   34.9990   12.3170 F         1 YMZ        -0.2081
     16 FAB        -4.5360   35.2750   10.4460 F         1 YMZ        -0.2081
     17 CAK        -5.7370   32.3340   11.9380 C.ar      1 YMZ         0.0019
     18 CAS        -5.7610   30.9460   11.7990 C.ar      1 YMZ         0.0516
     19 CAW        -6.0390   30.1180   13.0520 C.3       1 YMZ         0.1491
     20 OAA        -5.7960   30.9000   14.1400 O.3       1 YMZ        -0.3681
     21 CAX        -7.5020   29.8350   13.2300 C.3       1 YMZ         0.0182
     22 CAO        -8.3130   31.1130   13.4060 C.3       1 YMZ        -0.0045
     23 CAM        -9.8070   30.8060   13.3760 C.3       1 YMZ        -0.0429
     24 CAL       -10.0830   29.8920   14.5570 C.3       1 YMZ        -0.0124
     25 CAN        -9.1330   28.7570   14.4500 C.3       1 YMZ        -0.0331
     26 NAQ        -7.7740   29.1670   14.4280 N.4       1 YMZ         0.2330
     27 H1         -4.9981   29.0572    6.9319 H         1 YMZ         0.1031
     28 H2         -5.3520   27.4741    8.8249 H         1 YMZ         0.0813
     29 H3         -5.7123   28.3876   11.1211 H         1 YMZ         0.1022
     30 H4         -5.8953   32.7747   12.9157 H         1 YMZ         0.0811
     31 H5         -5.4391   29.1960   13.0464 H         1 YMZ         0.0884
     32 H6         -5.9638   30.4012   14.9309 H         1 YMZ         0.2144
     33 H7         -7.8603   29.2555   12.3664 H         1 YMZ         0.0909
     34 H8         -8.0704   31.8108   12.5910 H         1 YMZ         0.0323
     35 H9         -8.0575   31.5738   14.3716 H         1 YMZ         0.0323
     36 H10       -10.0726   30.3018   12.4351 H         1 YMZ         0.0269
     37 H11       -10.3879   31.7353   13.4708 H         1 YMZ         0.0269
     38 H12       -11.1189   29.5241   14.5175 H         1 YMZ         0.0317
     39 H13        -9.9218   30.4333   15.5009 H         1 YMZ         0.0317
     40 H14        -9.3476   28.2074   13.5216 H         1 YMZ         0.0814
     41 H15        -9.2838   28.0919   15.3131 H         1 YMZ         0.0814
     42 H16        -7.5983   29.7859   15.2040 H         1 YMZ         0.2019
     43 H17        -7.1786   28.3571   14.5026 H         1 YMZ         0.2019
@<TRIPOS>BOND
     1    1    2 1  
     2    2    3 1  
     3    2    4 1  
     4    2    5 1  
     5    5    6 ar 
     6    5   10 ar 
     7    6    7 ar 
     8    7    8 ar 
     9    8    9 ar 
    10    9   10 ar 
    11    9   18 ar 
    12   10   11 ar 
    13   11   12 ar 
    14   12   13 1  
    15   12   17 ar 
    16   13   14 1  
    17   13   15 1  
    18   13   16 1  
    19   17   18 ar 
    20   18   19 1  
    21   19   20 1  
    22   19   21 1  
    23   21   22 1  
    24   21   26 1  
    25   22   23 1  
    26   23   24 1  
    27   24   25 1  
    28   25   26 1  
    29    6   27 1  
    30    7   28 1  
    31    8   29 1  
    32   17   30 1  
    33   19   31 1  
    34   20   32 1  
    35   21   33 1  
    36   22   34 1  
    37   22   35 1  
    38   23   36 1  
    39   23   37 1  
    40   24   38 1  
    41   24   39 1  
    42   25   40 1  
    43   25   41 1  
    44   26   42 1  
    45   26   43 1  
@<TRIPOS>SUBSTRUCTURE
     1 YMZ         1

