### 
### Created by X-TOOL on Mon Aug  2 16:12:29 2021
### 

@<TRIPOS>MOLECULE
5znl_ligand
   54    58     1     0     0
SMALL
GAST_HUCK


@<TRIPOS>ATOM
      1 C12       -19.0140  -10.0530   37.9460 C.3       1 MOL         0.0585
      2 C13       -18.3920  -10.3270   39.2880 C.3       1 MOL         0.0689
      3 C15       -16.2470   -9.8500   38.4450 C.3       1 MOL         0.0689
      4 C19       -21.5240  -15.3840   38.7470 C.3       1 MOL         0.0626
      5 N22       -20.6130  -18.5220   40.5060 N.2       1 MOL        -0.3074
      6 C23       -20.6960  -18.8340   41.8590 C.ar      1 MOL         0.0104
      7 C24       -21.2990  -17.8560   42.6600 C.ar      1 MOL         0.0494
      8 C27       -20.3570  -20.1800   43.8240 C.ar      1 MOL        -0.0756
      9 C29       -21.4470  -18.0400   44.0310 C.ar      1 MOL        -0.0531
     10 C31       -21.9240  -15.4200   32.9050 C.3       1 MOL         0.0601
     11 C1        -20.4920  -14.2400   34.4260 C.ar      1 MOL         0.1323
     12 C2        -20.1890  -14.0570   35.8050 C.ar      1 MOL         0.1324
     13 C3        -19.5710  -12.9130   36.2240 C.ar      1 MOL        -0.0173
     14 C4        -19.1830  -11.9150   35.2920 C.ar      1 MOL         0.0363
     15 C5        -19.4570  -12.1190   33.9150 C.ar      1 MOL         0.0259
     16 C6        -20.1160  -13.3000   33.5070 C.ar      1 MOL        -0.0169
     17 C7        -18.4860  -10.6820   35.6060 C.ar      1 MOL         0.1343
     18 N8        -18.1700   -9.7550   34.6190 N.ar      1 MOL        -0.2637
     19 C9        -18.5230  -10.1020   33.3760 C.ar      1 MOL         0.0518
     20 N10       -19.1240  -11.2070   32.9440 N.ar      1 MOL        -0.3059
     21 N11       -18.0510  -10.3950   36.8990 N.pl3     1 MOL        -0.2775
     22 O14       -17.1970   -9.5680   39.4760 O.3       1 MOL        -0.3756
     23 C16       -16.8190   -9.6180   37.0660 C.3       1 MOL         0.0585
     24 O17       -20.4690  -15.1400   36.6040 O.3       1 MOL        -0.3146
     25 C18       -21.7390  -15.1890   37.2670 C.3       1 MOL         0.0904
     26 N20       -21.1080  -16.7420   39.0810 N.pl3     1 MOL        -0.2769
     27 C21       -21.1210  -17.3430   40.2880 C.2       1 MOL         0.1853
     28 S25       -21.7650  -16.4970   41.6830 S.3       1 MOL         0.0286
     29 C26       -20.2200  -20.0040   42.4530 C.ar      1 MOL        -0.0632
     30 C28       -20.9790  -19.2140   44.6030 C.ar      1 MOL        -0.0745
     31 O30       -21.1930  -15.3790   34.1350 O.3       1 MOL        -0.3161
     32 H1        -19.2775   -8.9876   37.8716 H         1 MOL         0.0556
     33 H2        -19.9209  -10.6642   37.8275 H         1 MOL         0.0556
     34 H3        -18.1499  -11.3978   39.3578 H         1 MOL         0.0581
     35 H4        -19.1117  -10.0616   40.0764 H         1 MOL         0.0581
     36 H5        -15.9358  -10.9018   38.5275 H         1 MOL         0.0581
     37 H6        -15.3722   -9.1971   38.5805 H         1 MOL         0.0581
     38 H7        -22.4659  -15.1655   39.2714 H         1 MOL         0.0560
     39 H8        -20.7454  -14.6843   39.0848 H         1 MOL         0.0560
     40 H9        -19.9744  -21.0807   44.2903 H         1 MOL         0.0546
     41 H10       -21.9198  -17.2793   44.6416 H         1 MOL         0.0557
     42 H11       -22.4318  -16.3914   32.8125 H         1 MOL         0.0579
     43 H12       -21.2304  -15.2871   32.0616 H         1 MOL         0.0579
     44 H13       -22.6716  -14.6132   32.8957 H         1 MOL         0.0579
     45 H14       -19.3747  -12.7657   37.2799 H         1 MOL         0.0549
     46 H15       -20.3255  -13.4625   32.4559 H         1 MOL         0.0496
     47 H16       -18.2839   -9.3755   32.6078 H         1 MOL         0.1016
     48 H17       -16.0848   -9.9315   36.3092 H         1 MOL         0.0556
     49 H18       -17.0425   -8.5485   36.9391 H         1 MOL         0.0556
     50 H19       -22.2791  -14.2462   37.0956 H         1 MOL         0.0633
     51 H20       -22.3291  -16.0273   36.8682 H         1 MOL         0.0633
     52 H21       -20.7611  -17.3128   38.2970 H         1 MOL         0.1933
     53 H22       -19.7469  -20.7696   41.8488 H         1 MOL         0.0536
     54 H23       -21.1001  -19.3784   45.6676 H         1 MOL         0.0534
@<TRIPOS>BOND
     1    1    2 1  
     2   21    1 1  
     3    2   22 1  
     4    3   22 1  
     5   23    3 1  
     6    4   25 1  
     7   26    4 1  
     8    5    6 1  
     9   27    5 2  
    10    6    7 ar 
    11    6   29 ar 
    12    7    9 ar 
    13    7   28 1  
    14   29    8 ar 
    15    8   30 ar 
    16    9   30 ar 
    17   31   10 1  
    18   12   11 ar 
    19   11   16 ar 
    20   11   31 1  
    21   12   13 ar 
    22   24   12 1  
    23   13   14 ar 
    24   14   15 ar 
    25   14   17 ar 
    26   16   15 ar 
    27   15   20 ar 
    28   17   18 ar 
    29   17   21 1  
    30   18   19 ar 
    31   20   19 ar 
    32   21   23 1  
    33   25   24 1  
    34   26   27 1  
    35   27   28 1  
    36    1   32 1  
    37    1   33 1  
    38    2   34 1  
    39    2   35 1  
    40    3   36 1  
    41    3   37 1  
    42    4   38 1  
    43    4   39 1  
    44    8   40 1  
    45    9   41 1  
    46   10   42 1  
    47   10   43 1  
    48   10   44 1  
    49   13   45 1  
    50   16   46 1  
    51   19   47 1  
    52   23   48 1  
    53   23   49 1  
    54   25   50 1  
    55   25   51 1  
    56   26   52 1  
    57   29   53 1  
    58   30   54 1  
@<TRIPOS>SUBSTRUCTURE
     1 MOL         1

