### 
### Created by X-TOOL on Wed Jan  1 15:39:38 2020
### 

@<TRIPOS>MOLECULE
5zo7_ligand
   55    58     1     0     0
SMALL
GAST_HUCK


@<TRIPOS>ATOM
      1 O2         28.2240   -5.7980  -10.9730 O.co2     1 5C5        -0.5642
      2 C          27.6460   -5.8150   -9.8860 C.2       1 5C5         0.0852
      3 O          28.2290   -5.2690   -8.8300 O.co2     1 5C5        -0.5642
      4 C1         26.2960   -6.4410   -9.7550 C.3       1 5C5         0.0360
      5 N          25.8510   -6.4380   -8.3620 N.4       1 5C5         0.2332
      6 C2         25.3590   -5.6110  -10.5890 C.3       1 5C5         0.0325
      7 S          23.9810   -6.5840  -11.0540 S.3       1 5C5        -0.2297
      8 C3         22.9000   -5.7020  -12.2230 C.3       1 5C5         0.0027
      9 C18        22.8240   -4.3500  -11.5770 C.ar      1 5C5        -0.0888
     10 C24        23.6790   -3.3220  -11.9400 C.ar      1 5C5        -0.0637
     11 C23        23.6300   -2.1190  -11.2610 C.ar      1 5C5        -0.0121
     12 C21        22.7690   -1.9330  -10.1870 C.ar      1 5C5         0.1148
     13 O1         22.7070   -0.7540   -9.5180 O.3       1 5C5        -0.3055
     14 C22        23.8280    0.1050   -9.3600 C.3       1 5C5         0.0653
     15 C20        21.9210   -2.9540   -9.7950 C.ar      1 5C5        -0.0121
     16 C19        21.9550   -4.1690  -10.4840 C.ar      1 5C5        -0.0637
     17 C17        23.4780   -5.8080  -13.6010 C.ar      1 5C5        -0.0773
     18 C16        24.5440   -6.6900  -13.8190 C.ar      1 5C5        -0.0643
     19 C15        25.0820   -6.8700  -15.0800 C.ar      1 5C5        -0.0520
     20 C14        24.5710   -6.1810  -16.1710 C.ar      1 5C5        -0.0517
     21 C13        23.4980   -5.3020  -16.0210 C.ar      1 5C5        -0.0424
     22 C12        22.9110   -5.0940  -14.7830 C.ar      1 5C5        -0.0340
     23 C11        21.7990   -4.0810  -14.7520 C.3       1 5C5         0.0021
     24 C10        20.5790   -4.3480  -13.8830 C.3       1 5C5         0.0021
     25 C9         20.4700   -5.7060  -13.2580 C.ar      1 5C5        -0.0340
     26 C4         21.5520   -6.3400  -12.4310 C.ar      1 5C5        -0.0773
     27 C8         19.2560   -6.3490  -13.4390 C.ar      1 5C5        -0.0424
     28 C7         19.0450   -7.5870  -12.8750 C.ar      1 5C5        -0.0517
     29 C6         20.0390   -8.2040  -12.1240 C.ar      1 5C5        -0.0520
     30 C5         21.2830   -7.6050  -11.9080 C.ar      1 5C5        -0.0643
     31 H1         26.3228   -7.4757  -10.1274 H         1 5C5         0.1032
     32 H2         24.9398   -6.8645   -8.2995 H         1 5C5         0.2010
     33 H3         25.8012   -5.4885   -8.0272 H         1 5C5         0.2010
     34 H4         26.5051   -6.9589   -7.7992 H         1 5C5         0.2010
     35 H5         25.8824   -5.2608  -11.4909 H         1 5C5         0.0435
     36 H6         25.0163   -4.7447  -10.0042 H         1 5C5         0.0435
     37 H7         24.3830   -3.4604  -12.7526 H         1 5C5         0.0728
     38 H8         24.2754   -1.3057  -11.5724 H         1 5C5         0.0610
     39 H9         23.5304    0.9941   -8.7847 H         1 5C5         0.0590
     40 H10        24.1951    0.4147  -10.3496 H         1 5C5         0.0590
     41 H11        24.6262   -0.4287   -8.8233 H         1 5C5         0.0590
     42 H12        21.2392   -2.8129   -8.9641 H         1 5C5         0.0610
     43 H13        21.3061   -4.9801  -10.1741 H         1 5C5         0.0728
     44 H14        24.9556   -7.2427  -12.9822 H         1 5C5         0.0721
     45 H15        25.9104   -7.5555  -15.2177 H         1 5C5         0.0612
     46 H16        25.0106   -6.3275  -17.1510 H         1 5C5         0.0740
     47 H17        23.1172   -4.7730  -16.8871 H         1 5C5         0.0603
     48 H18        21.4393   -3.9661  -15.7851 H         1 5C5         0.0502
     49 H19        22.2373   -3.1323  -14.4087 H         1 5C5         0.0502
     50 H20        19.6870   -4.1989  -14.5092 H         1 5C5         0.0502
     51 H21        20.5835   -3.6081  -13.0691 H         1 5C5         0.0502
     52 H22        18.4739   -5.8781  -14.0236 H         1 5C5         0.0603
     53 H23        18.0934   -8.0861  -13.0180 H         1 5C5         0.0740
     54 H24        19.8432   -9.1792  -11.6930 H         1 5C5         0.0612
     55 H25        22.0407   -8.1246  -11.3327 H         1 5C5         0.0721
@<TRIPOS>BOND
     1    1    2 ar 
     2    2    3 ar 
     3    2    4 1  
     4    4    5 1  
     5    4    6 1  
     6    6    7 1  
     7    7    8 1  
     8    8    9 1  
     9    8   17 1  
    10    8   26 1  
    11    9   10 ar 
    12    9   16 ar 
    13   10   11 ar 
    14   11   12 ar 
    15   12   13 1  
    16   12   15 ar 
    17   13   14 1  
    18   15   16 ar 
    19   17   18 ar 
    20   17   22 ar 
    21   18   19 ar 
    22   19   20 ar 
    23   20   21 ar 
    24   21   22 ar 
    25   22   23 1  
    26   23   24 1  
    27   24   25 1  
    28   25   26 ar 
    29   25   27 ar 
    30   26   30 ar 
    31   27   28 ar 
    32   28   29 ar 
    33   29   30 ar 
    34    4   31 1  
    35    5   32 1  
    36    5   33 1  
    37    5   34 1  
    38    6   35 1  
    39    6   36 1  
    40   10   37 1  
    41   11   38 1  
    42   14   39 1  
    43   14   40 1  
    44   14   41 1  
    45   15   42 1  
    46   16   43 1  
    47   18   44 1  
    48   19   45 1  
    49   20   46 1  
    50   21   47 1  
    51   23   48 1  
    52   23   49 1  
    53   24   50 1  
    54   24   51 1  
    55   27   52 1  
    56   28   53 1  
    57   29   54 1  
    58   30   55 1  
@<TRIPOS>SUBSTRUCTURE
     1 5C5         1

