### 
### Created by X-TOOL on Wed Jan  1 15:39:37 2020
### 

@<TRIPOS>MOLECULE
5zo8_ligand
   51    53     1     0     0
SMALL
GAST_HUCK


@<TRIPOS>ATOM
      1 O1         38.2240   -6.6540   25.6890 O.co2     1 4C5        -0.5642
      2 C1         39.0650   -6.9880   24.8790 C.2       1 4C5         0.0852
      3 O2         40.3240   -6.7880   25.2640 O.co2     1 4C5        -0.5642
      4 C2         38.6970   -7.5660   23.5000 C.3       1 4C5         0.0360
      5 N          37.2570   -7.3870   23.2660 N.4       1 4C5         0.2332
      6 C3         39.4430   -6.8730   22.3710 C.3       1 4C5         0.0331
      7 S          39.4490   -7.7200   20.7900 S.3       1 4C5        -0.2250
      8 C4         40.5380   -6.8050   19.6610 C.3       1 4C5         0.0099
      9 C12        40.5170   -7.4030   18.2960 C.ar      1 4C5        -0.0779
     10 C17        40.7850   -6.6130   17.1820 C.ar      1 4C5        -0.0576
     11 C16        40.7190   -7.1990   15.9390 C.ar      1 4C5        -0.0448
     12 C15        40.4440   -8.5560   15.7570 C.ar      1 4C5        -0.0449
     13 C14        40.1620   -9.3470   16.8410 C.ar      1 4C5        -0.0448
     14 C13        40.1890   -8.7650   18.1070 C.ar      1 4C5        -0.0576
     15 C18        42.0010   -6.8290   20.0900 C.ar      1 4C5        -0.0779
     16 C23        42.4960   -7.7470   21.0170 C.ar      1 4C5        -0.0576
     17 C22        43.8410   -7.7610   21.3580 C.ar      1 4C5        -0.0448
     18 C21        44.7240   -6.8620   20.7990 C.ar      1 4C5        -0.0449
     19 C20        44.2540   -5.9310   19.9020 C.ar      1 4C5        -0.0448
     20 C19        42.9140   -5.9310   19.5360 C.ar      1 4C5        -0.0576
     21 C5         39.8860   -5.4600   19.7900 C.ar      1 4C5        -0.0832
     22 C11        40.3860   -4.4390   20.6270 C.ar      1 4C5        -0.0614
     23 C10        39.7030   -3.2370   20.7670 C.ar      1 4C5        -0.0104
     24 C8         38.4700   -3.0670   20.1210 C.ar      1 4C5         0.1167
     25 O3         37.7460   -1.9410   20.2030 O.3       1 4C5        -0.3042
     26 C9         37.8360   -1.0140   21.2590 C.3       1 4C5         0.0658
     27 C7         37.9700   -4.0490   19.2970 C.ar      1 4C5        -0.0104
     28 C6         38.6780   -5.2450   19.1520 C.ar      1 4C5        -0.0614
     29 H1         38.9429   -8.6381   23.4882 H         1 4C5         0.1032
     30 H2         37.0137   -7.7647   22.3637 H         1 4C5         0.2010
     31 H3         37.0321   -6.4047   23.2908 H         1 4C5         0.2010
     32 H4         36.7376   -7.8688   23.9830 H         1 4C5         0.2010
     33 H5         40.4887   -6.7460   22.6878 H         1 4C5         0.0436
     34 H6         38.9827   -5.8853   22.2210 H         1 4C5         0.0436
     35 H7         41.0388   -5.5647   17.2907 H         1 4C5         0.0749
     36 H8         40.8875   -6.5815   15.0642 H         1 4C5         0.0666
     37 H9         40.4534   -8.9832   14.7608 H         1 4C5         0.0761
     38 H10        39.9243  -10.3973   16.7165 H         1 4C5         0.0666
     39 H11        39.9517   -9.3742   18.9716 H         1 4C5         0.0749
     40 H12        41.8205   -8.4591   21.4771 H         1 4C5         0.0749
     41 H13        44.2027   -8.4896   22.0745 H         1 4C5         0.0666
     42 H14        45.7751   -6.8884   21.0629 H         1 4C5         0.0761
     43 H15        44.9303   -5.1963   19.4802 H         1 4C5         0.0666
     44 H16        42.5683   -5.2140   18.8001 H         1 4C5         0.0749
     45 H17        41.3132   -4.5945   21.1666 H         1 4C5         0.0740
     46 H18        40.1194   -2.4382   21.3700 H         1 4C5         0.0616
     47 H19        37.1361   -0.1846   21.0794 H         1 4C5         0.0591
     48 H20        38.8621   -0.6219   21.3163 H         1 4C5         0.0591
     49 H21        37.5799   -1.5112   22.2062 H         1 4C5         0.0591
     50 H22        37.0372   -3.8965   18.7662 H         1 4C5         0.0616
     51 H23        38.2688   -6.0262   18.5217 H         1 4C5         0.0740
@<TRIPOS>BOND
     1    1    2 ar 
     2    2    3 ar 
     3    2    4 1  
     4    4    5 1  
     5    4    6 1  
     6    6    7 1  
     7    7    8 1  
     8    8    9 1  
     9    8   15 1  
    10    8   21 1  
    11    9   10 ar 
    12    9   14 ar 
    13   10   11 ar 
    14   11   12 ar 
    15   12   13 ar 
    16   13   14 ar 
    17   15   16 ar 
    18   15   20 ar 
    19   16   17 ar 
    20   17   18 ar 
    21   18   19 ar 
    22   19   20 ar 
    23   21   22 ar 
    24   21   28 ar 
    25   22   23 ar 
    26   23   24 ar 
    27   24   25 1  
    28   24   27 ar 
    29   25   26 1  
    30   27   28 ar 
    31    4   29 1  
    32    5   30 1  
    33    5   31 1  
    34    5   32 1  
    35    6   33 1  
    36    6   34 1  
    37   10   35 1  
    38   11   36 1  
    39   12   37 1  
    40   13   38 1  
    41   14   39 1  
    42   16   40 1  
    43   17   41 1  
    44   18   42 1  
    45   19   43 1  
    46   20   44 1  
    47   22   45 1  
    48   23   46 1  
    49   26   47 1  
    50   26   48 1  
    51   26   49 1  
    52   27   50 1  
    53   28   51 1  
@<TRIPOS>SUBSTRUCTURE
     1 4C5         1

