### 
### Created by X-TOOL on Wed Jan  1 15:39:38 2020
### 

@<TRIPOS>MOLECULE
5zo9_ligand
   51    53     1     0     0
SMALL
GAST_HUCK


@<TRIPOS>ATOM
      1 O1         27.2220   -5.4380   -8.7890 O.co2     1 4C5        -0.5642
      2 C1         26.8470   -6.2280   -9.6540 C.2       1 4C5         0.0852
      3 O2         27.7140   -6.5140  -10.6180 O.co2     1 4C5        -0.5642
      4 C2         25.4680   -6.8520   -9.6790 C.3       1 4C5         0.0360
      5 N          24.7510   -6.4620   -8.5070 N.4       1 4C5         0.2332
      6 C3         24.6330   -6.3200  -10.8320 C.3       1 4C5         0.0331
      7 S          22.9400   -6.9370  -10.9210 S.3       1 4C5        -0.2250
      8 C4         21.9990   -6.0200  -12.1810 C.3       1 4C5         0.0099
      9 C12        20.5980   -6.5680  -12.3980 C.ar      1 4C5        -0.0779
     10 C17        19.5400   -5.7170  -12.8230 C.ar      1 4C5        -0.0576
     11 C16        18.2550   -6.2420  -13.0080 C.ar      1 4C5        -0.0448
     12 C15        18.0060   -7.6090  -12.7800 C.ar      1 4C5        -0.0449
     13 C14        19.0360   -8.4550  -12.3620 C.ar      1 4C5        -0.0448
     14 C13        20.3210   -7.9370  -12.1750 C.ar      1 4C5        -0.0576
     15 C18        22.6450   -6.0910  -13.5770 C.ar      1 4C5        -0.0779
     16 C23        23.6530   -7.0270  -13.9170 C.ar      1 4C5        -0.0576
     17 C22        24.2410   -7.0810  -15.1820 C.ar      1 4C5        -0.0448
     18 C21        23.8180   -6.2230  -16.1790 C.ar      1 4C5        -0.0449
     19 C20        22.8150   -5.3050  -15.8740 C.ar      1 4C5        -0.0448
     20 C19        22.2310   -5.2440  -14.6000 C.ar      1 4C5        -0.0576
     21 C5         21.9880   -4.6550  -11.5130 C.ar      1 4C5        -0.0832
     22 C11        22.8830   -3.6270  -11.8570 C.ar      1 4C5        -0.0614
     23 C10        22.8410   -2.4070  -11.1580 C.ar      1 4C5        -0.0104
     24 C8         21.9340   -2.1810  -10.0910 C.ar      1 4C5         0.1167
     25 O3         21.8670   -1.0060   -9.3710 O.3       1 4C5        -0.3042
     26 C9         22.8880   -0.0150   -9.4980 C.3       1 4C5         0.0658
     27 C7         21.0410   -3.1950   -9.7580 C.ar      1 4C5        -0.0104
     28 C6         21.0820   -4.4130  -10.4420 C.ar      1 4C5        -0.0614
     29 H1         25.5588   -7.9465   -9.7405 H         1 4C5         0.1032
     30 H2         23.8323   -6.8765   -8.5217 H         1 4C5         0.2010
     31 H3         24.6662   -5.4579   -8.4836 H         1 4C5         0.2010
     32 H4         25.2484   -6.7764   -7.6886 H         1 4C5         0.2010
     33 H5         25.1408   -6.5897  -11.7698 H         1 4C5         0.0436
     34 H6         24.5892   -5.2247  -10.7405 H         1 4C5         0.0436
     35 H7         19.7281   -4.6648  -13.0032 H         1 4C5         0.0749
     36 H8         17.4481   -5.5929  -13.3283 H         1 4C5         0.0666
     37 H9         17.0090   -8.0073  -12.9297 H         1 4C5         0.0761
     38 H10        18.8402   -9.5062  -12.1838 H         1 4C5         0.0666
     39 H11        21.1192   -8.5962  -11.8534 H         1 4C5         0.0749
     40 H12        23.9819   -7.7318  -13.1620 H         1 4C5         0.0749
     41 H13        25.0301   -7.7967  -15.3823 H         1 4C5         0.0666
     42 H14        24.2541   -6.2629  -17.1706 H         1 4C5         0.0761
     43 H15        22.4767   -4.6192  -16.6423 H         1 4C5         0.0666
     44 H16        21.4432   -4.5242  -14.4093 H         1 4C5         0.0749
     45 H17        23.6010   -3.7735  -12.6558 H         1 4C5         0.0740
     46 H18        23.5233   -1.6146  -11.4437 H         1 4C5         0.0616
     47 H19        22.6524    0.8397   -8.8469 H         1 4C5         0.0591
     48 H20        22.9419    0.3241  -10.5430 H         1 4C5         0.0591
     49 H21        23.8559   -0.4456   -9.2018 H         1 4C5         0.0591
     50 H22        20.3142   -3.0403   -8.9687 H         1 4C5         0.0616
     51 H23        20.3995   -5.2016  -10.1464 H         1 4C5         0.0740
@<TRIPOS>BOND
     1    1    2 ar 
     2    2    3 ar 
     3    2    4 1  
     4    4    5 1  
     5    4    6 1  
     6    6    7 1  
     7    7    8 1  
     8    8    9 1  
     9    8   15 1  
    10    8   21 1  
    11    9   10 ar 
    12    9   14 ar 
    13   10   11 ar 
    14   11   12 ar 
    15   12   13 ar 
    16   13   14 ar 
    17   15   16 ar 
    18   15   20 ar 
    19   16   17 ar 
    20   17   18 ar 
    21   18   19 ar 
    22   19   20 ar 
    23   21   22 ar 
    24   21   28 ar 
    25   22   23 ar 
    26   23   24 ar 
    27   24   25 1  
    28   24   27 ar 
    29   25   26 1  
    30   27   28 ar 
    31    4   29 1  
    32    5   30 1  
    33    5   31 1  
    34    5   32 1  
    35    6   33 1  
    36    6   34 1  
    37   10   35 1  
    38   11   36 1  
    39   12   37 1  
    40   13   38 1  
    41   14   39 1  
    42   16   40 1  
    43   17   41 1  
    44   18   42 1  
    45   19   43 1  
    46   20   44 1  
    47   22   45 1  
    48   23   46 1  
    49   26   47 1  
    50   26   48 1  
    51   26   49 1  
    52   27   50 1  
    53   28   51 1  
@<TRIPOS>SUBSTRUCTURE
     1 4C5         1

