### 
### Created by X-TOOL on Mon Aug  2 16:12:29 2021
### 

@<TRIPOS>MOLECULE
5zqo_ligand
   50    53     1     0     0
SMALL
GAST_HUCK


@<TRIPOS>ATOM
      1 C11        12.2110   69.3080   22.9610 C.ar      1 MOL         0.0707
      2 C12        11.3570   69.8470   23.9630 C.ar      1 MOL         0.1086
      3 C14         8.9970   70.4260   24.3600 C.3       1 MOL         0.0564
      4 C15        11.7000   69.7670   25.3200 C.ar      1 MOL        -0.0445
      5 C01        12.6530   70.7120   13.1430 C.3       1 MOL         0.0453
      6 C02        12.4010   70.4900   14.5980 C.2       1 MOL         0.1844
      7 C03        12.3230   69.1570   15.1210 C.2       1 MOL         0.2751
      8 C06        11.9000   70.0380   17.3240 C.cat     1 MOL         0.2072
      9 C08        11.4520   70.8600   19.6340 C.3       1 MOL         0.0462
     10 C09        12.2140   70.6680   20.9090 C.3       1 MOL         0.0458
     11 C16        12.8890   69.1650   25.7350 C.ar      1 MOL        -0.0842
     12 C17        13.7510   68.6440   24.7750 C.ar      1 MOL        -0.0850
     13 C18        13.4090   68.7280   23.4130 C.ar      1 MOL        -0.0525
     14 C19        12.1140   68.2830   20.7080 C.3       1 MOL         0.0458
     15 C20        11.5290   68.4480   19.2910 C.3       1 MOL         0.0462
     16 C22        12.2180   71.5030   15.5050 C.2       1 MOL         0.1981
     17 C23        12.3120   72.9550   15.0350 C.3       1 MOL         0.0670
     18 C24        12.7180   73.2020   13.5750 C.3       1 MOL        -0.0185
     19 C25        12.2280   72.1150   12.6410 C.3       1 MOL        -0.0216
     20 N05        12.0740   68.9230   16.4890 N.am      1 MOL        -0.2439
     21 N07        11.6610   69.8040   18.6510 N.pl3     1 MOL        -0.3030
     22 N10        11.8080   69.4300   21.6020 N.pl3     1 MOL        -0.3079
     23 N21        11.9730   71.2860   16.8550 N.pl3     1 MOL        -0.2106
     24 O04        12.4430   68.0920   14.4650 O.2       1 MOL        -0.3459
     25 O13        10.1690   70.4260   23.5320 O.3       1 MOL        -0.3270
     26 H1          8.1750   70.9314   23.8319 H         1 MOL         0.0572
     27 H2          9.2113   70.9576   25.2988 H         1 MOL         0.0572
     28 H3          8.7062   69.3890   24.5839 H         1 MOL         0.0572
     29 H4         11.0277   70.1814   26.0626 H         1 MOL         0.0501
     30 H5         12.0918   69.9558   12.5746 H         1 MOL         0.0704
     31 H6         13.7296   70.5879   12.9547 H         1 MOL         0.0704
     32 H7         11.7631   71.8153   19.1861 H         1 MOL         0.0553
     33 H8         10.3795   70.9001   19.8752 H         1 MOL         0.0553
     34 H9         12.0251   71.5261   21.5708 H         1 MOL         0.0531
     35 H10        13.2881   70.6123   20.6783 H         1 MOL         0.0531
     36 H11        13.1369   69.1043   26.7885 H         1 MOL         0.0477
     37 H12        14.6814   68.1757   25.0751 H         1 MOL         0.0489
     38 H13        14.0998   68.3278   22.6797 H         1 MOL         0.0480
     39 H14        13.2065   68.1844   20.6265 H         1 MOL         0.0531
     40 H15        11.6957   67.3692   21.1553 H         1 MOL         0.0531
     41 H16        10.4565   68.2095   19.3449 H         1 MOL         0.0553
     42 H17        12.0338   67.7218   18.6369 H         1 MOL         0.0553
     43 H18        13.0519   73.4607   15.6729 H         1 MOL         0.0721
     44 H19        11.3238   73.4145   15.1845 H         1 MOL         0.0721
     45 H20        13.8156   73.2471   13.5176 H         1 MOL         0.0325
     46 H21        12.2940   74.1634   13.2495 H         1 MOL         0.0325
     47 H22        11.1303   72.1586   12.5842 H         1 MOL         0.0329
     48 H23        12.6539   72.2825   11.6407 H         1 MOL         0.0329
     49 H24        12.0230   67.9929   16.8526 H         1 MOL         0.1822
     50 H25        11.8480   72.0854   17.4923 H         1 MOL         0.2495
@<TRIPOS>BOND
     1    1    2 ar 
     2    1   13 ar 
     3   22    1 1  
     4    2    4 ar 
     5    2   25 1  
     6   25    3 1  
     7    4   11 ar 
     8    6    5 1  
     9    5   19 1  
    10    7    6 1  
    11    6   16 2  
    12   20    7 am 
    13    7   24 2  
    14    8   20 ar 
    15   21    8 ar 
    16    8   23 ar 
    17   10    9 1  
    18    9   21 1  
    19   22   10 1  
    20   12   11 ar 
    21   13   12 ar 
    22   14   15 1  
    23   14   22 1  
    24   15   21 1  
    25   16   17 1  
    26   16   23 1  
    27   17   18 1  
    28   18   19 1  
    29    3   26 1  
    30    3   27 1  
    31    3   28 1  
    32    4   29 1  
    33    5   30 1  
    34    5   31 1  
    35    9   32 1  
    36    9   33 1  
    37   10   34 1  
    38   10   35 1  
    39   11   36 1  
    40   12   37 1  
    41   13   38 1  
    42   14   39 1  
    43   14   40 1  
    44   15   41 1  
    45   15   42 1  
    46   17   43 1  
    47   17   44 1  
    48   18   45 1  
    49   18   46 1  
    50   19   47 1  
    51   19   48 1  
    52   20   49 1  
    53   23   50 1  
@<TRIPOS>SUBSTRUCTURE
     1 MOL         1

