### 
### Created by X-TOOL on Mon Aug  2 16:12:29 2021
### 

@<TRIPOS>MOLECULE
5zqp_ligand
   48    52     1     0     0
SMALL
GAST_HUCK


@<TRIPOS>ATOM
      1 C10         1.9450  -11.8570   -7.1360 C.3       1 MOL         0.0568
      2 C11         1.8990  -11.3490   -5.7610 C.ar      1 MOL        -0.0073
      3 C12         2.0440  -10.1010   -5.2180 C.ar      1 MOL        -0.0479
      4 C13         1.9570   -9.9310   -3.8290 C.ar      1 MOL        -0.0431
      5 C14         1.7300  -11.0210   -2.9980 C.ar      1 MOL        -0.0415
      6 C15         1.5750  -12.3130   -3.5170 C.ar      1 MOL         0.0025
      7 C01         3.5020  -12.6050  -15.6660 C.3       1 MOL         0.0453
      8 C02         3.2050  -12.4470  -14.2040 C.2       1 MOL         0.1844
      9 C03         1.7980  -12.4050  -13.7690 C.2       1 MOL         0.2751
     10 C06         2.6270  -12.1400  -11.4620 C.cat     1 MOL         0.2071
     11 C08         3.5900  -11.8900   -9.2050 C.3       1 MOL         0.0182
     12 C09         3.3530  -11.8500   -7.6990 C.3       1 MOL        -0.0466
     13 C16         1.6690  -12.4180   -4.8820 C.ar      1 MOL         0.1480
     14 C18         1.7010  -13.3430   -6.8910 C.2       1 MOL         0.2608
     15 C20         0.9860  -11.2920   -8.1110 C.3       1 MOL        -0.0466
     16 C21         1.0340  -11.9160   -9.4770 C.3       1 MOL         0.0182
     17 C23         4.1620  -12.3300  -13.2350 C.2       1 MOL         0.1981
     18 C24         5.6450  -12.3870  -13.6130 C.3       1 MOL         0.0670
     19 C25         5.9050  -12.9700  -15.0140 C.3       1 MOL        -0.0185
     20 C26         4.9770  -12.2610  -15.9960 C.3       1 MOL        -0.0216
     21 N05         1.5790  -12.2490  -12.3700 N.am      1 MOL        -0.2439
     22 N07         2.3930  -11.9820  -10.0920 N.pl3     1 MOL        -0.3087
     23 N22         3.9070  -12.1830  -11.8790 N.pl3     1 MOL        -0.2106
     24 O04         0.7970  -12.5050  -14.4720 O.2       1 MOL        -0.3459
     25 O17         1.5320  -13.6360   -5.5530 O.3       1 MOL        -0.2017
     26 O19         1.6640  -14.2790   -7.6570 O.2       1 MOL        -0.3104
     27 H1          2.2256   -9.2466   -5.8599 H         1 MOL         0.0801
     28 H2          2.0677   -8.9416   -3.4002 H         1 MOL         0.0620
     29 H3          1.6716  -10.8687   -1.9263 H         1 MOL         0.0823
     30 H4          1.3929  -13.1728   -2.8824 H         1 MOL         0.0634
     31 H5          2.8439  -11.9338  -16.2373 H         1 MOL         0.0704
     32 H6          3.3059  -13.6471  -15.9583 H         1 MOL         0.0704
     33 H7          4.2230  -12.7647   -9.4152 H         1 MOL         0.0524
     34 H8          4.1312  -10.9719   -9.4772 H         1 MOL         0.0524
     35 H9          3.8643  -12.7278   -7.2772 H         1 MOL         0.0170
     36 H10         3.8345  -10.9326   -7.3296 H         1 MOL         0.0170
     37 H11         1.1994  -10.2182   -8.2178 H         1 MOL         0.0170
     38 H12        -0.0292  -11.4260   -7.7093 H         1 MOL         0.0170
     39 H13         0.3857  -11.3285  -10.1438 H         1 MOL         0.0524
     40 H14         0.6450  -12.9418   -9.3977 H         1 MOL         0.0524
     41 H15         6.1678  -13.0123  -12.8743 H         1 MOL         0.0721
     42 H16         6.0509  -11.3651  -13.5814 H         1 MOL         0.0721
     43 H17         5.6951  -14.0498  -15.0145 H         1 MOL         0.0325
     44 H18         6.9532  -12.8000  -15.3010 H         1 MOL         0.0325
     45 H19         5.1247  -11.1738  -15.9180 H         1 MOL         0.0329
     46 H20         5.2085  -12.5900  -17.0198 H         1 MOL         0.0329
     47 H21         0.6395  -12.2168  -12.0290 H         1 MOL         0.1822
     48 H22         4.6817  -12.1082  -11.2043 H         1 MOL         0.2495
@<TRIPOS>BOND
     1    1    2 1  
     2   12    1 1  
     3    1   14 1  
     4    1   15 1  
     5    2    3 ar 
     6    2   13 ar 
     7    3    4 ar 
     8    4    5 ar 
     9    6    5 ar 
    10   13    6 ar 
    11    8    7 1  
    12    7   20 1  
    13    9    8 1  
    14    8   17 2  
    15   21    9 am 
    16    9   24 2  
    17   10   21 ar 
    18   22   10 ar 
    19   10   23 ar 
    20   11   12 1  
    21   11   22 1  
    22   13   25 1  
    23   14   25 1  
    24   14   26 2  
    25   15   16 1  
    26   16   22 1  
    27   17   18 1  
    28   17   23 1  
    29   18   19 1  
    30   19   20 1  
    31    3   27 1  
    32    4   28 1  
    33    5   29 1  
    34    6   30 1  
    35    7   31 1  
    36    7   32 1  
    37   11   33 1  
    38   11   34 1  
    39   12   35 1  
    40   12   36 1  
    41   15   37 1  
    42   15   38 1  
    43   16   39 1  
    44   16   40 1  
    45   18   41 1  
    46   18   42 1  
    47   19   43 1  
    48   19   44 1  
    49   20   45 1  
    50   20   46 1  
    51   21   47 1  
    52   23   48 1  
@<TRIPOS>SUBSTRUCTURE
     1 MOL         1

