### 
### Created by X-TOOL on Mon Aug  2 16:12:29 2021
### 

@<TRIPOS>MOLECULE
5zqq_ligand
   52    56     1     0     0
SMALL
GAST_HUCK


@<TRIPOS>ATOM
      1 C10         2.9690  -11.7410   -7.8880 C.3       1 MOL         0.0387
      2 C11         3.0670  -10.2580   -7.5120 C.2       1 MOL         0.2116
      3 C14         2.9440   -8.7570   -5.5280 C.3       1 MOL         0.0521
      4 C15         2.7090  -11.3900   -5.5420 C.ar      1 MOL         0.0962
      5 C01         4.1060  -12.7340  -16.1650 C.3       1 MOL         0.0453
      6 C02         3.9000  -12.4380  -14.7330 C.2       1 MOL         0.1844
      7 C03         2.5220  -12.2580  -14.2740 C.2       1 MOL         0.2751
      8 C06         3.4890  -11.8860  -12.0650 C.cat     1 MOL         0.2071
      9 C08         1.9530  -11.3720  -10.1420 C.3       1 MOL         0.0167
     10 C09         1.7560  -11.9880   -8.7690 C.3       1 MOL        -0.0534
     11 C16         2.5090  -11.7410   -4.2300 C.ar      1 MOL        -0.0096
     12 C17         2.3450  -13.1070   -3.9760 C.ar      1 MOL        -0.0475
     13 C18         2.3880  -14.0590   -4.9850 C.ar      1 MOL        -0.0486
     14 C19         2.5910  -13.6950   -6.3160 C.ar      1 MOL        -0.0554
     15 C20         2.7500  -12.3690   -6.5700 C.ar      1 MOL        -0.0266
     16 C21         4.2750  -12.2220   -8.5330 C.3       1 MOL        -0.0534
     17 C22         4.4690  -11.5110   -9.8520 C.3       1 MOL         0.0167
     18 C24         4.9320  -12.3280  -13.8470 C.2       1 MOL         0.1981
     19 C25         6.3860  -12.5210  -14.2630 C.3       1 MOL         0.0670
     20 C26         6.6180  -12.7760  -15.7500 C.3       1 MOL        -0.0185
     21 C27         5.4760  -12.2800  -16.6610 C.3       1 MOL        -0.0216
     22 N05         2.3660  -11.9760  -12.8990 N.am      1 MOL        -0.2439
     23 N07         3.2960  -11.6020  -10.7140 N.pl3     1 MOL        -0.3090
     24 N13         2.8890  -10.1260   -6.1060 N.am      1 MOL        -0.2093
     25 N23         4.7480  -12.0590  -12.5050 N.pl3     1 MOL        -0.2106
     26 O04         1.4940  -12.3200  -14.9330 O.2       1 MOL        -0.3459
     27 O12         3.2410   -9.2720   -8.2050 O.2       1 MOL        -0.3196
     28 H1          3.1046   -8.0252   -6.3334 H         1 MOL         0.0573
     29 H2          3.7725   -8.6964   -4.8070 H         1 MOL         0.0573
     30 H3          1.9956   -8.5367   -5.0162 H         1 MOL         0.0573
     31 H4          3.3299  -12.2166  -16.7480 H         1 MOL         0.0704
     32 H5          4.0168  -13.8197  -16.3179 H         1 MOL         0.0704
     33 H6          1.7922  -10.2868  -10.0612 H         1 MOL         0.0522
     34 H7          1.2069  -11.8034  -10.8255 H         1 MOL         0.0522
     35 H8          0.8697  -11.5397   -8.2964 H         1 MOL         0.0151
     36 H9          1.6044  -13.0720   -8.8785 H         1 MOL         0.0151
     37 H10         2.4798  -11.0027   -3.4369 H         1 MOL         0.0591
     38 H11         2.1786  -13.4332   -2.9557 H         1 MOL         0.0799
     39 H12         2.2613  -15.1058   -4.7337 H         1 MOL         0.0588
     40 H13         2.6205  -14.4333   -7.1091 H         1 MOL         0.0771
     41 H14         4.2228  -13.3073   -8.7043 H         1 MOL         0.0151
     42 H15         5.1198  -11.9963   -7.8657 H         1 MOL         0.0151
     43 H16         5.3257  -11.9627  -10.3735 H         1 MOL         0.0522
     44 H17         4.6789  -10.4497   -9.6530 H         1 MOL         0.0522
     45 H18         6.7863  -13.3808  -13.7057 H         1 MOL         0.0721
     46 H19         6.9411  -11.6130  -13.9847 H         1 MOL         0.0721
     47 H20         6.7338  -13.8595  -15.9005 H         1 MOL         0.0325
     48 H21         7.5445  -12.2633  -16.0478 H         1 MOL         0.0325
     49 H22         5.4966  -11.1805  -16.6884 H         1 MOL         0.0329
     50 H23         5.6346  -12.6752  -17.6752 H         1 MOL         0.0329
     51 H24         1.4511  -11.8400  -12.5190 H         1 MOL         0.1822
     52 H25         5.5496  -11.9930  -11.8615 H         1 MOL         0.2495
@<TRIPOS>BOND
     1    1    2 1  
     2   10    1 1  
     3    1   15 1  
     4    1   16 1  
     5    2   24 am 
     6    2   27 2  
     7   24    3 1  
     8    4   11 ar 
     9   15    4 ar 
    10    4   24 1  
    11    6    5 1  
    12    5   21 1  
    13    7    6 1  
    14    6   18 2  
    15   22    7 am 
    16    7   26 2  
    17    8   22 ar 
    18   23    8 ar 
    19    8   25 ar 
    20    9   10 1  
    21    9   23 1  
    22   11   12 ar 
    23   12   13 ar 
    24   13   14 ar 
    25   14   15 ar 
    26   16   17 1  
    27   17   23 1  
    28   18   19 1  
    29   18   25 1  
    30   19   20 1  
    31   20   21 1  
    32    3   28 1  
    33    3   29 1  
    34    3   30 1  
    35    5   31 1  
    36    5   32 1  
    37    9   33 1  
    38    9   34 1  
    39   10   35 1  
    40   10   36 1  
    41   11   37 1  
    42   12   38 1  
    43   13   39 1  
    44   14   40 1  
    45   16   41 1  
    46   16   42 1  
    47   17   43 1  
    48   17   44 1  
    49   19   45 1  
    50   19   46 1  
    51   20   47 1  
    52   20   48 1  
    53   21   49 1  
    54   21   50 1  
    55   22   51 1  
    56   25   52 1  
@<TRIPOS>SUBSTRUCTURE
     1 MOL         1

