### 
### Created by X-TOOL on Mon Aug  2 16:12:30 2021
### 

@<TRIPOS>MOLECULE
5zqr_ligand
   57    61     1     0     0
SMALL
GAST_HUCK


@<TRIPOS>ATOM
      1 C10         1.9360  -11.6200   -7.0970 C.3       1 MOL        -0.0263
      2 C11         1.7250  -12.2650   -5.7980 C.ar      1 MOL         0.0013
      3 C12         1.4300  -13.6040   -5.5510 C.ar      1 MOL         0.1497
      4 C14         1.2510  -14.0780   -4.2170 C.ar      1 MOL         0.0243
      5 C15         1.3810  -13.1640   -3.1670 C.ar      1 MOL         0.1525
      6 C01         3.5120  -12.4680  -15.5630 C.3       1 MOL         0.0453
      7 C02         3.2390  -12.2390  -14.1180 C.2       1 MOL         0.1844
      8 C03         1.8510  -12.1700  -13.6840 C.2       1 MOL         0.2751
      9 C06         2.6790  -11.7620  -11.4110 C.cat     1 MOL         0.2071
     10 C08         1.1070  -11.3940   -9.5400 C.3       1 MOL         0.0174
     11 C09         0.8340  -11.8240   -8.1210 C.3       1 MOL        -0.0593
     12 C17         1.6800  -11.8020   -3.4200 C.ar      1 MOL         0.0181
     13 C18         1.8560  -11.3560   -4.7340 C.ar      1 MOL         0.0687
     14 C20         2.3060   -8.7660   -4.5400 C.3       1 MOL         0.0574
     15 C21         0.9510   -8.0980   -4.1520 C.3       1 MOL         0.0656
     16 C23         2.0420  -10.1240   -6.7100 C.3       1 MOL         0.0077
     17 C24         3.2600  -11.9890   -7.7230 C.3       1 MOL        -0.0593
     18 C25         3.5400  -11.3530   -9.0950 C.3       1 MOL         0.0174
     19 C27         4.2020  -12.0570  -13.1750 C.2       1 MOL         0.1981
     20 C28         5.6790  -12.1350  -13.5630 C.3       1 MOL         0.0670
     21 C29         5.9170  -12.5650  -15.0250 C.3       1 MOL        -0.0185
     22 C30         4.8960  -11.9240  -15.9300 C.3       1 MOL        -0.0216
     23 F13         1.3060  -14.4640   -6.5090 F         1 MOL        -0.1628
     24 F16         1.2150  -13.5900   -1.9440 F         1 MOL        -0.1625
     25 N05         1.6140  -11.9390  -12.2830 N.am      1 MOL        -0.2439
     26 N07         2.4550  -11.5610  -10.0780 N.pl3     1 MOL        -0.3088
     27 N19         2.1530  -10.0840   -5.2260 N.pl3     1 MOL        -0.2976
     28 N26         3.9220  -11.8250  -11.8450 N.pl3     1 MOL        -0.2106
     29 O04         0.8560  -12.3130  -14.3820 O.2       1 MOL        -0.3459
     30 O22        -0.0900   -8.9020   -4.6400 O.3       1 MOL        -0.3929
     31 H1          1.0203  -15.1192   -4.0228 H         1 MOL         0.0584
     32 H2          2.7478  -11.9531  -16.1637 H         1 MOL         0.0704
     33 H3          3.4779  -13.5472  -15.7731 H         1 MOL         0.0704
     34 H4          0.8626  -10.3236   -9.6064 H         1 MOL         0.0524
     35 H5          0.4269  -11.9663  -10.1880 H         1 MOL         0.0524
     36 H6         -0.0464  -11.2645   -7.7719 H         1 MOL         0.0161
     37 H7          0.6006  -12.8987   -8.1427 H         1 MOL         0.0161
     38 H8          1.7724  -11.1054   -2.5946 H         1 MOL         0.0547
     39 H9          2.8929   -8.9187   -3.6223 H         1 MOL         0.0559
     40 H10         2.8481   -8.0855   -5.2130 H         1 MOL         0.0559
     41 H11         0.8884   -7.0954   -4.6001 H         1 MOL         0.0578
     42 H12         0.8763   -8.0159   -3.0576 H         1 MOL         0.0578
     43 H13         1.1442   -9.5806   -7.0397 H         1 MOL         0.0408
     44 H14         2.9333   -9.6734   -7.1710 H         1 MOL         0.0408
     45 H15         3.2855  -13.0820   -7.8439 H         1 MOL         0.0161
     46 H16         4.0596  -11.6774   -7.0348 H         1 MOL         0.0161
     47 H17         4.4640  -11.7919   -9.4994 H         1 MOL         0.0524
     48 H18         3.6789  -10.2709   -8.9546 H         1 MOL         0.0524
     49 H19         6.1730  -12.8630  -12.9027 H         1 MOL         0.0721
     50 H20         6.1291  -11.1421  -13.4160 H         1 MOL         0.0721
     51 H21         5.8327  -13.6592  -15.1001 H         1 MOL         0.0325
     52 H22         6.9248  -12.2527  -15.3360 H         1 MOL         0.0325
     53 H23         4.9136  -10.8325  -15.7947 H         1 MOL         0.0329
     54 H24         5.1244  -12.1674  -16.9781 H         1 MOL         0.0329
     55 H25         0.6767  -11.9059  -11.9362 H         1 MOL         0.1822
     56 H26         4.6976  -11.6987  -11.1791 H         1 MOL         0.2495
     57 H27        -0.0186   -8.9717   -5.5848 H         1 MOL         0.2095
@<TRIPOS>BOND
     1    2    1 1  
     2    1   11 1  
     3    1   16 1  
     4    1   17 1  
     5    2    3 ar 
     6   13    2 ar 
     7    3    4 ar 
     8    3   23 1  
     9    5    4 ar 
    10   12    5 ar 
    11    5   24 1  
    12    7    6 1  
    13    6   22 1  
    14    8    7 1  
    15    7   19 2  
    16   25    8 am 
    17    8   29 2  
    18    9   25 ar 
    19   26    9 ar 
    20    9   28 ar 
    21   11   10 1  
    22   10   26 1  
    23   13   12 ar 
    24   27   13 1  
    25   14   15 1  
    26   14   27 1  
    27   15   30 1  
    28   16   27 1  
    29   17   18 1  
    30   18   26 1  
    31   19   20 1  
    32   19   28 1  
    33   20   21 1  
    34   21   22 1  
    35    4   31 1  
    36    6   32 1  
    37    6   33 1  
    38   10   34 1  
    39   10   35 1  
    40   11   36 1  
    41   11   37 1  
    42   12   38 1  
    43   14   39 1  
    44   14   40 1  
    45   15   41 1  
    46   15   42 1  
    47   16   43 1  
    48   16   44 1  
    49   17   45 1  
    50   17   46 1  
    51   18   47 1  
    52   18   48 1  
    53   20   49 1  
    54   20   50 1  
    55   21   51 1  
    56   21   52 1  
    57   22   53 1  
    58   22   54 1  
    59   25   55 1  
    60   28   56 1  
    61   30   57 1  
@<TRIPOS>SUBSTRUCTURE
     1 MOL         1

