### 
### Created by X-TOOL on Mon Aug  2 16:17:10 2021
### 

@<TRIPOS>MOLECULE
5zqu_ligand
   51    54     1     0     0
SMALL
GAST_HUCK


@<TRIPOS>ATOM
      1 OAZ       -62.3610   15.0960  141.2030 O.co2     1 MOL        -0.5626
      2 CAY       -62.5890   15.2880  139.9880 C.2       1 MOL         0.0580
      3 OBA       -63.5640   15.9840  139.6350 O.co2     1 MOL        -0.5626
      4 CAX       -61.7640   14.7130  139.0300 C.ar      1 MOL         0.0034
      5 CAV       -62.0120   14.8760  137.6690 C.ar      1 MOL        -0.0330
      6 CAW       -60.6750   13.9570  139.4320 C.ar      1 MOL        -0.0533
      7 CAU       -59.8720   13.3990  138.4510 C.ar      1 MOL        -0.0226
      8 CAR       -60.1550   13.5880  137.1610 C.ar      1 MOL         0.1420
      9 CAS       -61.1990   14.3040  136.7800 C.ar      1 MOL         0.0883
     10 NAN       -61.1710   14.2780  135.4520 N.2       1 MOL        -0.1903
     11 NAM       -60.1980   13.6000  135.0840 N.2       1 MOL        -0.0514
     12 NAL       -59.5700   13.1610  136.0400 N.pl3     1 MOL        -0.0904
     13 CAK       -58.4710   12.4010  135.9830 C.ar      1 MOL         0.1826
     14 CAJ       -57.2830   12.9350  135.4870 C.ar      1 MOL         0.0227
     15 CAI       -56.1160   12.1720  135.4180 C.ar      1 MOL        -0.0443
     16 CAP       -54.9400   12.7630  134.9260 C.3       1 MOL        -0.0411
     17 CAQ       -55.2540   13.6360  133.7090 C.3       1 MOL        -0.0834
     18 CAT       -54.3160   13.6300  136.0220 C.3       1 MOL        -0.0834
     19 CAO       -53.9310   11.7070  134.5300 C.3       1 MOL        -0.0794
     20 CAH       -53.7570   10.8040  135.7240 C.3       1 MOL        -0.0819
     21 CAD       -55.0360   10.0100  135.8340 C.3       1 MOL        -0.0467
     22 CAC       -55.1850    9.1440  134.5920 C.3       1 MOL        -0.0868
     23 CAA       -54.9850    9.1120  137.0740 C.3       1 MOL        -0.0868
     24 CAE       -56.1450   10.8510  135.8770 C.ar      1 MOL        -0.0519
     25 CAF       -57.3300   10.3160  136.3570 C.ar      1 MOL        -0.0146
     26 CAG       -58.4860   11.0740  136.4180 C.ar      1 MOL         0.0528
     27 CAB       -59.6300   10.4580  136.9130 C.3       1 MOL        -0.0095
     28 H1        -62.8596   15.4635  137.3350 H         1 MOL         0.0648
     29 H2        -60.4577   13.8066  140.4833 H         1 MOL         0.0617
     30 H3        -59.0095   12.8059  138.7328 H         1 MOL         0.0593
     31 H4        -57.2648   13.9644  135.1477 H         1 MOL         0.0960
     32 H5        -54.3252   14.0915  133.3351 H         1 MOL         0.0136
     33 H6        -55.9602   14.4281  133.9984 H         1 MOL         0.0136
     34 H7        -55.7022   13.0159  132.9187 H         1 MOL         0.0136
     35 H8        -54.0889   13.0056  136.8986 H         1 MOL         0.0136
     36 H9        -55.0226   14.4225  136.3095 H         1 MOL         0.0136
     37 H10       -53.3879   14.0851  135.6457 H         1 MOL         0.0136
     38 H11       -52.9721   12.1782  134.2683 H         1 MOL         0.0164
     39 H12       -54.3031   11.1307  133.6701 H         1 MOL         0.0164
     40 H13       -53.5978   11.4004  136.6345 H         1 MOL         0.0153
     41 H14       -52.9007   10.1304  135.5724 H         1 MOL         0.0153
     42 H15       -56.1148    8.5603  134.6614 H         1 MOL         0.0125
     43 H16       -54.3272    8.4596  134.5171 H         1 MOL         0.0125
     44 H17       -55.2209    9.7860  133.6995 H         1 MOL         0.0125
     45 H18       -54.8773    9.7353  137.9739 H         1 MOL         0.0125
     46 H19       -54.1267    8.4284  136.9966 H         1 MOL         0.0125
     47 H20       -55.9144    8.5275  137.1420 H         1 MOL         0.0125
     48 H21       -57.3516    9.2849  136.6907 H         1 MOL         0.0898
     49 H22       -60.4651   11.1738  136.9035 H         1 MOL         0.0449
     50 H23       -59.4479   10.1207  137.9440 H         1 MOL         0.0449
     51 H24       -59.8821    9.5922  136.2830 H         1 MOL         0.0449
@<TRIPOS>BOND
     1    1    2 ar 
     2    2    3 ar 
     3    2    4 1  
     4    4    5 ar 
     5    4    6 ar 
     6    5    9 ar 
     7    6    7 ar 
     8    7    8 ar 
     9    8    9 ar 
    10    8   12 1  
    11    9   10 1  
    12   10   11 2  
    13   11   12 1  
    14   12   13 1  
    15   13   14 ar 
    16   13   26 ar 
    17   14   15 ar 
    18   15   16 1  
    19   15   24 ar 
    20   16   17 1  
    21   16   18 1  
    22   16   19 1  
    23   19   20 1  
    24   20   21 1  
    25   21   22 1  
    26   21   23 1  
    27   21   24 1  
    28   24   25 ar 
    29   25   26 ar 
    30   26   27 1  
    31    5   28 1  
    32    6   29 1  
    33    7   30 1  
    34   14   31 1  
    35   17   32 1  
    36   17   33 1  
    37   17   34 1  
    38   18   35 1  
    39   18   36 1  
    40   18   37 1  
    41   19   38 1  
    42   19   39 1  
    43   20   40 1  
    44   20   41 1  
    45   22   42 1  
    46   22   43 1  
    47   22   44 1  
    48   23   45 1  
    49   23   46 1  
    50   23   47 1  
    51   25   48 1  
    52   27   49 1  
    53   27   50 1  
    54   27   51 1  
@<TRIPOS>SUBSTRUCTURE
     1 MOL         1

