### 
### Created by X-TOOL on Mon Aug  2 16:12:30 2021
### 

@<TRIPOS>MOLECULE
5zr3_ligand
   57    61     1     0     0
SMALL
GAST_HUCK


@<TRIPOS>ATOM
      1 O32        26.9750   19.2520    6.4690 O.2       1 MOL        -0.3891
      2 C31        27.4950   19.9450    7.3520 C.2       1 MOL         0.1942
      3 N33        26.9250   21.0910    7.6930 N.am      1 MOL        -0.3015
      4 C27        28.8440   19.6450    7.9620 C.ar      1 MOL         0.0339
      5 C26        29.3040   20.1730    9.1710 C.ar      1 MOL        -0.0465
      6 C25        30.5940   19.9110    9.6270 C.ar      1 MOL        -0.0066
      7 C30        30.9770   20.5000   10.9610 C.3       1 MOL        -0.0305
      8 C28        29.7190   18.8760    7.2160 C.ar      1 MOL        -0.0547
      9 C29        31.0200   18.5910    7.6650 C.ar      1 MOL        -0.0293
     10 C24        31.5310   19.0330    8.8740 C.ar      1 MOL         0.1107
     11 N20        32.7810   18.9150    9.2770 N.pl3     1 MOL        -0.1519
     12 N19        33.2510   18.5090   10.5140 N.2       1 MOL        -0.1998
     13 C18        34.5910   18.7190   10.5080 C.2       1 MOL         0.0469
     14 C21        35.5930   18.4740   11.5610 C.3       1 MOL        -0.0032
     15 C23        34.9690   19.0010   12.8760 C.3       1 MOL        -0.0524
     16 C22        36.0580   17.0320   11.6400 C.3       1 MOL        -0.0524
     17 C13        34.9770   19.4030    9.2390 C.ar      1 MOL         0.0811
     18 C14        33.6860   19.5080    8.5120 C.ar      1 MOL         0.1685
     19 N15        33.5920   20.0860    7.2860 N.ar      1 MOL        -0.2875
     20 C16        34.6740   20.5590    6.7070 C.ar      1 MOL        -0.0064
     21 C17        35.9290   20.5030    7.3280 C.ar      1 MOL        -0.0094
     22 C12        36.2010   19.9700    8.6010 C.ar      1 MOL         0.1183
     23 N10        37.4410   19.9200    9.1930 N.pl3     1 MOL        -0.2032
     24 C9         38.0590   18.7500    9.4070 C.2       1 MOL         0.1158
     25 N8         39.2510   19.0290    9.9770 N.2       1 MOL        -0.3201
     26 C11        38.1950   20.9760    9.5450 C.2       1 MOL         0.0559
     27 C7         39.3240   20.3400   10.0770 C.2       1 MOL         0.0105
     28 C5         40.5960   20.9010   10.6380 C.2       1 MOL        -0.0094
     29 C4         41.5420   20.1500   11.3540 C.2       1 MOL         0.0008
     30 N3         42.5830   20.9810   11.6530 N.2       1 MOL        -0.2172
     31 C6         41.0220   22.1890   10.4530 C.2       1 MOL         0.0542
     32 N2         42.2090   22.2220   11.0970 N.pl3     1 MOL        -0.2114
     33 C1         43.1810   23.3120   11.2990 C.3       1 MOL         0.0597
     34 H1         27.3349   21.6609    8.4052 H         1 MOL         0.1805
     35 H2         26.0848   21.3863    7.2382 H         1 MOL         0.1805
     36 H3         28.6458   20.7973    9.7644 H         1 MOL         0.0582
     37 H4         30.1473   21.1130   11.3429 H         1 MOL         0.0376
     38 H5         31.8720   21.1282   10.8411 H         1 MOL         0.0376
     39 H6         31.1910   19.6886   11.6722 H         1 MOL         0.0376
     40 H7         29.3927   18.4828    6.2600 H         1 MOL         0.0591
     41 H8         31.6602   17.9908    7.0285 H         1 MOL         0.0562
     42 H9         36.4826   19.0806   11.3360 H         1 MOL         0.0458
     43 H10        35.6749   18.8450   13.7051 H         1 MOL         0.0254
     44 H11        34.0352   18.4575   13.0824 H         1 MOL         0.0254
     45 H12        34.7536   20.0750   12.7751 H         1 MOL         0.0254
     46 H13        36.4872   16.7317   10.6727 H         1 MOL         0.0254
     47 H14        35.2023   16.3833   11.8786 H         1 MOL         0.0254
     48 H15        36.8217   16.9355   12.4258 H         1 MOL         0.0254
     49 H16        34.5928   21.0045    5.7221 H         1 MOL         0.0775
     50 H17        36.7689   20.9084    6.7755 H         1 MOL         0.0573
     51 H18        37.6726   17.7607    9.1665 H         1 MOL         0.1258
     52 H19        37.9846   22.0397    9.4438 H         1 MOL         0.0835
     53 H20        41.4603   19.0976   11.6217 H         1 MOL         0.0654
     54 H21        40.5233   22.9941    9.9154 H         1 MOL         0.0961
     55 H22        42.8014   24.2329   10.8322 H         1 MOL         0.0604
     56 H23        44.1415   23.0368   10.8389 H         1 MOL         0.0604
     57 H24        43.3253   23.4797   12.3765 H         1 MOL         0.0604
@<TRIPOS>BOND
     1    1    2 2  
     2    2    3 am 
     3    2    4 1  
     4    4    5 ar 
     5    4    8 ar 
     6    5    6 ar 
     7    6    7 1  
     8    6   10 ar 
     9    8    9 ar 
    10    9   10 ar 
    11   10   11 1  
    12   11   12 1  
    13   11   18 1  
    14   12   13 2  
    15   13   14 1  
    16   13   17 1  
    17   14   15 1  
    18   14   16 1  
    19   17   18 ar 
    20   17   22 ar 
    21   18   19 ar 
    22   19   20 ar 
    23   20   21 ar 
    24   21   22 ar 
    25   22   23 1  
    26   23   24 1  
    27   23   26 1  
    28   24   25 2  
    29   25   27 1  
    30   26   27 2  
    31   27   28 1  
    32   28   29 1  
    33   28   31 2  
    34   29   30 2  
    35   30   32 1  
    36   31   32 1  
    37   32   33 1  
    38    3   34 1  
    39    3   35 1  
    40    5   36 1  
    41    7   37 1  
    42    7   38 1  
    43    7   39 1  
    44    8   40 1  
    45    9   41 1  
    46   14   42 1  
    47   15   43 1  
    48   15   44 1  
    49   15   45 1  
    50   16   46 1  
    51   16   47 1  
    52   16   48 1  
    53   20   49 1  
    54   21   50 1  
    55   24   51 1  
    56   26   52 1  
    57   29   53 1  
    58   31   54 1  
    59   33   55 1  
    60   33   56 1  
    61   33   57 1  
@<TRIPOS>SUBSTRUCTURE
     1 MOL         1

