### 
### Created by X-TOOL on Mon Aug  2 16:10:30 2021
### 

@<TRIPOS>MOLECULE
5zty_ligand
   66    70     1     0     0
SMALL
GAST_HUCK


@<TRIPOS>ATOM
      1 CAW         8.3720    2.4660  -58.8350 C.3       1 MOL        -0.0242
      2 CAX         8.6120    3.6560  -59.8510 C.3       1 MOL        -0.0382
      3 CBE         8.1910    5.0320  -59.1860 C.3       1 MOL        -0.0472
      4 CAY        10.1380    3.7130  -60.2220 C.3       1 MOL        -0.0472
      5 CAZ        10.9950    3.9750  -58.9300 C.3       1 MOL        -0.0382
      6 CBA        10.7450    2.8000  -57.9120 C.3       1 MOL        -0.0242
      7 CBB        10.5600    5.3350  -58.2680 C.3       1 MOL        -0.0472
      8 CBC         9.0350    5.2890  -57.8850 C.3       1 MOL        -0.0382
      9 CBD         8.7870    4.1110  -56.8590 C.3       1 MOL        -0.0242
     10 CAV         9.2140    2.7180  -57.5170 C.3       1 MOL         0.0533
     11 NAT         9.0940    1.5820  -56.5630 N.am      1 MOL        -0.2806
     12 CAM         8.0070    1.1480  -55.8650 C.2       1 MOL         0.2097
     13 OAU         6.8820    1.6460  -55.9680 O.2       1 MOL        -0.3872
     14 CAJ         8.2630    0.0750  -55.0700 C.2       1 MOL         0.1171
     15 CAK         7.5030   -0.5250  -54.1430 C.2       1 MOL        -0.0021
     16 CAL         6.0740   -0.1680  -53.6860 C.3       1 MOL        -0.0391
     17 NAI         9.4250   -0.5950  -55.1040 N.2       1 MOL        -0.1909
     18 NAH         9.4140   -1.5360  -54.3150 N.pl3     1 MOL        -0.2002
     19 CAN        10.6450   -2.3980  -54.1720 C.3       1 MOL         0.0699
     20 CAO        10.4720   -3.8010  -54.7670 C.3       1 MOL        -0.0235
     21 CAP        10.8830   -3.8040  -56.2370 C.3       1 MOL        -0.0483
     22 CAQ        11.5600   -5.1340  -56.5780 C.3       1 MOL        -0.0296
     23 CAR        12.3020   -5.0050  -57.9130 C.3       1 MOL         0.0442
     24 OAS        13.5850   -4.3970  -57.7050 O.3       1 MOL        -0.3950
     25 CAG         8.2340   -1.5340  -53.6690 C.2       1 MOL         0.0951
     26 CAE         7.8620   -2.3960  -52.7040 C.ar      1 MOL         0.0030
     27 CAD         8.0090   -2.0590  -51.3460 C.ar      1 MOL        -0.0553
     28 CAC         7.6270   -2.9650  -50.3500 C.ar      1 MOL        -0.0640
     29 CAB         7.1080   -4.2170  -50.7030 C.ar      1 MOL        -0.0643
     30 CAA         6.9650   -4.5660  -52.0490 C.ar      1 MOL        -0.0640
     31 CAF         7.3340   -3.6510  -53.0450 C.ar      1 MOL        -0.0553
     32 H1          8.6894    1.5197  -59.2973 H         1 MOL         0.0293
     33 H2          7.3030    2.4101  -58.5819 H         1 MOL         0.0293
     34 H3          8.0151    3.4892  -60.7598 H         1 MOL         0.0302
     35 H4          7.1230    4.9973  -58.9249 H         1 MOL         0.0271
     36 H5          8.3674    5.8495  -59.9005 H         1 MOL         0.0271
     37 H6         10.3077    4.5263  -60.9430 H         1 MOL         0.0271
     38 H7         10.4398    2.7555  -60.6715 H         1 MOL         0.0271
     39 H8         12.0617    4.0183  -59.1950 H         1 MOL         0.0302
     40 H9         11.3429    2.9744  -57.0053 H         1 MOL         0.0293
     41 H10        11.0497    1.8500  -58.3752 H         1 MOL         0.0293
     42 H11        10.7314    6.1566  -58.9791 H         1 MOL         0.0271
     43 H12        11.1577    5.5049  -57.3603 H         1 MOL         0.0271
     44 H13         8.7365    6.2452  -57.4304 H         1 MOL         0.0302
     45 H14         7.7201    4.0771  -56.5934 H         1 MOL         0.0293
     46 H15         9.3853    4.2848  -55.9524 H         1 MOL         0.0293
     47 H16         9.9340    1.0609  -56.4121 H         1 MOL         0.1850
     48 H17         5.7180    0.7087  -54.2469 H         1 MOL         0.0344
     49 H18         6.0798    0.0624  -52.6104 H         1 MOL         0.0344
     50 H19         5.4049   -1.0204  -53.8748 H         1 MOL         0.0344
     51 H20        10.8792   -2.4985  -53.1019 H         1 MOL         0.0635
     52 H21        11.4814   -1.9012  -54.6854 H         1 MOL         0.0635
     53 H22         9.4177   -4.1036  -54.6838 H         1 MOL         0.0293
     54 H23        11.1023   -4.5114  -54.2120 H         1 MOL         0.0293
     55 H24        11.5850   -2.9777  -56.4226 H         1 MOL         0.0267
     56 H25         9.9905   -3.6754  -56.8670 H         1 MOL         0.0267
     57 H26        10.7978   -5.9231  -56.6575 H         1 MOL         0.0287
     58 H27        12.2761   -5.3944  -55.7847 H         1 MOL         0.0287
     59 H28        11.7106   -4.3815  -58.5997 H         1 MOL         0.0557
     60 H29        12.4394   -6.0045  -58.3514 H         1 MOL         0.0557
     61 H30        14.0370   -4.3213  -58.5372 H         1 MOL         0.2094
     62 H31         8.4195   -1.0944  -51.0702 H         1 MOL         0.0601
     63 H32         7.7329   -2.6976  -49.3049 H         1 MOL         0.0610
     64 H33         6.8161   -4.9181  -49.9295 H         1 MOL         0.0596
     65 H34         6.5711   -5.5385  -52.3211 H         1 MOL         0.0610
     66 H35         7.2103   -3.9154  -54.0890 H         1 MOL         0.0601
@<TRIPOS>BOND
     1    1    2 1  
     2    1   10 1  
     3    2    3 1  
     4    2    4 1  
     5    3    8 1  
     6    4    5 1  
     7    5    6 1  
     8    5    7 1  
     9    6   10 1  
    10    7    8 1  
    11    8    9 1  
    12    9   10 1  
    13   10   11 1  
    14   11   12 am 
    15   12   13 2  
    16   12   14 1  
    17   14   15 1  
    18   14   17 2  
    19   15   16 1  
    20   15   25 2  
    21   17   18 1  
    22   18   19 1  
    23   18   25 1  
    24   19   20 1  
    25   20   21 1  
    26   21   22 1  
    27   22   23 1  
    28   23   24 1  
    29   25   26 1  
    30   26   27 ar 
    31   26   31 ar 
    32   27   28 ar 
    33   28   29 ar 
    34   29   30 ar 
    35   30   31 ar 
    36    1   32 1  
    37    1   33 1  
    38    2   34 1  
    39    3   35 1  
    40    3   36 1  
    41    4   37 1  
    42    4   38 1  
    43    5   39 1  
    44    6   40 1  
    45    6   41 1  
    46    7   42 1  
    47    7   43 1  
    48    8   44 1  
    49    9   45 1  
    50    9   46 1  
    51   11   47 1  
    52   16   48 1  
    53   16   49 1  
    54   16   50 1  
    55   19   51 1  
    56   19   52 1  
    57   20   53 1  
    58   20   54 1  
    59   21   55 1  
    60   21   56 1  
    61   22   57 1  
    62   22   58 1  
    63   23   59 1  
    64   23   60 1  
    65   24   61 1  
    66   27   62 1  
    67   28   63 1  
    68   29   64 1  
    69   30   65 1  
    70   31   66 1  
@<TRIPOS>SUBSTRUCTURE
     1 MOL         1

