### 
### Created by X-TOOL on Wed Jan  1 15:39:37 2020
### 

@<TRIPOS>MOLECULE
5zu0_ligand
   46    48     1     0     0
SMALL
GAST_HUCK


@<TRIPOS>ATOM
      1 N          12.1940   55.6420  133.8660 N.4       1 SAH         0.2327
      2 CA         13.4460   55.2620  133.2210 C.3       1 SAH         0.0291
      3 CB         13.5300   55.8400  131.8130 C.3       1 SAH         0.0114
      4 CG         13.2580   57.3110  131.6790 C.3       1 SAH         0.0005
      5 SD         13.5560   57.7570  129.9890 S.3       1 SAH        -0.1578
      6 C          14.6590   55.6550  134.0220 C.2       1 SAH         0.0844
      7 O          15.6710   54.9630  134.0110 O.co2     1 SAH        -0.5643
      8 OXT        14.6680   56.6600  134.7100 O.co2     1 SAH        -0.5643
      9 C5'        11.9700   58.2370  129.3680 C.3       1 SAH         0.0226
     10 C4'        11.1510   57.0200  128.9530 C.3       1 SAH         0.0995
     11 O4'         9.7760   57.3890  128.7560 O.3       1 SAH        -0.3383
     12 C3'        11.6100   56.4020  127.6270 C.3       1 SAH         0.1132
     13 O3'        11.8540   55.0010  127.8120 O.3       1 SAH        -0.3864
     14 C2'        10.4660   56.6110  126.6520 C.3       1 SAH         0.1385
     15 O2'        10.2920   55.5220  125.7380 O.3       1 SAH        -0.3836
     16 C1'         9.2690   56.7600  127.5750 C.3       1 SAH         0.2009
     17 N9          8.1560   57.5670  127.0230 N.pl3     1 SAH        -0.1919
     18 C8          8.1870   58.8940  126.7600 C.2       1 SAH         0.1123
     19 N7          6.9880   59.3180  126.2790 N.2       1 SAH        -0.2958
     20 C5          6.1640   58.2490  126.2440 C.ar      1 SAH         0.1045
     21 C6          4.7530   57.9850  125.8480 C.ar      1 SAH         0.1298
     22 N6          3.9800   58.9990  125.3830 N.pl3     1 SAH        -0.3152
     23 N1          4.2750   56.7070  125.9640 N.ar      1 SAH        -0.2698
     24 C2          5.0390   55.6930  126.4310 C.ar      1 SAH         0.0533
     25 N3          6.3310   55.8610  126.8060 N.ar      1 SAH        -0.2714
     26 C4          6.9360   57.0890  126.7410 C.ar      1 SAH         0.1613
     27 H1         11.4185   55.3561  133.2890 H         1 SAH         0.2010
     28 H2         12.1698   56.6421  133.9899 H         1 SAH         0.2010
     29 H3         12.1284   55.1904  134.7648 H         1 SAH         0.2010
     30 H4         13.4498   54.1654  133.1348 H         1 SAH         0.1024
     31 H5         12.7994   55.3060  131.1876 H         1 SAH         0.0347
     32 H6         14.5450   55.6512  131.4334 H         1 SAH         0.0347
     33 H7         13.9285   57.8787  132.3409 H         1 SAH         0.0379
     34 H8         12.2124   57.5253  131.9450 H         1 SAH         0.0379
     35 H9         12.1092   58.8910  128.4945 H         1 SAH         0.0402
     36 H10        11.4275   58.7842  130.1530 H         1 SAH         0.0402
     37 H11        11.2249   56.2648  129.7494 H         1 SAH         0.0632
     38 H12        12.5231   56.8956  127.2629 H         1 SAH         0.0647
     39 H13        12.1383   54.6190  126.9900 H         1 SAH         0.2100
     40 H14        10.6245   57.5318  126.0714 H         1 SAH         0.0676
     41 H15        10.1108   54.7269  126.2253 H         1 SAH         0.2101
     42 H16         8.8794   55.7605  127.8184 H         1 SAH         0.0996
     43 H17         9.0540   59.5350  126.9128 H         1 SAH         0.1349
     44 H18         3.0038   58.8183  125.1086 H         1 SAH         0.1820
     45 H19         4.3695   59.9493  125.3045 H         1 SAH         0.1820
     46 H20         4.5999   54.7050  126.5086 H         1 SAH         0.0996
@<TRIPOS>BOND
     1    1    2 1  
     2    2    3 1  
     3    2    6 1  
     4    3    4 1  
     5    4    5 1  
     6    5    9 1  
     7    6    7 ar 
     8    6    8 ar 
     9    9   10 1  
    10   10   11 1  
    11   10   12 1  
    12   11   16 1  
    13   12   13 1  
    14   12   14 1  
    15   14   15 1  
    16   14   16 1  
    17   16   17 1  
    18   17   18 1  
    19   17   26 1  
    20   18   19 2  
    21   19   20 1  
    22   20   21 ar 
    23   20   26 ar 
    24   21   22 1  
    25   21   23 ar 
    26   23   24 ar 
    27   24   25 ar 
    28   25   26 ar 
    29    1   27 1  
    30    1   28 1  
    31    1   29 1  
    32    2   30 1  
    33    3   31 1  
    34    3   32 1  
    35    4   33 1  
    36    4   34 1  
    37    9   35 1  
    38    9   36 1  
    39   10   37 1  
    40   12   38 1  
    41   13   39 1  
    42   14   40 1  
    43   15   41 1  
    44   16   42 1  
    45   18   43 1  
    46   22   44 1  
    47   22   45 1  
    48   24   46 1  
@<TRIPOS>SUBSTRUCTURE
     1 SAH         1

