### 
### Created by X-TOOL on Wed Jan  1 15:39:35 2020
### 

@<TRIPOS>MOLECULE
5zun_ligand
   56    60     1     0     0
SMALL
GAST_HUCK


@<TRIPOS>ATOM
      1 C4         -7.4190   21.7760   -9.3940 C.ar      1 9JX        -0.0539
      2 C5         -8.4130   20.9890   -6.3780 C.ar      1 9JX        -0.0693
      3 C6        -10.5740   20.1160   -5.7980 C.ar      1 9JX        -0.0408
      4 C7         -7.4520   24.5750   -9.3810 C.ar      1 9JX        -0.0472
      5 C8        -10.3250   21.5180   -7.7010 C.ar      1 9JX        -0.0339
      6 C10       -18.2900   18.2110  -15.8740 C.2       1 9JX         0.0190
      7 C13       -11.1250   20.7690   -6.8760 C.ar      1 9JX         0.0696
      8 C15       -17.9310   19.2790  -13.7640 C.2       1 9JX         0.1873
      9 C17       -18.2280   19.8950  -12.4760 C.2       1 9JX         0.2487
     10 C20       -17.6110   20.7810  -10.2680 C.3       1 9JX         0.0739
     11 C21       -14.9180   19.9370  -10.7870 C.3       1 9JX        -0.0105
     12 C22       -16.6960   20.2190   -9.2050 C.3       1 9JX        -0.0105
     13 C24       -14.4200   20.0640   -8.4080 C.3       1 9JX         0.0226
     14 C1         -6.7140   22.5290  -10.3330 C.ar      1 9JX        -0.0610
     15 C2         -6.7520   23.8910  -10.3210 C.ar      1 9JX        -0.0612
     16 C3         -9.2260   20.2360   -5.5390 C.ar      1 9JX        -0.0745
     17 C9        -16.9800   18.3400  -15.5260 C.2       1 9JX        -0.0041
     18 C11        -8.9540   21.6500   -7.4740 C.ar      1 9JX        -0.0314
     19 C12        -8.1480   22.4460   -8.4270 C.ar      1 9JX        -0.0078
     20 C14        -8.1420   23.8250   -8.4370 C.ar      1 9JX         0.0479
     21 C16       -13.5080   20.6590   -6.2960 C.2       1 9JX         0.2116
     22 C18       -14.8040   20.5880   -7.0430 C.3       1 9JX         0.0885
     23 C19       -15.8220   20.4320  -11.9240 C.3       1 9JX         0.0739
     24 C23       -12.9690   20.5360   -8.5730 C.3       1 9JX         0.1002
     25 N25       -16.7680   18.9660  -14.3010 N.2       1 9JX        -0.2914
     26 N26       -12.4820   20.6120   -7.1780 N.am      1 9JX        -0.2144
     27 N27       -17.2390   20.2580  -11.5940 N.am      1 9JX        -0.2575
     28 N28       -15.3030   20.5510   -9.4720 N.4       1 9JX         0.2437
     29 O29       -13.3530   20.7800   -5.0690 O.2       1 9JX        -0.3845
     30 O30       -19.3970   20.0260  -12.1270 O.2       1 9JX        -0.3730
     31 S31       -19.3130   18.8450  -14.6830 S.3       1 9JX         0.0115
     32 CL1        -9.0280   24.6610   -7.2480 Cl        1 9JX        -0.0694
     33 H1         -7.3964   20.6926   -9.4210 H         1 9JX         0.0624
     34 H2         -7.3504   21.0610   -6.1761 H         1 9JX         0.0497
     35 H3        -11.1989   19.5083   -5.1536 H         1 9JX         0.0506
     36 H4         -7.4719   25.6587   -9.3673 H         1 9JX         0.0624
     37 H5        -10.7694   22.0210   -8.5522 H         1 9JX         0.0503
     38 H6        -18.6362   17.7572  -16.8015 H         1 9JX         0.0808
     39 H7        -17.5282   21.8779  -10.2747 H         1 9JX         0.0575
     40 H8        -18.6484   20.4929  -10.0427 H         1 9JX         0.0575
     41 H9        -13.8761   20.2057  -11.0157 H         1 9JX         0.0835
     42 H10       -15.0062   18.8432  -10.7104 H         1 9JX         0.0835
     43 H11       -16.8047   19.1247   -9.1814 H         1 9JX         0.0835
     44 H12       -16.9826   20.6371   -8.2287 H         1 9JX         0.0835
     45 H13       -14.4580   18.9647   -8.4110 H         1 9JX         0.0903
     46 H14        -6.1242   22.0206  -11.0872 H         1 9JX         0.0619
     47 H15        -6.2097   24.4417  -11.0811 H         1 9JX         0.0618
     48 H16        -8.7970   19.7402   -4.6758 H         1 9JX         0.0579
     49 H17       -16.1653   17.9829  -16.1542 H         1 9JX         0.0603
     50 H18       -15.5039   19.9011   -6.5446 H         1 9JX         0.0565
     51 H19       -15.2627   21.5846   -7.1230 H         1 9JX         0.0565
     52 H20       -15.5943   19.8616  -12.8366 H         1 9JX         0.0575
     53 H21       -15.6239   21.4996  -12.0999 H         1 9JX         0.0575
     54 H22       -12.9269   21.5212   -9.0604 H         1 9JX         0.0644
     55 H23       -12.3820   19.8123   -9.1575 H         1 9JX         0.0644
     56 H24       -15.2105   21.5529   -9.5330 H         1 9JX         0.2040
@<TRIPOS>BOND
     1    1   14 ar 
     2   19    1 ar 
     3   16    2 ar 
     4   18    2 ar 
     5    7    3 ar 
     6    3   16 ar 
     7    4   15 ar 
     8   20    4 ar 
     9    7    5 ar 
    10    5   18 ar 
    11    6   17 2  
    12   31    6 1  
    13   26    7 1  
    14    9    8 1  
    15    8   25 2  
    16    8   31 1  
    17   27    9 am 
    18    9   30 2  
    19   12   10 1  
    20   10   27 1  
    21   11   23 1  
    22   28   11 1  
    23   28   12 1  
    24   22   13 1  
    25   13   24 1  
    26   13   28 1  
    27   14   15 ar 
    28   25   17 1  
    29   18   19 1  
    30   19   20 ar 
    31   20   32 1  
    32   21   22 1  
    33   21   26 am 
    34   21   29 2  
    35   23   27 1  
    36   24   26 1  
    37    1   33 1  
    38    2   34 1  
    39    3   35 1  
    40    4   36 1  
    41    5   37 1  
    42    6   38 1  
    43   10   39 1  
    44   10   40 1  
    45   11   41 1  
    46   11   42 1  
    47   12   43 1  
    48   12   44 1  
    49   13   45 1  
    50   14   46 1  
    51   15   47 1  
    52   16   48 1  
    53   17   49 1  
    54   22   50 1  
    55   22   51 1  
    56   23   52 1  
    57   23   53 1  
    58   24   54 1  
    59   24   55 1  
    60   28   56 1  
@<TRIPOS>SUBSTRUCTURE
     1 9JX         1

