### 
### Created by X-TOOL on Mon Aug  2 16:12:30 2021
### 

@<TRIPOS>MOLECULE
5zvw_ligand
   84    83     1     0     0
SMALL
GAST_HUCK


@<TRIPOS>ATOM
      1 N          14.3670    3.6300    4.5280 N.4       1 SER         0.2396
      2 CA         13.0900    3.8710    3.8630 C.3       1 SER         0.0885
      3 C          12.0320    4.3450    4.8520 C.2       1 SER         0.2290
      4 O          11.9050    3.7960    5.9480 O.2       1 SER        -0.3906
      5 CB         12.6090    2.6020    3.1520 C.3       1 SER         0.1041
      6 OG         11.3130    2.7720    2.6070 O.3       1 SER        -0.3870
      7 N          11.2770    5.3720    4.4670 N.am      1 SER        -0.2612
      8 CA         10.1680    5.8160    5.2930 C.3       1 SER         0.1283
      9 C           9.0670    4.7600    5.3010 C.2       1 SER         0.2036
     10 O           8.9850    3.9060    4.4140 O.2       1 SER        -0.3944
     11 CB          9.6190    7.1500    4.7950 C.3       1 SER        -0.0244
     12 N           8.2140    4.8220    6.3190 N.am      1 SER        -0.2635
     13 CA          7.1800    3.8160    6.5340 C.3       1 SER         0.1335
     14 C           5.8240    4.4400    6.2220 C.2       1 SER         0.2042
     15 O           5.3600    5.3370    6.9370 O.2       1 SER        -0.3944
     16 CB          7.2150    3.2550    7.9600 C.3       1 SER        -0.0037
     17 CG1         8.6460    2.8800    8.3550 C.3       1 SER        -0.0491
     18 CG2         6.3150    2.0330    8.0500 C.3       1 SER        -0.0582
     19 CD1         9.2480    1.7960    7.4840 C.3       1 SER        -0.0648
     20 N           5.1520    3.9060    5.2210 N.am      1 SER        -0.2637
     21 CA          3.8370    4.3280    4.7970 C.3       1 SER         0.1311
     22 C           2.8790    3.2440    5.1010 C.2       1 SER         0.2037
     23 O           3.2760    2.1600    5.1670 O.2       1 SER        -0.3944
     24 CB          3.7920    4.4250    3.2960 C.3       1 SER        -0.0092
     25 CG          4.3910    5.6220    2.6490 C.3       1 SER        -0.0156
     26 CD          4.3330    5.4610    1.1510 C.3       1 SER         0.0627
     27 NE          5.3780    6.1870    0.4930 N.pl3     1 SER        -0.2723
     28 CZ          6.5970    5.7340    0.3590 C.cat     1 SER         0.2882
     29 NH1         6.9150    4.5880    0.8510 N.pl3     1 SER        -0.2849
     30 NH2         7.4960    6.4250   -0.2200 N.pl3     1 SER        -0.2849
     31 N           1.6040    3.5380    5.2510 N.am      1 SER        -0.2664
     32 CA          0.6000    2.5230    5.4940 C.3       1 SER         0.1201
     33 C          -0.8250    3.0250    5.3950 C.2       1 SER         0.2002
     34 O          -1.0940    4.2150    5.5980 O.2       1 SER        -0.3947
     35 N          -1.7440    2.1130    5.0890 N.am      1 SER        -0.2700
     36 CA         -3.1580    2.4350    4.9630 C.3       1 SER         0.0916
     37 C          -3.9960    1.2850    5.5070 C.2       1 SER         0.0598
     38 O          -3.5540    0.1330    5.4880 O.co2     1 SER        -0.5666
     39 CB         -3.5180    2.7210    3.5170 C.3       1 SER        -0.0300
     40 OXT        -5.1180    1.4750    5.9840 O.co2     1 SER        -0.5666
     41 H1         15.0451    3.3184    3.8504 H         1 SER         0.2016
     42 H2         14.2491    2.9217    5.2354 H         1 SER         0.2016
     43 H3         14.6887    4.4834    4.9572 H         1 SER         0.2016
     44 H4         13.2374    4.6588    3.1096 H         1 SER         0.1122
     45 H5         12.5867    1.7736    3.8754 H         1 SER         0.0640
     46 H6         13.3096    2.3603    2.3392 H         1 SER         0.0640
     47 H7         10.7016    2.9765    3.3047 H         1 SER         0.2099
     48 H8         11.4744    5.8396    3.6054 H         1 SER         0.1884
     49 H9         10.5317    5.9518    6.3222 H         1 SER         0.0797
     50 H10         8.7818    7.4641    5.4357 H         1 SER         0.0277
     51 H11         9.2659    7.0375    3.7593 H         1 SER         0.0277
     52 H12        10.4135    7.9099    4.8311 H         1 SER         0.0277
     53 H13         8.2839    5.5860    6.9605 H         1 SER         0.1883
     54 H14         7.3530    2.9830    5.8368 H         1 SER         0.0803
     55 H15         6.8453    4.0240    8.6542 H         1 SER         0.0345
     56 H16         8.6385    2.5260    9.3964 H         1 SER         0.0267
     57 H17         9.2756    3.7787    8.2777 H         1 SER         0.0267
     58 H18         5.2896    2.3110    7.7648 H         1 SER         0.0235
     59 H19         6.3178    1.6507    9.0814 H         1 SER         0.0235
     60 H20         6.6863    1.2532    7.3689 H         1 SER         0.0235
     61 H21        10.2715    1.5789    7.8237 H         1 SER         0.0230
     62 H22         9.2734    2.1374    6.4387 H         1 SER         0.0230
     63 H23         8.6363    0.8847    7.5574 H         1 SER         0.0230
     64 H24         5.5832    3.1557    4.7198 H         1 SER         0.1883
     65 H25         3.5559    5.2768    5.2773 H         1 SER         0.0800
     66 H26         2.7335    4.3896    2.9989 H         1 SER         0.0313
     67 H27         4.3146    3.5432    2.8968 H         1 SER         0.0313
     68 H28         5.4389    5.7257    2.9669 H         1 SER         0.0301
     69 H29         3.8277    6.5196    2.9440 H         1 SER         0.0301
     70 H30         3.3619    5.8318    0.7912 H         1 SER         0.0689
     71 H31         4.4323    4.3936    0.9043 H         1 SER         0.0689
     72 H32         5.1573    7.1152    0.1049 H         1 SER         0.2642
     73 H33         7.8753    4.2308    0.7456 H         1 SER         0.2615
     74 H34         6.2092    4.0280    1.3502 H         1 SER         0.2615
     75 H35         7.2609    7.3446   -0.6200 H         1 SER         0.2615
     76 H36         8.4584    6.0644   -0.2884 H         1 SER         0.2615
     77 H37         1.3194    4.4950    5.1952 H         1 SER         0.1881
     78 H38         0.7544    2.1199    6.5058 H         1 SER         0.0763
     79 H39         0.7351    1.7198    4.7547 H         1 SER         0.0763
     80 H40        -1.4517    1.1684    4.9396 H         1 SER         0.1875
     81 H41        -3.3677    3.3358    5.5585 H         1 SER         0.0723
     82 H42        -4.5891    2.9613    3.4465 H         1 SER         0.0270
     83 H43        -3.2998    1.8350    2.9027 H         1 SER         0.0270
     84 H44        -2.9262    3.5740    3.1536 H         1 SER         0.0270
@<TRIPOS>BOND
     1    1    2 1  
     2    2    3 1  
     3    2    5 1  
     4    3    4 2  
     5    3    7 am 
     6    5    6 1  
     7    7    8 1  
     8    8    9 1  
     9    8   11 1  
    10    9   10 2  
    11    9   12 am 
    12   12   13 1  
    13   13   14 1  
    14   13   16 1  
    15   14   15 2  
    16   14   20 am 
    17   16   17 1  
    18   16   18 1  
    19   17   19 1  
    20   20   21 1  
    21   21   22 1  
    22   21   24 1  
    23   22   23 2  
    24   22   31 am 
    25   24   25 1  
    26   25   26 1  
    27   26   27 1  
    28   27   28 ar 
    29   28   29 ar 
    30   28   30 ar 
    31   31   32 1  
    32   32   33 1  
    33   33   34 2  
    34   33   35 am 
    35   35   36 1  
    36   36   37 1  
    37   36   39 1  
    38   37   38 ar 
    39   37   40 ar 
    40    1   41 1  
    41    1   42 1  
    42    1   43 1  
    43    2   44 1  
    44    5   45 1  
    45    5   46 1  
    46    6   47 1  
    47    7   48 1  
    48    8   49 1  
    49   11   50 1  
    50   11   51 1  
    51   11   52 1  
    52   12   53 1  
    53   13   54 1  
    54   16   55 1  
    55   17   56 1  
    56   17   57 1  
    57   18   58 1  
    58   18   59 1  
    59   18   60 1  
    60   19   61 1  
    61   19   62 1  
    62   19   63 1  
    63   20   64 1  
    64   21   65 1  
    65   24   66 1  
    66   24   67 1  
    67   25   68 1  
    68   25   69 1  
    69   26   70 1  
    70   26   71 1  
    71   27   72 1  
    72   29   73 1  
    73   29   74 1  
    74   30   75 1  
    75   30   76 1  
    76   31   77 1  
    77   32   78 1  
    78   32   79 1  
    79   35   80 1  
    80   36   81 1  
    81   39   82 1  
    82   39   83 1  
    83   39   84 1  
@<TRIPOS>SUBSTRUCTURE
     1 SER         1

