### 
### Created by X-TOOL on Mon Aug  2 16:10:31 2021
### 

@<TRIPOS>MOLECULE
5zw6_ligand
   82    82     1     0     0
SMALL
GAST_HUCK


@<TRIPOS>ATOM
      1 N         112.5090   47.5170  -12.7870 N.4       1 GLY         0.2357
      2 CA        112.9160   46.6490  -11.6980 C.3       1 GLY         0.0545
      3 C         114.1270   47.1370  -10.9170 C.2       1 GLY         0.2236
      4 O         114.6700   48.2280  -11.1720 O.2       1 GLY        -0.3910
      5 N         114.5460   46.3160   -9.9520 N.am      1 GLY        -0.2612
      6 CA        115.7250   46.5870   -9.1450 C.3       1 GLY         0.1320
      7 C         116.8940   45.8360   -9.7460 C.2       1 GLY         0.2064
      8 O         116.7900   44.6110   -9.9110 O.2       1 GLY        -0.3942
      9 CB        115.5020   46.1330   -7.6990 C.3       1 GLY        -0.0034
     10 CG        116.7200   46.2770   -6.7990 C.3       1 GLY        -0.0024
     11 SD        116.4710   45.4760   -5.1940 S.3       1 GLY        -0.1639
     12 CE        116.7320   43.7500   -5.6400 C.3       1 GLY        -0.0181
     13 N         118.0080   46.4880  -10.0870 N.am      1 GLY        -0.2498
     14 CA        119.1550   45.7310  -10.6100 C.3       1 GLY         0.1338
     15 C         119.7880   44.8420   -9.5330 C.2       1 GLY         0.2041
     16 O         119.9630   45.2330   -8.3820 O.2       1 GLY        -0.3944
     17 CB        120.1260   46.8250  -11.0920 C.3       1 GLY        -0.0104
     18 CG        119.7560   48.0490  -10.3020 C.3       1 GLY        -0.0281
     19 CD        118.2670   47.9430  -10.0260 C.3       1 GLY         0.0369
     20 N         120.1400   43.6340   -9.9280 N.am      1 GLY        -0.2637
     21 CA        120.8010   42.6790   -9.0590 C.3       1 GLY         0.1311
     22 C         122.0460   42.1830   -9.7620 C.2       1 GLY         0.2037
     23 O         122.0680   42.0570  -10.9860 O.2       1 GLY        -0.3944
     24 CB        119.9160   41.4700   -8.7440 C.3       1 GLY        -0.0092
     25 CG        118.8650   41.6910   -7.6880 C.3       1 GLY        -0.0156
     26 CD        118.0300   40.3970   -7.5690 C.3       1 GLY         0.0627
     27 NE        117.2690   40.3300   -6.3280 N.pl3     1 GLY        -0.2723
     28 CZ        115.9630   40.5670   -6.2390 C.cat     1 GLY         0.2882
     29 NH1       115.2670   40.9170   -7.3190 N.pl3     1 GLY        -0.2849
     30 NH2       115.3580   40.4750   -5.0590 N.pl3     1 GLY        -0.2849
     31 N         123.0770   41.8740   -8.9930 N.am      1 GLY        -0.2664
     32 CA        124.2350   41.2690   -9.6130 C.3       1 GLY         0.1201
     33 C         125.1940   40.7020   -8.5980 C.2       1 GLY         0.2002
     34 O         125.1740   41.0630   -7.4110 O.2       1 GLY        -0.3947
     35 N         126.0660   39.8370   -9.1010 N.am      1 GLY        -0.2700
     36 CA        127.1410   39.2460   -8.3250 C.3       1 GLY         0.0916
     37 C         128.3550   38.9270   -9.2220 C.2       1 GLY         0.0598
     38 O         128.2360   38.7710  -10.4530 O.co2     1 GLY        -0.5666
     39 CB        126.6540   37.9890   -7.6220 C.3       1 GLY        -0.0300
     40 OXT       129.4860   38.8090   -8.7330 O.co2     1 GLY        -0.5666
     41 H1        111.7048   47.1220  -13.2489 H         1 GLY         0.2012
     42 H2        113.2657   47.6054  -13.4470 H         1 GLY         0.2012
     43 H3        112.2736   48.4265  -12.4218 H         1 GLY         0.2012
     44 H4        113.1543   45.6606  -12.1179 H         1 GLY         0.1061
     45 H5        112.0716   46.5567  -10.9991 H         1 GLY         0.1061
     46 H6        114.0274   45.4792   -9.7764 H         1 GLY         0.1884
     47 H7        115.9358   47.6666   -9.1554 H         1 GLY         0.0800
     48 H8        115.2082   45.0731   -7.7128 H         1 GLY         0.0320
     49 H9        114.6859   46.7342   -7.2718 H         1 GLY         0.0320
     50 H10       116.9174   47.3468   -6.6359 H         1 GLY         0.0378
     51 H11       117.5862   45.8159   -7.2961 H         1 GLY         0.0378
     52 H12       116.6118   43.1185   -4.7474 H         1 GLY         0.0340
     53 H13       117.7477   43.6251   -6.0435 H         1 GLY         0.0340
     54 H14       115.9958   43.4526   -6.4013 H         1 GLY         0.0340
     55 H15       118.8431   45.0977  -11.4535 H         1 GLY         0.0802
     56 H16       119.9991   47.0073  -12.1693 H         1 GLY         0.0313
     57 H17       121.1674   46.5343  -10.8894 H         1 GLY         0.0313
     58 H18       119.9720   48.9575  -10.8834 H         1 GLY         0.0287
     59 H19       120.3177   48.0765   -9.3566 H         1 GLY         0.0287
     60 H20       118.0217   48.3448   -9.0318 H         1 GLY         0.0524
     61 H21       117.6861   48.4783  -10.7914 H         1 GLY         0.0524
     62 H22       119.9421   43.3639  -10.8703 H         1 GLY         0.1883
     63 H23       121.0756   43.1786   -8.1183 H         1 GLY         0.0800
     64 H24       120.5686   40.6516   -8.4060 H         1 GLY         0.0313
     65 H25       119.4060   41.1728   -9.6722 H         1 GLY         0.0313
     66 H26       118.2149   42.5296   -7.9778 H         1 GLY         0.0301
     67 H27       119.3453   41.9155   -6.7242 H         1 GLY         0.0301
     68 H28       118.7107   39.5340   -7.6112 H         1 GLY         0.0689
     69 H29       117.3282   40.3522   -8.4148 H         1 GLY         0.0689
     70 H30       117.7744   40.0835   -5.4650 H         1 GLY         0.2642
     71 H31       114.2560   41.0991   -7.2435 H         1 GLY         0.2615
     72 H32       115.7396   41.0056   -8.2299 H         1 GLY         0.2615
     73 H33       115.8966   40.2043   -4.2238 H         1 GLY         0.2615
     74 H34       114.3506   40.6744   -4.9798 H         1 GLY         0.2615
     75 H35       123.0562   42.0539   -8.0095 H         1 GLY         0.1881
     76 H36       124.7585   42.0329  -10.2066 H         1 GLY         0.0763
     77 H37       123.8988   40.4571  -10.2747 H         1 GLY         0.0763
     78 H38       125.9780   39.5794  -10.0632 H         1 GLY         0.1875
     79 H39       127.4566   39.9718   -7.5611 H         1 GLY         0.0723
     80 H40       127.4781   37.5525   -7.0386 H         1 GLY         0.0270
     81 H41       126.3088   37.2606   -8.3705 H         1 GLY         0.0270
     82 H42       125.8229   38.2443   -6.9482 H         1 GLY         0.0270
@<TRIPOS>BOND
     1    1    2 1  
     2    2    3 1  
     3    3    4 2  
     4    3    5 am 
     5    5    6 1  
     6    6    7 1  
     7    6    9 1  
     8    7    8 2  
     9    7   13 am 
    10    9   10 1  
    11   10   11 1  
    12   11   12 1  
    13   13   14 1  
    14   13   19 1  
    15   14   15 1  
    16   14   17 1  
    17   15   16 2  
    18   15   20 am 
    19   17   18 1  
    20   18   19 1  
    21   20   21 1  
    22   21   22 1  
    23   21   24 1  
    24   22   23 2  
    25   22   31 am 
    26   24   25 1  
    27   25   26 1  
    28   26   27 1  
    29   27   28 ar 
    30   28   29 ar 
    31   28   30 ar 
    32   31   32 1  
    33   32   33 1  
    34   33   34 2  
    35   33   35 am 
    36   35   36 1  
    37   36   37 1  
    38   36   39 1  
    39   37   38 ar 
    40   37   40 ar 
    41    1   41 1  
    42    1   42 1  
    43    1   43 1  
    44    2   44 1  
    45    2   45 1  
    46    5   46 1  
    47    6   47 1  
    48    9   48 1  
    49    9   49 1  
    50   10   50 1  
    51   10   51 1  
    52   12   52 1  
    53   12   53 1  
    54   12   54 1  
    55   14   55 1  
    56   17   56 1  
    57   17   57 1  
    58   18   58 1  
    59   18   59 1  
    60   19   60 1  
    61   19   61 1  
    62   20   62 1  
    63   21   63 1  
    64   24   64 1  
    65   24   65 1  
    66   25   66 1  
    67   25   67 1  
    68   26   68 1  
    69   26   69 1  
    70   27   70 1  
    71   29   71 1  
    72   29   72 1  
    73   30   73 1  
    74   30   74 1  
    75   31   75 1  
    76   32   76 1  
    77   32   77 1  
    78   35   78 1  
    79   36   79 1  
    80   39   80 1  
    81   39   81 1  
    82   39   82 1  
@<TRIPOS>SUBSTRUCTURE
     1 GLY         1

