### 
### Created by X-TOOL on Wed Jan  1 15:39:38 2020
### 

@<TRIPOS>MOLECULE
5zwe_ligand
   69    71     1     0     0
SMALL
GAST_HUCK


@<TRIPOS>ATOM
      1 O2         10.3950    3.2790   26.6460 O.2       1 9K0        -0.3916
      2 C23        10.4160    2.2590   27.3100 C.2       1 9K0         0.1047
      3 C24         9.6330    2.2180   28.6050 C.3       1 9K0         0.0182
      4 C25         9.3700    0.7630   28.9750 C.3       1 9K0        -0.0492
      5 C22        11.2150    1.0600   26.8240 C.3       1 9K0         0.0213
      6 C20        12.6340    1.4380   26.4260 C.3       1 9K0        -0.0343
      7 C18        13.2650    2.3460   27.4660 C.3       1 9K0        -0.0383
      8 C19        13.8490    1.5440   28.6190 C.3       1 9K0        -0.0620
      9 C16        14.3010    3.2760   26.8530 C.3       1 9K0        -0.0305
     10 C15        15.1130    2.6630   25.7090 C.3       1 9K0        -0.0470
     11 C14        15.4680    3.8200   24.7710 C.3       1 9K0        -0.0393
     12 C9         14.9260    5.0370   25.5010 C.3       1 9K0        -0.0062
     13 C10        13.7190    4.5400   26.2470 C.3       1 9K0        -0.0161
     14 C17        12.5970    4.2060   25.2760 C.3       1 9K0        -0.0570
     15 C11        13.2740    5.6190   27.2140 C.3       1 9K0        -0.0431
     16 C12        12.8100    6.8290   26.4100 C.3       1 9K0        -0.0423
     17 C13        13.8700    7.3690   25.4470 C.3       1 9K0        -0.0234
     18 C8         14.5850    6.2570   24.7180 C.2       1 9K0        -0.0718
     19 C7         14.9160    6.3730   23.4260 C.2       1 9K0        -0.1089
     20 C6         14.5890    7.5900   22.6920 C.2       1 9K0        -0.1086
     21 C5         14.3160    7.5600   21.3850 C.2       1 9K0        -0.0657
     22 C          13.9860    8.8460   20.6620 C.3       1 9K0         0.0150
     23 C4         14.3150    6.2470   20.6280 C.3       1 9K0         0.0150
     24 C3         14.7750    6.3550   19.1710 C.3       1 9K0         0.1023
     25 O          14.2480    5.2480   18.4400 O.3       1 9K0        -0.3742
     26 C2         14.3270    7.6390   18.5390 C.2       1 9K0        -0.0127
     27 C21        13.6820    7.6730   17.3880 C.2       1 9K0        -0.1238
     28 C1         14.6370    8.8960   19.2820 C.3       1 9K0         0.1023
     29 O1         16.0530    8.9780   19.4270 O.3       1 9K0        -0.3742
     30 H1          8.6762    2.7450   28.4752 H         1 9K0         0.0491
     31 H2         10.2136    2.7032   29.4034 H         1 9K0         0.0491
     32 H3          8.8010    0.7209   29.9155 H         1 9K0         0.0255
     33 H4         10.3282    0.2381   29.1024 H         1 9K0         0.0255
     34 H5          8.7909    0.2799   28.1742 H         1 9K0         0.0255
     35 H6         10.7061    0.6255   25.9510 H         1 9K0         0.0494
     36 H7         11.2603    0.3138   27.6310 H         1 9K0         0.0494
     37 H8         12.6094    1.9611   25.4587 H         1 9K0         0.0293
     38 H9         13.2377    0.5232   26.3329 H         1 9K0         0.0293
     39 H10        12.4637    2.9770   27.8780 H         1 9K0         0.0303
     40 H11        14.2971    2.2300   29.3529 H         1 9K0         0.0233
     41 H12        14.6215    0.8609   28.2363 H         1 9K0         0.0233
     42 H13        13.0507    0.9612   29.1017 H         1 9K0         0.0233
     43 H14        14.9906    3.5570   27.6626 H         1 9K0         0.0311
     44 H15        14.5135    1.9102   25.1762 H         1 9K0         0.0270
     45 H16        16.0281    2.1938   26.0993 H         1 9K0         0.0270
     46 H17        14.9812    3.6979   23.7922 H         1 9K0         0.0293
     47 H18        16.5566    3.8956   24.6323 H         1 9K0         0.0293
     48 H19        15.6917    5.3454   26.2281 H         1 9K0         0.0478
     49 H20        11.7224    3.8443   25.8367 H         1 9K0         0.0237
     50 H21        12.9351    3.4243   24.5798 H         1 9K0         0.0237
     51 H22        12.3219    5.1077   24.7093 H         1 9K0         0.0237
     52 H23        14.1148    5.9052   27.8630 H         1 9K0         0.0274
     53 H24        12.4448    5.2442   27.8320 H         1 9K0         0.0274
     54 H25        12.5387    7.6303   27.1131 H         1 9K0         0.0290
     55 H26        11.9246    6.5390   25.8252 H         1 9K0         0.0290
     56 H27        14.6074    7.9510   26.0193 H         1 9K0         0.0437
     57 H28        13.3809    8.0215   24.7088 H         1 9K0         0.0437
     58 H29        15.4308    5.5565   22.9218 H         1 9K0         0.0219
     59 H30        14.5670    8.5421   23.2201 H         1 9K0         0.0219
     60 H31        14.3494    9.6951   21.2594 H         1 9K0         0.0490
     61 H32        12.8948    8.9203   20.5451 H         1 9K0         0.0490
     62 H33        13.2907    5.8461   20.6363 H         1 9K0         0.0490
     63 H34        14.9863    5.5489   21.1496 H         1 9K0         0.0490
     64 H35        15.8739    6.3159   19.1432 H         1 9K0         0.0819
     65 H36        13.2990    5.2658   18.4810 H         1 9K0         0.2139
     66 H37        13.3746    8.6278   16.9641 H         1 9K0         0.0077
     67 H38        13.4572    6.7462   16.8622 H         1 9K0         0.0077
     68 H39        14.2624    9.7673   18.7248 H         1 9K0         0.0819
     69 H40        16.4578    8.9938   18.5677 H         1 9K0         0.2139
@<TRIPOS>BOND
     1    1    2 2  
     2    2    3 1  
     3    2    5 1  
     4    3    4 1  
     5    5    6 1  
     6    6    7 1  
     7    7    8 1  
     8    7    9 1  
     9    9   10 1  
    10    9   13 1  
    11   10   11 1  
    12   11   12 1  
    13   12   13 1  
    14   12   18 1  
    15   13   14 1  
    16   13   15 1  
    17   15   16 1  
    18   16   17 1  
    19   17   18 1  
    20   18   19 2  
    21   19   20 1  
    22   20   21 2  
    23   21   22 1  
    24   21   23 1  
    25   22   28 1  
    26   23   24 1  
    27   24   25 1  
    28   24   26 1  
    29   26   27 2  
    30   26   28 1  
    31   28   29 1  
    32    3   30 1  
    33    3   31 1  
    34    4   32 1  
    35    4   33 1  
    36    4   34 1  
    37    5   35 1  
    38    5   36 1  
    39    6   37 1  
    40    6   38 1  
    41    7   39 1  
    42    8   40 1  
    43    8   41 1  
    44    8   42 1  
    45    9   43 1  
    46   10   44 1  
    47   10   45 1  
    48   11   46 1  
    49   11   47 1  
    50   12   48 1  
    51   14   49 1  
    52   14   50 1  
    53   14   51 1  
    54   15   52 1  
    55   15   53 1  
    56   16   54 1  
    57   16   55 1  
    58   17   56 1  
    59   17   57 1  
    60   19   58 1  
    61   20   59 1  
    62   22   60 1  
    63   22   61 1  
    64   23   62 1  
    65   23   63 1  
    66   24   64 1  
    67   25   65 1  
    68   27   66 1  
    69   27   67 1  
    70   28   68 1  
    71   29   69 1  
@<TRIPOS>SUBSTRUCTURE
     1 9K0         1

