### 
### Created by X-TOOL on Wed Jan  1 15:39:38 2020
### 

@<TRIPOS>MOLECULE
5zwf_ligand
   72    74     1     0     0
SMALL
GAST_HUCK


@<TRIPOS>ATOM
      1 O2         10.2600    2.6730   27.5920 O.2       1 9KR        -0.3916
      2 C23        10.2030    1.4820   27.9480 C.2       1 9KR         0.1050
      3 C24         8.9600    0.9740   28.7240 C.3       1 9KR         0.0208
      4 C25         9.1890   -0.2830   29.6290 C.3       1 9KR        -0.0400
      5 C26         7.8590   -0.9700   29.8470 C.3       1 9KR        -0.0632
      6 C22        11.3670    0.5630   27.5850 C.3       1 9KR         0.0213
      7 C20        12.4980    1.2460   26.8330 C.3       1 9KR        -0.0343
      8 C18        12.8510    2.4880   27.6150 C.3       1 9KR        -0.0383
      9 C19        13.3410    1.9980   28.9800 C.3       1 9KR        -0.0620
     10 C16        13.9220    3.3540   26.9620 C.3       1 9KR        -0.0305
     11 C15        14.8290    2.6570   25.9270 C.3       1 9KR        -0.0470
     12 C14        15.3660    3.7770   25.0240 C.3       1 9KR        -0.0393
     13 C9         14.7670    5.0330   25.6410 C.3       1 9KR        -0.0062
     14 C10        13.4530    4.6440   26.2690 C.3       1 9KR        -0.0161
     15 C17        12.4020    4.3960   25.1710 C.3       1 9KR        -0.0570
     16 C11        13.0560    5.7790   27.2010 C.3       1 9KR        -0.0431
     17 C12        12.9670    7.0890   26.4040 C.3       1 9KR        -0.0423
     18 C13        14.2710    7.4500   25.6560 C.3       1 9KR        -0.0234
     19 C8         14.6130    6.2600   24.8160 C.2       1 9KR        -0.0718
     20 C7         14.7790    6.2680   23.4890 C.2       1 9KR        -0.1089
     21 C6         14.5630    7.4710   22.6890 C.2       1 9KR        -0.1086
     22 C5         14.3120    7.4550   21.3510 C.2       1 9KR        -0.0657
     23 C          14.2720    6.1990   20.5010 C.3       1 9KR         0.0150
     24 C4         14.0590    8.7900   20.7260 C.3       1 9KR         0.0150
     25 C3         14.6760    8.8940   19.3390 C.3       1 9KR         0.1023
     26 O          16.0960    8.9760   19.3430 O.3       1 9KR        -0.3742
     27 C2         14.3340    7.6970   18.5270 C.2       1 9KR        -0.0127
     28 C21        13.7650    7.8490   17.3540 C.2       1 9KR        -0.1238
     29 C1         14.7200    6.3590   19.0540 C.3       1 9KR         0.1023
     30 O1         14.2120    5.3040   18.2050 O.3       1 9KR        -0.3742
     31 H1          8.1820    0.7228   27.9881 H         1 9KR         0.0494
     32 H2          8.6056    1.7930   29.3672 H         1 9KR         0.0494
     33 H3          9.6080    0.0288   30.5971 H         1 9KR         0.0287
     34 H4          9.8862   -0.9744   29.1333 H         1 9KR         0.0287
     35 H5          8.0039   -1.8564   30.4820 H         1 9KR         0.0231
     36 H6          7.4421   -1.2782   28.8769 H         1 9KR         0.0231
     37 H7          7.1638   -0.2750   30.3407 H         1 9KR         0.0231
     38 H8         10.9786   -0.2514   26.9558 H         1 9KR         0.0494
     39 H9         11.7771    0.1438   28.5156 H         1 9KR         0.0494
     40 H10        12.1695    1.5172   25.8188 H         1 9KR         0.0293
     41 H11        13.3693    0.5775   26.7698 H         1 9KR         0.0293
     42 H12        11.9455    3.0996   27.7412 H         1 9KR         0.0303
     43 H13        13.6161    2.8621   29.6026 H         1 9KR         0.0233
     44 H14        14.2194    1.3501   28.8434 H         1 9KR         0.0233
     45 H15        12.5396    1.4298   29.4749 H         1 9KR         0.0233
     46 H16        14.5704    3.6626   27.7952 H         1 9KR         0.0311
     47 H17        14.2499    1.9323   25.3359 H         1 9KR         0.0270
     48 H18        15.6587    2.1396   26.4309 H         1 9KR         0.0270
     49 H19        15.0254    3.6455   23.9864 H         1 9KR         0.0293
     50 H20        16.4652    3.8108   25.0476 H         1 9KR         0.0293
     51 H21        15.4503    5.3195   26.4540 H         1 9KR         0.0478
     52 H22        11.4461    4.1127   25.6357 H         1 9KR         0.0237
     53 H23        12.7443    3.5842   24.5124 H         1 9KR         0.0237
     54 H24        12.2648    5.3140   24.5807 H         1 9KR         0.0237
     55 H25        13.8109    5.8831   27.9943 H         1 9KR         0.0274
     56 H26        12.0777    5.5575   27.6525 H         1 9KR         0.0274
     57 H27        12.7297    7.9051   27.1023 H         1 9KR         0.0290
     58 H28        12.1581    6.9919   25.6650 H         1 9KR         0.0290
     59 H29        15.0786    7.6546   26.3743 H         1 9KR         0.0437
     60 H30        14.1137    8.3334   25.0197 H         1 9KR         0.0437
     61 H31        15.0845    5.3497   22.9896 H         1 9KR         0.0219
     62 H32        14.6052    8.4361   23.1918 H         1 9KR         0.0219
     63 H33        13.2358    5.8300   20.4939 H         1 9KR         0.0490
     64 H34        14.9245    5.4508   20.9747 H         1 9KR         0.0490
     65 H35        14.4931    9.5709   21.3676 H         1 9KR         0.0490
     66 H36        12.9729    8.9443   20.6444 H         1 9KR         0.0490
     67 H37        14.2706    9.7944   18.8544 H         1 9KR         0.0819
     68 H38        16.4110    9.0383   18.4489 H         1 9KR         0.2139
     69 H39        13.5120    6.9759   16.7543 H         1 9KR         0.0077
     70 H40        13.5459    8.8482   16.9805 H         1 9KR         0.0077
     71 H41        15.8181    6.2959   19.0384 H         1 9KR         0.0819
     72 H42        13.2642    5.3569   18.1689 H         1 9KR         0.2139
@<TRIPOS>BOND
     1    1    2 2  
     2    2    3 1  
     3    2    6 1  
     4    3    4 1  
     5    4    5 1  
     6    6    7 1  
     7    7    8 1  
     8    8    9 1  
     9    8   10 1  
    10   10   11 1  
    11   10   14 1  
    12   11   12 1  
    13   12   13 1  
    14   13   14 1  
    15   13   19 1  
    16   14   15 1  
    17   14   16 1  
    18   16   17 1  
    19   17   18 1  
    20   18   19 1  
    21   19   20 2  
    22   20   21 1  
    23   21   22 2  
    24   22   23 1  
    25   22   24 1  
    26   23   29 1  
    27   24   25 1  
    28   25   26 1  
    29   25   27 1  
    30   27   28 2  
    31   27   29 1  
    32   29   30 1  
    33    3   31 1  
    34    3   32 1  
    35    4   33 1  
    36    4   34 1  
    37    5   35 1  
    38    5   36 1  
    39    5   37 1  
    40    6   38 1  
    41    6   39 1  
    42    7   40 1  
    43    7   41 1  
    44    8   42 1  
    45    9   43 1  
    46    9   44 1  
    47    9   45 1  
    48   10   46 1  
    49   11   47 1  
    50   11   48 1  
    51   12   49 1  
    52   12   50 1  
    53   13   51 1  
    54   15   52 1  
    55   15   53 1  
    56   15   54 1  
    57   16   55 1  
    58   16   56 1  
    59   17   57 1  
    60   17   58 1  
    61   18   59 1  
    62   18   60 1  
    63   20   61 1  
    64   21   62 1  
    65   23   63 1  
    66   23   64 1  
    67   24   65 1  
    68   24   66 1  
    69   25   67 1  
    70   26   68 1  
    71   28   69 1  
    72   28   70 1  
    73   29   71 1  
    74   30   72 1  
@<TRIPOS>SUBSTRUCTURE
     1 9KR         1

