### 
### Created by X-TOOL on Mon Jan  6 15:52:13 2020
### 

@<TRIPOS>MOLECULE
5zwh_ligand
   66    68     1     0     0
SMALL
GAST_HUCK


@<TRIPOS>ATOM
      1 C8         14.9280    6.1900   24.7540 C.2       1 9N9        -0.0718
      2 C5         14.7210    7.3700   21.2630 C.2       1 9N9        -0.0657
      3 C6         14.7460    7.3720   22.6060 C.2       1 9N9        -0.1086
      4 C2         14.6620    7.6690   18.5120 C.2       1 9N9        -0.0127
      5 C4         15.1560    6.1690   20.4270 C.3       1 9N9         0.0150
      6 O2         13.6820    1.0690   28.6620 O.2       1 9N9        -0.3748
      7 C20        13.1020    1.5010   27.6810 C.2       1 9N9         0.1691
      8 C22        11.8880    1.8080   27.7430 C.1       1 9N9        -0.0216
      9 C23        10.7650    2.1020   27.8780 C.1       1 9N9        -0.0719
     10 C24         9.5480    2.3120   28.0400 C.2       1 9N9        -0.0159
     11 C25         8.6980    1.4170   27.5760 C.2       1 9N9        -0.0646
     12 C26         7.2340    1.6320   27.7560 C.3       1 9N9        -0.0294
     13 C18        13.8310    1.6670   26.3840 C.3       1 9N9         0.0403
     14 C19        12.8360    1.6300   25.2380 C.3       1 9N9        -0.0463
     15 C16        14.6380    2.9660   26.4440 C.3       1 9N9        -0.0150
     16 C15        15.9260    2.7310   25.6530 C.3       1 9N9        -0.0450
     17 C14        16.2710    4.0240   24.9560 C.3       1 9N9        -0.0392
     18 C9         15.2820    5.0050   25.5710 C.3       1 9N9        -0.0061
     19 C10        14.0050    4.2910   25.9630 C.3       1 9N9        -0.0141
     20 C17        13.0200    4.1160   24.8080 C.3       1 9N9        -0.0569
     21 C11        13.3250    5.2230   26.9620 C.3       1 9N9        -0.0430
     22 C12        13.1500    6.6540   26.4200 C.3       1 9N9        -0.0423
     23 C13        14.3230    7.2600   25.6280 C.3       1 9N9        -0.0234
     24 C7         15.1360    6.2240   23.4220 C.2       1 9N9        -0.1089
     25 C          14.2550    8.6530   20.6320 C.3       1 9N9         0.0150
     26 C3         15.2380    6.3460   18.9070 C.3       1 9N9         0.1023
     27 O          14.5330    5.2840   18.2610 O.3       1 9N9        -0.3742
     28 C21        13.8330    7.8020   17.4930 C.2       1 9N9        -0.1238
     29 C1         15.0280    8.8470   19.3410 C.3       1 9N9         0.1023
     30 O1         16.4410    8.8820   19.5490 O.3       1 9N9        -0.3742
     31 H1         14.4571    8.2878   23.1197 H         1 9N9         0.0219
     32 H2         14.4413    5.3564   20.6241 H         1 9N9         0.0490
     33 H3         16.1555    5.8711   20.7766 H         1 9N9         0.0490
     34 H4          9.1965    3.2079   28.5496 H         1 9N9         0.0528
     35 H5          9.0629    0.5273   27.0650 H         1 9N9         0.0784
     36 H6          6.6824    0.7913   27.3100 H         1 9N9         0.0442
     37 H7          6.9374    2.5687   27.2614 H         1 9N9         0.0442
     38 H8          7.0018    1.6946   28.8294 H         1 9N9         0.0442
     39 H9         14.5327    0.8297   26.2555 H         1 9N9         0.0525
     40 H10        12.2932    0.6734   25.2545 H         1 9N9         0.0256
     41 H11        13.3726    1.7307   24.2831 H         1 9N9         0.0256
     42 H12        12.1212    2.4590   25.3461 H         1 9N9         0.0256
     43 H13        14.8978    3.1195   27.5018 H         1 9N9         0.0335
     44 H14        15.7712    1.9339   24.9110 H         1 9N9         0.0272
     45 H15        16.7392    2.4436   26.3357 H         1 9N9         0.0272
     46 H16        16.1244    3.9409   23.8690 H         1 9N9         0.0293
     47 H17        17.3089    4.3231   25.1642 H         1 9N9         0.0293
     48 H18        15.7534    5.3843   26.4897 H         1 9N9         0.0478
     49 H19        12.1222    3.5922   25.1680 H         1 9N9         0.0237
     50 H20        13.4929    3.5262   24.0090 H         1 9N9         0.0237
     51 H21        12.7358    5.1035   24.4156 H         1 9N9         0.0237
     52 H22        13.9365    5.2656   27.8754 H         1 9N9         0.0274
     53 H23        12.3325    4.8151   27.2038 H         1 9N9         0.0274
     54 H24        12.9583    7.3117   27.2806 H         1 9N9         0.0290
     55 H25        12.2716    6.6510   25.7580 H         1 9N9         0.0290
     56 H26        13.9570    8.0859   25.0004 H         1 9N9         0.0437
     57 H27        15.0832    7.6394   26.3267 H         1 9N9         0.0437
     58 H28        15.6090    5.3699   22.9397 H         1 9N9         0.0219
     59 H29        14.4474    9.4954   21.3127 H         1 9N9         0.0490
     60 H30        13.1778    8.5938   20.4170 H         1 9N9         0.0490
     61 H31        16.2936    6.3122   18.5994 H         1 9N9         0.0819
     62 H32        13.6226    5.2988   18.5321 H         1 9N9         0.2139
     63 H33        13.4360    8.7836   17.2386 H         1 9N9         0.0077
     64 H34        13.5462    6.9301   16.9070 H         1 9N9         0.0077
     65 H35        14.7152    9.7797   18.8488 H         1 9N9         0.0819
     66 H36        16.8797    9.0047   18.7154 H         1 9N9         0.2139
@<TRIPOS>BOND
     1   18    1 1  
     2    1   23 1  
     3    1   24 2  
     4    3    2 2  
     5    2    5 1  
     6    2   25 1  
     7   24    3 1  
     8   26    4 1  
     9    4   28 2  
    10    4   29 1  
    11    5   26 1  
    12    7    6 2  
    13    7    8 1  
    14   13    7 1  
    15    8    9 3  
    16    9   10 1  
    17   10   11 2  
    18   11   12 1  
    19   13   14 1  
    20   15   13 1  
    21   16   15 1  
    22   15   19 1  
    23   17   16 1  
    24   18   17 1  
    25   18   19 1  
    26   19   20 1  
    27   19   21 1  
    28   21   22 1  
    29   23   22 1  
    30   29   25 1  
    31   26   27 1  
    32   29   30 1  
    33    3   31 1  
    34    5   32 1  
    35    5   33 1  
    36   10   34 1  
    37   11   35 1  
    38   12   36 1  
    39   12   37 1  
    40   12   38 1  
    41   13   39 1  
    42   14   40 1  
    43   14   41 1  
    44   14   42 1  
    45   15   43 1  
    46   16   44 1  
    47   16   45 1  
    48   17   46 1  
    49   17   47 1  
    50   18   48 1  
    51   20   49 1  
    52   20   50 1  
    53   20   51 1  
    54   21   52 1  
    55   21   53 1  
    56   22   54 1  
    57   22   55 1  
    58   23   56 1  
    59   23   57 1  
    60   24   58 1  
    61   25   59 1  
    62   25   60 1  
    63   26   61 1  
    64   27   62 1  
    65   28   63 1  
    66   28   64 1  
    67   29   65 1  
    68   30   66 1  
@<TRIPOS>SUBSTRUCTURE
     1 9N9           1

