### 
### Created by X-TOOL on Wed Jan  1 15:39:37 2020
### 

@<TRIPOS>MOLECULE
5zwi_ligand
   68    70     1     0     0
SMALL
GAST_HUCK


@<TRIPOS>ATOM
      1 O1         16.1100    8.8940   19.5990 O.3       1 9KX        -0.3742
      2 C1         14.7140    8.7560   19.4340 C.3       1 9KX         0.1023
      3 C2         14.4080    7.5340   18.6110 C.2       1 9KX        -0.0127
      4 C3         14.7820    6.1940   19.1990 C.3       1 9KX         0.1023
      5 C4         14.3100    6.0300   20.6370 C.3       1 9KX         0.0150
      6 C5         14.2870    7.3250   21.4510 C.2       1 9KX        -0.0657
      7 C6         14.4840    7.2960   22.7410 C.2       1 9KX        -0.1086
      8 C7         14.7330    6.0580   23.4970 C.2       1 9KX        -0.1089
      9 C8         14.6220    6.0300   24.8150 C.2       1 9KX        -0.0718
     10 C9         13.8030    7.6570   17.4250 C.2       1 9KX        -0.1238
     11 C10        14.9010    4.7910   25.5820 C.3       1 9KX        -0.0061
     12 C11        13.8150    4.5160   26.5560 C.3       1 9KX        -0.0142
     13 C12        13.7140    5.6770   27.5080 C.3       1 9KX        -0.0430
     14 C13        13.3100    6.9410   26.7830 C.3       1 9KX        -0.0423
     15 C14        14.2580    7.2370   25.6240 C.3       1 9KX        -0.0234
     16 C15        15.1390    3.4560   24.8700 C.3       1 9KX        -0.0392
     17 C16        14.7920    2.4100   25.8760 C.3       1 9KX        -0.0451
     18 C17        14.2800    3.1830   27.1060 C.3       1 9KX        -0.0162
     19 C18        12.4980    4.3620   25.8350 C.3       1 9KX        -0.0569
     20 C19        13.2420    2.4440   27.9560 C.3       1 9KX         0.0288
     21 C20        13.9100    1.4670   28.9190 C.3       1 9KX        -0.0475
     22 O2         12.6640    0.7890   26.3800 O.2       1 9KX        -0.3951
     23 C21        12.2820    1.7250   27.0950 C.2       1 9KX         0.1085
     24 C22        10.8550    2.1450   27.2270 C.2       1 9KX        -0.0240
     25 C23         9.9290    1.2110   27.2390 C.2       1 9KX        -0.0643
     26 C24         8.5230    1.5820   27.4200 C.2       1 9KX        -0.0586
     27 C25         7.5580    0.6850   27.2090 C.2       1 9KX        -0.0639
     28 C26         6.1390    1.1400   27.3920 C.3       1 9KX        -0.0253
     29 O          14.1990    5.1520   18.3930 O.3       1 9KX        -0.3742
     30 C          13.9980    8.6590   20.7910 C.3       1 9KX         0.0150
     31 H1         16.2913    9.6678   20.1195 H         1 9KX         0.2139
     32 H2         14.3374    9.6429   18.9033 H         1 9KX         0.0819
     33 H3         15.8776    6.0978   19.1787 H         1 9KX         0.0819
     34 H4         14.9831    5.3203   21.1403 H         1 9KX         0.0490
     35 H5         13.2902    5.6182   20.6186 H         1 9KX         0.0490
     36 H6         14.4630    8.2380   23.2870 H         1 9KX         0.0219
     37 H7         15.0129    5.1510   22.9632 H         1 9KX         0.0219
     38 H8         13.5524    8.6449   17.0414 H         1 9KX         0.0077
     39 H9         13.5608    6.7692   16.8426 H         1 9KX         0.0077
     40 H10        15.8216    5.0053   26.1446 H         1 9KX         0.0478
     41 H11        14.6913    5.8346   27.9876 H         1 9KX         0.0274
     42 H12        12.9612    5.4473   28.2764 H         1 9KX         0.0274
     43 H13        13.3329    7.7835   27.4899 H         1 9KX         0.0290
     44 H14        12.2897    6.8194   26.3903 H         1 9KX         0.0290
     45 H15        13.7742    7.9671   24.9585 H         1 9KX         0.0437
     46 H16        15.1819    7.6707   26.0343 H         1 9KX         0.0437
     47 H17        16.1918    3.3637   24.5648 H         1 9KX         0.0293
     48 H18        14.4917    3.3699   23.9848 H         1 9KX         0.0293
     49 H19        15.6805    1.8162   26.1366 H         1 9KX         0.0272
     50 H20        14.0080    1.7447   25.4853 H         1 9KX         0.0272
     51 H21        15.1375    3.3692   27.7694 H         1 9KX         0.0334
     52 H22        12.1778    5.3389   25.4437 H         1 9KX         0.0237
     53 H23        11.7394    3.9807   26.5344 H         1 9KX         0.0237
     54 H24        12.6169    3.6543   25.0014 H         1 9KX         0.0237
     55 H25        12.6892    3.1888   28.5472 H         1 9KX         0.0511
     56 H26        13.1398    0.9536   29.5133 H         1 9KX         0.0255
     57 H27        14.5848    2.0178   29.5907 H         1 9KX         0.0255
     58 H28        14.4869    0.7252   28.3472 H         1 9KX         0.0255
     59 H29        10.5880    3.1974   27.3111 H         1 9KX         0.0497
     60 H30        10.2063    0.1653   27.1148 H         1 9KX         0.0706
     61 H31         8.2646    2.5941   27.7280 H         1 9KX         0.0473
     62 H32         7.7907   -0.3375   26.9154 H         1 9KX         0.0856
     63 H33         5.4560    0.3026   27.1863 H         1 9KX         0.0466
     64 H34         5.9262    1.9658   26.6972 H         1 9KX         0.0466
     65 H35         5.9950    1.4849   28.4265 H         1 9KX         0.0466
     66 H36        13.2520    5.2173   18.4295 H         1 9KX         0.2139
     67 H37        12.9136    8.7584   20.6358 H         1 9KX         0.0490
     68 H38        14.3507    9.4701   21.4450 H         1 9KX         0.0490
@<TRIPOS>BOND
     1    1    2 1  
     2    2    3 1  
     3    2   30 1  
     4    3    4 1  
     5    3   10 2  
     6    4    5 1  
     7    4   29 1  
     8    5    6 1  
     9    6    7 2  
    10    6   30 1  
    11    7    8 1  
    12    8    9 2  
    13    9   11 1  
    14    9   15 1  
    15   11   12 1  
    16   11   16 1  
    17   12   13 1  
    18   12   18 1  
    19   12   19 1  
    20   13   14 1  
    21   14   15 1  
    22   16   17 1  
    23   17   18 1  
    24   18   20 1  
    25   20   21 1  
    26   20   23 1  
    27   23   22 2  
    28   23   24 1  
    29   24   25 2  
    30   25   26 1  
    31   26   27 2  
    32   27   28 1  
    33    1   31 1  
    34    2   32 1  
    35    4   33 1  
    36    5   34 1  
    37    5   35 1  
    38    7   36 1  
    39    8   37 1  
    40   10   38 1  
    41   10   39 1  
    42   11   40 1  
    43   13   41 1  
    44   13   42 1  
    45   14   43 1  
    46   14   44 1  
    47   15   45 1  
    48   15   46 1  
    49   16   47 1  
    50   16   48 1  
    51   17   49 1  
    52   17   50 1  
    53   18   51 1  
    54   19   52 1  
    55   19   53 1  
    56   19   54 1  
    57   20   55 1  
    58   21   56 1  
    59   21   57 1  
    60   21   58 1  
    61   24   59 1  
    62   25   60 1  
    63   26   61 1  
    64   27   62 1  
    65   28   63 1  
    66   28   64 1  
    67   28   65 1  
    68   29   66 1  
    69   30   67 1  
    70   30   68 1  
@<TRIPOS>SUBSTRUCTURE
     1 9KX         1

