### 
### Created by X-TOOL on Mon Aug  2 16:12:30 2021
### 

@<TRIPOS>MOLECULE
5zxi_ligand
   60    63     1     0     0
SMALL
GAST_HUCK


@<TRIPOS>ATOM
      1 C4         -0.9300    2.3540   47.9520 C.3       1 MOL        -0.0414
      2 C5         -0.2310    1.0200   47.6800 C.3       1 MOL        -0.0491
      3 C6         -1.0140   -0.0190   48.4650 C.3       1 MOL        -0.0252
      4 C7         -0.5570   -1.4270   48.1570 C.3       1 MOL         0.0688
      5 C10         0.9130   -3.7830   47.5690 C.ar      1 MOL        -0.0395
      6 C13         3.5470   -3.9610   48.4780 C.ar      1 MOL        -0.0661
      7 C15         3.4660   -1.5010   49.1710 C.3       1 MOL         0.0890
      8 C17         5.7620   -1.3960   48.1750 C.2       1 MOL         0.0572
      9 C21         5.7560   -1.7320   50.2640 C.2       1 MOL         0.1306
     10 C22         5.3320   -1.9870   51.6710 C.ar      1 MOL         0.0174
     11 C24         4.0590   -3.2250   53.2730 C.ar      1 MOL        -0.0552
     12 C26         4.3750   -2.7520   55.6820 C.2       1 MOL         0.1198
     13 C28         3.4340   -3.4270   57.5360 C.2       1 MOL        -0.0604
     14 O1         -0.9270    3.3320   45.4570 O.co2     1 MOL        -0.5690
     15 C2          0.0010    3.7840   46.1730 C.2       1 MOL         0.0348
     16 C3          0.0600    3.4530   47.6350 C.3       1 MOL         0.0002
     17 O8          0.8540   -1.4740   48.2340 O.3       1 MOL        -0.3216
     18 C9          1.5250   -2.6810   48.1220 C.ar      1 MOL         0.0954
     19 C11         1.6140   -5.0170   47.5130 C.ar      1 MOL        -0.0776
     20 C12         2.9340   -5.0900   47.9350 C.ar      1 MOL        -0.0796
     21 C14         2.8410   -2.7590   48.5820 C.ar      1 MOL         0.0163
     22 N16         4.9480   -1.5590   49.2230 N.pl3     1 MOL        -0.2338
     23 C18         5.4620   -1.1800   46.7210 C.3       1 MOL        -0.0070
     24 C19         7.0940   -1.4670   48.5300 C.2       1 MOL        -0.0226
     25 N20         7.0810   -1.7050   49.8720 N.2       1 MOL        -0.3372
     26 C23         4.3700   -2.9820   51.9480 C.ar      1 MOL        -0.0536
     27 C25         4.7050   -2.4790   54.2910 C.ar      1 MOL         0.0075
     28 C27         3.3630   -3.5250   56.1830 C.2       1 MOL        -0.0551
     29 C29         4.4430   -2.5690   57.8870 C.2       1 MOL         0.0820
     30 O30         5.0220   -2.1100   56.7220 O.3       1 MOL        -0.2614
     31 C31         5.6460   -1.5440   53.9990 C.ar      1 MOL        -0.0552
     32 C32         5.9660   -1.2950   52.6710 C.ar      1 MOL        -0.0536
     33 O33         0.9110    4.5530   45.7440 O.co2     1 MOL        -0.5690
     34 H1         -1.2319    2.4124   49.0081 H         1 MOL         0.0283
     35 H2         -1.8184    2.4512   47.3107 H         1 MOL         0.0283
     36 H3          0.8127    1.0559   48.0254 H         1 MOL         0.0267
     37 H4         -0.2538    0.7867   46.6053 H         1 MOL         0.0267
     38 H5         -2.0799    0.0720   48.2090 H         1 MOL         0.0291
     39 H6         -0.8774    0.1712   49.5398 H         1 MOL         0.0291
     40 H7         -0.8817   -1.7081   47.1443 H         1 MOL         0.0611
     41 H8         -0.9908   -2.1250   48.8882 H         1 MOL         0.0611
     42 H9         -0.0959   -3.7096   47.1794 H         1 MOL         0.0521
     43 H10         4.5740   -4.0158   48.8204 H         1 MOL         0.0527
     44 H11         3.0845   -1.3660   50.1939 H         1 MOL         0.0755
     45 H12         3.1705   -0.6404   48.5529 H         1 MOL         0.0755
     46 H13         3.3262   -3.9807   53.5318 H         1 MOL         0.0595
     47 H14         2.7861   -3.9517   58.2366 H         1 MOL         0.0359
     48 H15         1.0749    3.1157   47.8923 H         1 MOL         0.0430
     49 H16        -0.1886    4.3491   48.2226 H         1 MOL         0.0430
     50 H17         1.1163   -5.9046   47.1394 H         1 MOL         0.0531
     51 H18         3.4853   -6.0188   47.8432 H         1 MOL         0.0505
     52 H19         6.4048   -1.0894   46.1616 H         1 MOL         0.0419
     53 H20         4.8744   -0.2579   46.6009 H         1 MOL         0.0419
     54 H21         4.8870   -2.0343   46.3344 H         1 MOL         0.0419
     55 H22         7.9623   -1.3573   47.8819 H         1 MOL         0.0363
     56 H23         3.8914   -3.5367   51.1491 H         1 MOL         0.0614
     57 H24         2.6418   -4.1052   55.6093 H         1 MOL         0.0383
     58 H25         4.7347   -2.2987   58.9008 H         1 MOL         0.1006
     59 H26         6.1416   -0.9983   54.7938 H         1 MOL         0.0595
     60 H27         6.7172   -0.5534   52.4246 H         1 MOL         0.0614
@<TRIPOS>BOND
     1    2    1 1  
     2    1   16 1  
     3    3    2 1  
     4    4    3 1  
     5   17    4 1  
     6   18    5 ar 
     7    5   19 ar 
     8    6   20 ar 
     9   21    6 ar 
    10   21    7 1  
    11    7   22 1  
    12   22    8 1  
    13    8   23 1  
    14    8   24 2  
    15    9   10 1  
    16   22    9 1  
    17    9   25 2  
    18   10   26 ar 
    19   10   32 ar 
    20   26   11 ar 
    21   11   27 ar 
    22   27   12 1  
    23   12   28 2  
    24   12   30 1  
    25   28   13 1  
    26   13   29 2  
    27   15   14 ar 
    28   16   15 1  
    29   15   33 ar 
    30   18   17 1  
    31   18   21 ar 
    32   19   20 ar 
    33   24   25 1  
    34   27   31 ar 
    35   29   30 1  
    36   31   32 ar 
    37    1   34 1  
    38    1   35 1  
    39    2   36 1  
    40    2   37 1  
    41    3   38 1  
    42    3   39 1  
    43    4   40 1  
    44    4   41 1  
    45    5   42 1  
    46    6   43 1  
    47    7   44 1  
    48    7   45 1  
    49   11   46 1  
    50   13   47 1  
    51   16   48 1  
    52   16   49 1  
    53   19   50 1  
    54   20   51 1  
    55   23   52 1  
    56   23   53 1  
    57   23   54 1  
    58   24   55 1  
    59   26   56 1  
    60   28   57 1  
    61   29   58 1  
    62   31   59 1  
    63   32   60 1  
@<TRIPOS>SUBSTRUCTURE
     1 MOL         1

