### 
### Created by X-TOOL on Mon Aug  2 16:12:30 2021
### 

@<TRIPOS>MOLECULE
5zyg_ligand
   59    61     1     0     0
SMALL
GAST_HUCK


@<TRIPOS>ATOM
      1 C2        -34.7910    2.5880   -5.4120 C.ar      1 MOL        -0.0539
      2 C5        -32.7430    2.6740   -7.2900 C.ar      1 MOL        -0.0240
      3 C4        -33.9340    1.9440   -7.5680 C.ar      1 MOL        -0.0116
      4 C3        -34.9850    1.8980   -6.6190 C.ar      1 MOL        -0.0383
      5 C6        -32.5520    3.4250   -6.0640 C.ar      1 MOL         0.0055
      6 C11       -30.6070    4.0510   -4.6310 C.ar      1 MOL        -0.0517
      7 C10       -31.2450    4.1010   -5.8730 C.ar      1 MOL        -0.0124
      8 C1        -33.5730    3.2800   -5.1030 C.ar      1 MOL        -0.0376
      9 C8        -29.2220    5.3580   -6.7720 C.ar      1 MOL        -0.0363
     10 C12       -29.3220    4.6270   -4.4750 C.ar      1 MOL        -0.0363
     11 O2        -26.5490    7.0680   -5.8420 O.2       1 MOL        -0.1693
     12 S1        -26.9820    5.8740   -4.9930 S.o2      1 MOL        -0.0009
     13 O1        -26.8000    5.8890   -3.5370 O.2       1 MOL        -0.1693
     14 C20       -26.2610    4.2110   -5.3260 C.3       1 MOL         0.0939
     15 C21       -26.7740    3.3150   -4.1850 C.3       1 MOL         0.0639
     16 O3        -26.4600    1.9070   -4.3200 O.3       1 MOL        -0.3934
     17 C7        -28.6340    5.3130   -5.4830 C.ar      1 MOL         0.0883
     18 C9        -30.5110    4.7670   -6.9320 C.ar      1 MOL        -0.0517
     19 C22       -35.8750    2.4920   -4.3400 C.3       1 MOL        -0.0465
     20 C25       -36.8100    1.2500   -4.4480 C.3       1 MOL        -0.0838
     21 C24       -35.0800    2.3300   -3.0300 C.3       1 MOL        -0.0838
     22 C23       -36.7200    3.7600   -4.4030 C.3       1 MOL        -0.0838
     23 C13       -34.1750    1.1890   -8.8790 C.3       1 MOL        -0.0010
     24 C14       -34.7900    2.1420   -9.8760 C.3       1 MOL         0.0067
     25 C18       -36.2020    2.4850   -9.4960 C.ar      1 MOL         0.0300
     26 C17       -36.4780    3.6890   -8.8130 C.ar      1 MOL        -0.0322
     27 C16       -37.8180    3.9110   -8.4660 C.ar      1 MOL        -0.0489
     28 N1        -37.1350    1.5580   -9.7740 N.ar      1 MOL        -0.2979
     29 C19       -38.4120    1.7920   -9.4530 C.ar      1 MOL         0.0028
     30 C15       -38.7980    2.9630   -8.7880 C.ar      1 MOL        -0.0410
     31 H1        -31.9464    2.6680   -8.0251 H         1 MOL         0.0806
     32 H2        -35.9008    1.3527   -6.8167 H         1 MOL         0.0779
     33 H3        -31.0939    3.5727   -3.7889 H         1 MOL         0.0625
     34 H4        -33.4353    3.6989   -4.1127 H         1 MOL         0.0808
     35 H5        -28.7108    5.8246   -7.6063 H         1 MOL         0.0637
     36 H6        -28.8387    4.5299   -3.5096 H         1 MOL         0.0637
     37 H7        -25.1620    4.2576   -5.3159 H         1 MOL         0.0527
     38 H8        -26.6029    3.8299   -6.2996 H         1 MOL         0.0527
     39 H9        -27.8682    3.4169   -4.1375 H         1 MOL         0.0573
     40 H10       -26.3310    3.6741   -3.2444 H         1 MOL         0.0573
     41 H11       -26.8126    1.4324   -3.5765 H         1 MOL         0.2095
     42 H12       -30.9729    4.8193   -7.9113 H         1 MOL         0.0625
     43 H13       -37.5499    1.2763   -3.6345 H         1 MOL         0.0138
     44 H14       -36.2101    0.3314   -4.3685 H         1 MOL         0.0138
     45 H15       -37.3300    1.2656   -5.4172 H         1 MOL         0.0138
     46 H16       -34.4006    3.1861   -2.9052 H         1 MOL         0.0138
     47 H17       -34.4942    1.3998   -3.0692 H         1 MOL         0.0138
     48 H18       -35.7775    2.2886   -2.1805 H         1 MOL         0.0138
     49 H19       -37.2522    3.7985   -5.3649 H         1 MOL         0.0138
     50 H20       -36.0674    4.6406   -4.3096 H         1 MOL         0.0138
     51 H21       -37.4499    3.7555   -3.5801 H         1 MOL         0.0138
     52 H22       -34.8590    0.3461   -8.7012 H         1 MOL         0.0455
     53 H23       -33.2192    0.8096   -9.2696 H         1 MOL         0.0455
     54 H24       -34.7898    1.6713  -10.8702 H         1 MOL         0.0478
     55 H25       -34.1921    3.0648   -9.9070 H         1 MOL         0.0478
     56 H26       -35.6980    4.4016   -8.5705 H         1 MOL         0.0651
     57 H27       -38.0972    4.8203   -7.9462 H         1 MOL         0.0719
     58 H28       -39.1662    1.0582   -9.7135 H         1 MOL         0.0803
     59 H29       -39.8364    3.1326   -8.5272 H         1 MOL         0.0652
@<TRIPOS>BOND
     1    1    4 ar 
     2    8    1 ar 
     3    1   19 1  
     4    2    3 ar 
     5    5    2 ar 
     6    3    4 ar 
     7    3   23 1  
     8    7    5 1  
     9    5    8 ar 
    10    6    7 ar 
    11   10    6 ar 
    12   18    7 ar 
    13   17    9 ar 
    14    9   18 ar 
    15   17   10 ar 
    16   12   11 2  
    17   12   13 2  
    18   12   14 1  
    19   12   17 1  
    20   14   15 1  
    21   15   16 1  
    22   19   20 1  
    23   19   21 1  
    24   19   22 1  
    25   23   24 1  
    26   24   25 1  
    27   25   26 ar 
    28   25   28 ar 
    29   26   27 ar 
    30   27   30 ar 
    31   28   29 ar 
    32   29   30 ar 
    33    2   31 1  
    34    4   32 1  
    35    6   33 1  
    36    8   34 1  
    37    9   35 1  
    38   10   36 1  
    39   14   37 1  
    40   14   38 1  
    41   15   39 1  
    42   15   40 1  
    43   16   41 1  
    44   18   42 1  
    45   20   43 1  
    46   20   44 1  
    47   20   45 1  
    48   21   46 1  
    49   21   47 1  
    50   21   48 1  
    51   22   49 1  
    52   22   50 1  
    53   22   51 1  
    54   23   52 1  
    55   23   53 1  
    56   24   54 1  
    57   24   55 1  
    58   26   56 1  
    59   27   57 1  
    60   29   58 1  
    61   30   59 1  
@<TRIPOS>SUBSTRUCTURE
     1 MOL         1

