### 
### Created by X-TOOL on Mon Aug  2 16:12:30 2021
### 

@<TRIPOS>MOLECULE
5zyh_ligand
   60    63     1     0     0
SMALL
GAST_HUCK


@<TRIPOS>ATOM
      1 C5        -33.9170    3.7140   -7.5070 C.ar      1 MOL        -0.0237
      2 C4        -35.2280    3.2310   -7.6970 C.ar      1 MOL        -0.0081
      3 C3        -36.0540    2.9500   -6.5720 C.ar      1 MOL        -0.0380
      4 C6        -33.3520    3.8870   -6.2100 C.ar      1 MOL         0.0056
      5 C11       -31.5920    5.4770   -6.9240 C.ar      1 MOL        -0.0517
      6 C10       -31.9820    4.3950   -6.0730 C.ar      1 MOL        -0.0124
      7 C1        -34.1790    3.5860   -5.0580 C.ar      1 MOL        -0.0376
      8 C8        -29.7620    4.3420   -5.0160 C.ar      1 MOL        -0.0363
      9 C12       -30.2770    6.0050   -6.8360 C.ar      1 MOL        -0.0363
     10 O1        -27.6040    5.9440   -4.2280 O.2       1 MOL        -0.1693
     11 S1        -27.7420    6.1580   -5.7410 S.o2      1 MOL        -0.0009
     12 O2        -27.8810    7.5900   -6.3720 O.2       1 MOL        -0.1693
     13 C20       -26.3950    5.1860   -6.5610 C.3       1 MOL         0.0939
     14 C21       -26.3940    5.3520   -8.0890 C.3       1 MOL         0.0639
     15 O3        -27.5800    4.7390   -8.5770 O.3       1 MOL        -0.3934
     16 C7        -29.3910    5.4160   -5.8890 C.ar      1 MOL         0.0883
     17 C9        -31.0570    3.8250   -5.1500 C.ar      1 MOL        -0.0517
     18 C23       -35.5390    3.1140   -5.2410 C.ar      1 MOL        -0.0539
     19 C24       -36.4060    2.7930   -4.0040 C.3       1 MOL        -0.0465
     20 C27       -36.8550    4.0640   -3.2250 C.3       1 MOL        -0.0838
     21 C26       -37.6540    1.9380   -4.3710 C.3       1 MOL        -0.0838
     22 C25       -35.4810    1.9310   -3.1520 C.3       1 MOL        -0.0838
     23 C13       -35.6720    3.1250   -9.1030 C.3       1 MOL         0.0160
     24 C22       -36.9910    3.8430   -9.2640 C.3       1 MOL        -0.0208
     25 C14       -36.8080    2.4400   -9.8200 C.3       1 MOL         0.0234
     26 C18       -37.7240    1.2700   -9.5020 C.ar      1 MOL         0.0335
     27 N1        -37.1880    0.1960   -8.8980 N.ar      1 MOL        -0.2976
     28 C19       -38.0200   -0.8410   -8.6390 C.ar      1 MOL         0.0028
     29 C15       -39.3840   -0.9020   -8.9850 C.ar      1 MOL        -0.0410
     30 C16       -39.9370    0.1990   -9.6370 C.ar      1 MOL        -0.0488
     31 C17       -39.0830    1.2850   -9.8910 C.ar      1 MOL        -0.0320
     32 H1        -33.3189    3.9620   -8.3764 H         1 MOL         0.0806
     33 H2        -37.0732    2.6117   -6.7200 H         1 MOL         0.0779
     34 H3        -32.2983    5.8923   -7.6337 H         1 MOL         0.0625
     35 H4        -33.7807    3.7138   -4.0579 H         1 MOL         0.0808
     36 H5        -29.0692    3.9460   -4.2823 H         1 MOL         0.0637
     37 H6        -29.9587    6.8270   -7.4670 H         1 MOL         0.0637
     38 H7        -26.5332    4.1212   -6.3223 H         1 MOL         0.0527
     39 H8        -25.4255    5.5269   -6.1688 H         1 MOL         0.0527
     40 H9        -25.5100    4.8605   -8.5213 H         1 MOL         0.0573
     41 H10       -26.3854    6.4199   -8.3525 H         1 MOL         0.0573
     42 H11       -27.5805    3.8192   -8.3396 H         1 MOL         0.2095
     43 H12       -31.3601    2.9794   -4.5432 H         1 MOL         0.0625
     44 H13       -37.4661    3.7670   -2.3599 H         1 MOL         0.0138
     45 H14       -37.4484    4.7102   -3.8885 H         1 MOL         0.0138
     46 H15       -35.9678    4.6127   -2.8761 H         1 MOL         0.0138
     47 H16       -37.3347    1.0406   -4.9212 H         1 MOL         0.0138
     48 H17       -38.3331    2.5318   -5.0005 H         1 MOL         0.0138
     49 H18       -38.1761    1.6373   -3.4507 H         1 MOL         0.0138
     50 H19       -34.5882    2.5119   -2.8775 H         1 MOL         0.0138
     51 H20       -35.1782    1.0417   -3.7243 H         1 MOL         0.0138
     52 H21       -36.0092    1.6175   -2.2395 H         1 MOL         0.0138
     53 H22       -34.7997    3.3398   -9.7378 H         1 MOL         0.0495
     54 H23       -37.0715    4.7005   -9.9482 H         1 MOL         0.0321
     55 H24       -37.6380    4.0091   -8.3901 H         1 MOL         0.0321
     56 H25       -36.6541    2.3558  -10.9059 H         1 MOL         0.0517
     57 H26       -37.6006   -1.6963   -8.1217 H         1 MOL         0.0803
     58 H27       -39.9830   -1.7750   -8.7523 H         1 MOL         0.0652
     59 H28       -40.9792    0.2164   -9.9346 H         1 MOL         0.0719
     60 H29       -39.4766    2.1580  -10.3989 H         1 MOL         0.0651
@<TRIPOS>BOND
     1    1    2 ar 
     2    4    1 ar 
     3    2    3 ar 
     4    2   23 1  
     5   18    3 ar 
     6    6    4 1  
     7    4    7 ar 
     8    5    6 ar 
     9    9    5 ar 
    10   17    6 ar 
    11    7   18 ar 
    12   16    8 ar 
    13    8   17 ar 
    14   16    9 ar 
    15   11   10 2  
    16   11   12 2  
    17   11   13 1  
    18   11   16 1  
    19   13   14 1  
    20   14   15 1  
    21   18   19 1  
    22   19   20 1  
    23   19   21 1  
    24   19   22 1  
    25   23   24 1  
    26   23   25 1  
    27   24   25 1  
    28   25   26 1  
    29   26   27 ar 
    30   26   31 ar 
    31   27   28 ar 
    32   28   29 ar 
    33   29   30 ar 
    34   30   31 ar 
    35    1   32 1  
    36    3   33 1  
    37    5   34 1  
    38    7   35 1  
    39    8   36 1  
    40    9   37 1  
    41   13   38 1  
    42   13   39 1  
    43   14   40 1  
    44   14   41 1  
    45   15   42 1  
    46   17   43 1  
    47   20   44 1  
    48   20   45 1  
    49   20   46 1  
    50   21   47 1  
    51   21   48 1  
    52   21   49 1  
    53   22   50 1  
    54   22   51 1  
    55   22   52 1  
    56   23   53 1  
    57   24   54 1  
    58   24   55 1  
    59   25   56 1  
    60   28   57 1  
    61   29   58 1  
    62   30   59 1  
    63   31   60 1  
@<TRIPOS>SUBSTRUCTURE
     1 MOL         1

