### 
### Created by X-TOOL on Mon Aug  2 16:12:31 2021
### 

@<TRIPOS>MOLECULE
5zyi_ligand
   63    66     1     0     0
SMALL
GAST_HUCK


@<TRIPOS>ATOM
      1 C12       -30.0510    6.3240   -7.2760 C.ar      1 MOL        -0.0373
      2 C13       -36.3160    2.7820   -5.7110 C.3       1 MOL         0.0075
      3 C14       -35.7330    1.8060   -4.6740 C.3       1 MOL         0.0218
      4 C15       -31.7570    0.3990   -5.0440 C.ar      1 MOL        -0.0410
      5 C17       -33.4480    1.4470   -3.6530 C.ar      1 MOL        -0.0320
      6 C18       -34.3320    1.3210   -4.7300 C.ar      1 MOL         0.0333
      7 C19       -32.6890    0.3080   -6.0870 C.ar      1 MOL         0.0028
      8 C20       -26.5300    5.4050   -6.2920 C.3       1 MOL         0.0938
      9 N1        -33.9660    0.7530   -5.9380 N.ar      1 MOL        -0.2976
     10 C5        -34.1580    3.8270   -6.4080 C.ar      1 MOL        -0.0583
     11 C6        -33.3390    4.4930   -7.3520 C.ar      1 MOL        -0.0310
     12 C7        -29.4780    5.7800   -6.1430 C.ar      1 MOL         0.0874
     13 C9        -31.4120    4.4460   -5.7420 C.ar      1 MOL        -0.0540
     14 O1        -27.7540    6.2030   -4.1730 O.2       1 MOL        -0.1694
     15 S1        -27.8920    6.4330   -5.6260 S.o2      1 MOL        -0.0013
     16 O2        -27.8350    7.7650   -6.2620 O.2       1 MOL        -0.1694
     17 C21       -26.3480    5.5100   -7.8190 C.3       1 MOL         0.0639
     18 O3        -27.2920    4.6710   -8.4380 O.3       1 MOL        -0.3934
     19 C8        -30.1130    4.8310   -5.3240 C.ar      1 MOL        -0.0373
     20 C10       -32.0120    4.9450   -6.9210 C.ar      1 MOL        -0.0237
     21 C11       -31.3320    5.9000   -7.6980 C.ar      1 MOL        -0.0540
     22 C4        -35.4430    3.4180   -6.7670 C.ar      1 MOL        -0.0341
     23 C3        -35.8930    3.6110   -8.1030 C.ar      1 MOL        -0.0394
     24 C24       -37.3150    3.1750   -8.4500 C.3       1 MOL        -0.0210
     25 C25       -37.2780    1.8230   -9.1950 C.3       1 MOL        -0.0441
     26 C26       -38.7640    1.5020   -9.4430 C.3       1 MOL        -0.0516
     27 C27       -38.9610   -0.0050   -9.3550 C.3       1 MOL        -0.0558
     28 C28       -40.4020   -0.3370   -9.7570 C.3       1 MOL        -0.0653
     29 C23       -35.0990    4.2880   -9.0520 C.ar      1 MOL        -0.0652
     30 C1        -33.8000    4.7120   -8.6690 C.ar      1 MOL        -0.0668
     31 C22       -36.6060    1.3160   -5.7890 C.3       1 MOL        -0.0225
     32 C16       -32.1420    0.9530   -3.7820 C.ar      1 MOL        -0.0488
     33 H1        -29.5171    7.0780   -7.8431 H         1 MOL         0.0634
     34 H2        -37.1029    3.4902   -5.4122 H         1 MOL         0.0476
     35 H3        -36.0816    1.8488   -3.6316 H         1 MOL         0.0516
     36 H4        -30.7421    0.0489   -5.1937 H         1 MOL         0.0652
     37 H5        -33.7682    1.9199   -2.7316 H         1 MOL         0.0651
     38 H6        -32.3857   -0.1263   -7.0328 H         1 MOL         0.0803
     39 H7        -26.7362    4.3542   -6.0406 H         1 MOL         0.0527
     40 H8        -25.5926    5.7201   -5.8104 H         1 MOL         0.0527
     41 H9        -33.7871    3.6351   -5.4076 H         1 MOL         0.0544
     42 H10       -31.9671    3.7412   -5.1336 H         1 MOL         0.0615
     43 H11       -25.3316    5.1922   -8.0946 H         1 MOL         0.0573
     44 H12       -26.5073    6.5496   -8.1414 H         1 MOL         0.0573
     45 H13       -27.1519    3.7752   -8.1545 H         1 MOL         0.2095
     46 H14       -29.6435    4.4226   -4.4364 H         1 MOL         0.0634
     47 H15       -31.7798    6.3017   -8.5997 H         1 MOL         0.0615
     48 H16       -37.7834    3.9342   -9.0935 H         1 MOL         0.0415
     49 H17       -37.9002    3.0667   -7.5249 H         1 MOL         0.0415
     50 H18       -36.8071    1.0461   -8.5748 H         1 MOL         0.0286
     51 H19       -36.7324    1.9138  -10.1458 H         1 MOL         0.0286
     52 H20       -39.0569    1.8555  -10.4426 H         1 MOL         0.0267
     53 H21       -39.3821    2.0008   -8.6820 H         1 MOL         0.0267
     54 H22       -38.7772   -0.3427   -8.3244 H         1 MOL         0.0263
     55 H23       -38.2610   -0.5102  -10.0367 H         1 MOL         0.0263
     56 H24       -40.5579   -1.4243   -9.6977 H         1 MOL         0.0230
     57 H25       -40.5831    0.0037  -10.7871 H         1 MOL         0.0230
     58 H26       -41.0994    0.1712   -9.0748 H         1 MOL         0.0230
     59 H27       -35.4726    4.4801  -10.0513 H         1 MOL         0.0542
     60 H28       -33.1589    5.2060   -9.3902 H         1 MOL         0.0553
     61 H29       -36.1681    0.7164   -6.6006 H         1 MOL         0.0319
     62 H30       -37.6186    0.9483   -5.5668 H         1 MOL         0.0319
     63 H31       -31.4459    0.9896   -2.9518 H         1 MOL         0.0719
@<TRIPOS>BOND
     1   12    1 ar 
     2    1   21 ar 
     3    2    3 1  
     4   22    2 1  
     5    2   31 1  
     6    3    6 1  
     7   31    3 1  
     8    7    4 ar 
     9   32    4 ar 
    10    6    5 ar 
    11    5   32 ar 
    12    6    9 ar 
    13    9    7 ar 
    14   15    8 1  
    15    8   17 1  
    16   11   10 ar 
    17   10   22 ar 
    18   20   11 1  
    19   11   30 ar 
    20   12   15 1  
    21   19   12 ar 
    22   13   19 ar 
    23   13   20 ar 
    24   15   14 2  
    25   15   16 2  
    26   17   18 1  
    27   20   21 ar 
    28   22   23 ar 
    29   23   24 1  
    30   23   29 ar 
    31   24   25 1  
    32   25   26 1  
    33   26   27 1  
    34   27   28 1  
    35   29   30 ar 
    36    1   33 1  
    37    2   34 1  
    38    3   35 1  
    39    4   36 1  
    40    5   37 1  
    41    7   38 1  
    42    8   39 1  
    43    8   40 1  
    44   10   41 1  
    45   13   42 1  
    46   17   43 1  
    47   17   44 1  
    48   18   45 1  
    49   19   46 1  
    50   21   47 1  
    51   24   48 1  
    52   24   49 1  
    53   25   50 1  
    54   25   51 1  
    55   26   52 1  
    56   26   53 1  
    57   27   54 1  
    58   27   55 1  
    59   28   56 1  
    60   28   57 1  
    61   28   58 1  
    62   29   59 1  
    63   30   60 1  
    64   31   61 1  
    65   31   62 1  
    66   32   63 1  
@<TRIPOS>SUBSTRUCTURE
     1 MOL         1

