### 
### Created by X-TOOL on Mon Aug  2 16:12:31 2021
### 

@<TRIPOS>MOLECULE
5zyj_ligand
   63    66     1     0     0
SMALL
GAST_HUCK


@<TRIPOS>ATOM
      1 C12       -30.1270    6.2490   -7.3900 C.ar      1 MOL        -0.0373
      2 C13       -36.4560    2.6920   -5.6650 C.3       1 MOL         0.0075
      3 C14       -35.9290    1.6040   -4.7290 C.3       1 MOL         0.0218
      4 C15       -31.9510    0.2370   -5.2490 C.ar      1 MOL        -0.0410
      5 C17       -33.6030    1.2510   -3.7870 C.ar      1 MOL        -0.0320
      6 C18       -34.5560    1.1150   -4.8410 C.ar      1 MOL         0.0333
      7 C19       -32.9410    0.1610   -6.2540 C.ar      1 MOL         0.0028
      8 C20       -26.6310    5.3920   -6.2750 C.3       1 MOL         0.0938
      9 N1        -34.2310    0.5890   -6.0740 N.ar      1 MOL        -0.2976
     10 C5        -34.3390    3.8040   -6.3840 C.ar      1 MOL        -0.0583
     11 C6        -33.5210    4.4170   -7.3470 C.ar      1 MOL        -0.0310
     12 C7        -29.6090    5.7610   -6.2130 C.ar      1 MOL         0.0874
     13 C9        -31.5820    4.4270   -5.7820 C.ar      1 MOL        -0.0540
     14 O1        -27.9690    6.1960   -4.2130 O.2       1 MOL        -0.1694
     15 S1        -28.0670    6.3580   -5.6530 S.o2      1 MOL        -0.0013
     16 O2        -28.0320    7.7090   -6.1950 O.2       1 MOL        -0.1694
     17 C21       -26.5270    5.5290   -7.8130 C.3       1 MOL         0.0639
     18 O3        -27.3870    4.6020   -8.4800 O.3       1 MOL        -0.3934
     19 C8        -30.2970    4.8750   -5.3520 C.ar      1 MOL        -0.0373
     20 C10       -32.1540    4.8870   -6.9670 C.ar      1 MOL        -0.0237
     21 C11       -31.4270    5.7740   -7.7780 C.ar      1 MOL        -0.0540
     22 C4        -35.6360    3.3680   -6.7360 C.ar      1 MOL        -0.0341
     23 C3        -36.1010    3.4920   -8.0670 C.ar      1 MOL        -0.0394
     24 C24       -37.5020    3.0840   -8.4800 C.3       1 MOL        -0.0210
     25 C25       -37.4860    1.7620   -9.2940 C.3       1 MOL        -0.0441
     26 C26       -38.9700    1.3870   -9.4710 C.3       1 MOL        -0.0516
     27 C27       -39.1130   -0.0850   -9.1220 C.3       1 MOL        -0.0558
     28 C28       -40.3680   -0.5380   -9.8500 C.3       1 MOL        -0.0653
     29 C23       -35.3090    4.1250   -9.0330 C.ar      1 MOL        -0.0652
     30 C1        -34.0000    4.5560   -8.6730 C.ar      1 MOL        -0.0668
     31 C22       -36.9980    1.3030   -5.7480 C.3       1 MOL        -0.0225
     32 C16       -32.3110    0.7830   -3.9970 C.ar      1 MOL        -0.0488
     33 H1        -29.5793    6.9601   -7.9979 H         1 MOL         0.0634
     34 H2        -37.1069    3.4667   -5.2335 H         1 MOL         0.0476
     35 H3        -36.2020    1.6256   -3.6636 H         1 MOL         0.0516
     36 H4        -30.9423   -0.1142   -5.4337 H         1 MOL         0.0652
     37 H5        -33.8805    1.7088   -2.8444 H         1 MOL         0.0651
     38 H6        -32.6668   -0.2568   -7.2160 H         1 MOL         0.0803
     39 H7        -26.7635    4.3322   -6.0119 H         1 MOL         0.0527
     40 H8        -25.7083    5.7722   -5.8123 H         1 MOL         0.0527
     41 H9        -33.9758    3.6656   -5.3721 H         1 MOL         0.0544
     42 H10       -32.1253    3.7131   -5.1735 H         1 MOL         0.0615
     43 H11       -25.4882    5.3374   -8.1197 H         1 MOL         0.0573
     44 H12       -26.8116    6.5517   -8.1010 H         1 MOL         0.0573
     45 H13       -27.1434    3.7159   -8.2390 H         1 MOL         0.2095
     46 H14       -29.8688    4.5515   -4.4102 H         1 MOL         0.0634
     47 H15       -31.8554    6.1074   -8.7163 H         1 MOL         0.0615
     48 H16       -37.9398    3.8809   -9.0990 H         1 MOL         0.0415
     49 H17       -38.1149    2.9421   -7.5777 H         1 MOL         0.0415
     50 H18       -36.9511    0.9746   -8.7428 H         1 MOL         0.0286
     51 H19       -37.0064    1.9155  -10.2720 H         1 MOL         0.0286
     52 H20       -39.2790    1.5578  -10.5128 H         1 MOL         0.0267
     53 H21       -39.5938    1.9947   -8.7991 H         1 MOL         0.0267
     54 H22       -39.2268   -0.2162   -8.0358 H         1 MOL         0.0263
     55 H23       -38.2373   -0.6524   -9.4702 H         1 MOL         0.0263
     56 H24       -40.5445   -1.6047   -9.6474 H         1 MOL         0.0230
     57 H25       -40.2391   -0.3867  -10.9319 H         1 MOL         0.0230
     58 H26       -41.2286    0.0495   -9.4975 H         1 MOL         0.0230
     59 H27       -35.6855    4.2842  -10.0370 H         1 MOL         0.0542
     60 H28       -33.3589    4.9982   -9.4270 H         1 MOL         0.0553
     61 H29       -36.7609    0.6751   -6.6195 H         1 MOL         0.0319
     62 H30       -38.0264    1.0970   -5.4165 H         1 MOL         0.0319
     63 H31       -31.5791    0.8371   -3.1992 H         1 MOL         0.0719
@<TRIPOS>BOND
     1   12    1 ar 
     2    1   21 ar 
     3    2    3 1  
     4   22    2 1  
     5    2   31 1  
     6    3    6 1  
     7   31    3 1  
     8    7    4 ar 
     9   32    4 ar 
    10    6    5 ar 
    11    5   32 ar 
    12    6    9 ar 
    13    9    7 ar 
    14   15    8 1  
    15    8   17 1  
    16   11   10 ar 
    17   10   22 ar 
    18   20   11 1  
    19   11   30 ar 
    20   12   15 1  
    21   19   12 ar 
    22   13   19 ar 
    23   13   20 ar 
    24   15   14 2  
    25   15   16 2  
    26   17   18 1  
    27   20   21 ar 
    28   22   23 ar 
    29   23   24 1  
    30   23   29 ar 
    31   24   25 1  
    32   25   26 1  
    33   26   27 1  
    34   27   28 1  
    35   29   30 ar 
    36    1   33 1  
    37    2   34 1  
    38    3   35 1  
    39    4   36 1  
    40    5   37 1  
    41    7   38 1  
    42    8   39 1  
    43    8   40 1  
    44   10   41 1  
    45   13   42 1  
    46   17   43 1  
    47   17   44 1  
    48   18   45 1  
    49   19   46 1  
    50   21   47 1  
    51   24   48 1  
    52   24   49 1  
    53   25   50 1  
    54   25   51 1  
    55   26   52 1  
    56   26   53 1  
    57   27   54 1  
    58   27   55 1  
    59   28   56 1  
    60   28   57 1  
    61   28   58 1  
    62   29   59 1  
    63   30   60 1  
    64   31   61 1  
    65   31   62 1  
    66   32   63 1  
@<TRIPOS>SUBSTRUCTURE
     1 MOL         1

