### 
### Created by X-TOOL on Mon Aug  2 16:12:31 2021
### 

@<TRIPOS>MOLECULE
5zyk_ligand
   61    65     1     0     0
SMALL
GAST_HUCK


@<TRIPOS>ATOM
      1 C2        -37.2000    4.0250   -8.1470 C.3       1 MOL        -0.0412
      2 C12       -29.0100    4.9310   -4.7560 C.ar      1 MOL        -0.0373
      3 C13       -25.2030    5.3720   -7.4200 C.3       1 MOL         0.0639
      4 C14       -25.4290    5.3010   -5.8750 C.3       1 MOL         0.0938
      5 C15       -28.3100    5.7690   -5.6060 C.ar      1 MOL         0.0874
      6 C17       -32.2320    4.4210   -6.6100 C.ar      1 MOL        -0.0310
      7 C18       -33.0910    3.9230   -5.5990 C.ar      1 MOL        -0.0582
      8 C19       -35.2230    2.8750   -4.7080 C.3       1 MOL         0.0075
      9 C20       -34.3830    3.4100   -5.8410 C.ar      1 MOL        -0.0338
     10 N1        -32.6690    0.9110   -4.9610 N.ar      1 MOL        -0.2976
     11 C5        -38.3510    3.1870   -8.7810 C.3       1 MOL        -0.0510
     12 C6        -34.8960    3.4510   -7.1760 C.ar      1 MOL        -0.0364
     13 C7        -34.0210    3.9300   -8.1990 C.ar      1 MOL        -0.0649
     14 C9        -30.9140    4.9030   -6.2530 C.ar      1 MOL        -0.0237
     15 O3        -26.5780    6.2220   -3.6600 O.2       1 MOL        -0.1694
     16 S1        -26.7130    6.3690   -5.1590 S.o2      1 MOL        -0.0013
     17 O2        -26.5900    7.6090   -5.8370 O.2       1 MOL        -0.1694
     18 O1        -26.2410    4.5860   -7.9680 O.3       1 MOL        -0.3934
     19 C16       -28.8750    6.1710   -6.8590 C.ar      1 MOL        -0.0373
     20 C10       -30.1960    5.6800   -7.1260 C.ar      1 MOL        -0.0540
     21 C11       -30.2950    4.4740   -5.0450 C.ar      1 MOL        -0.0540
     22 C8        -32.7330    4.4650   -7.9560 C.ar      1 MOL        -0.0668
     23 C1        -36.3090    2.9540   -7.5070 C.3       1 MOL        -0.0092
     24 C3        -36.3710    1.7420   -8.4890 C.3       1 MOL        -0.0412
     25 C4        -37.8500    1.7780   -9.0040 C.3       1 MOL        -0.0510
     26 C27       -34.6110    1.8850   -3.7130 C.3       1 MOL         0.0218
     27 C21       -35.7400    1.4590   -4.6250 C.3       1 MOL        -0.0225
     28 C22       -33.1620    1.4090   -3.7920 C.ar      1 MOL         0.0333
     29 C23       -32.2630    1.5810   -2.6950 C.ar      1 MOL        -0.0320
     30 C24       -30.9140    1.2090   -2.7760 C.ar      1 MOL        -0.0488
     31 C25       -30.3780    0.6940   -3.9920 C.ar      1 MOL        -0.0410
     32 C26       -31.3260    0.6240   -5.0290 C.ar      1 MOL         0.0028
     33 H1        -37.5884    4.7212   -7.3891 H         1 MOL         0.0289
     34 H2        -36.6511    4.5887   -8.9157 H         1 MOL         0.0289
     35 H3        -28.5413    4.6179   -3.8301 H         1 MOL         0.0634
     36 H4        -24.2197    4.9583   -7.6881 H         1 MOL         0.0573
     37 H5        -25.2732    6.4106   -7.7755 H         1 MOL         0.0573
     38 H6        -24.4765    5.5631   -5.3913 H         1 MOL         0.0527
     39 H7        -25.6915    4.2615   -5.6288 H         1 MOL         0.0527
     40 H8        -32.7332    3.9370   -4.5758 H         1 MOL         0.0544
     41 H9        -35.8679    3.6882   -4.3436 H         1 MOL         0.0476
     42 H10       -38.6482    3.6318   -9.7421 H         1 MOL         0.0267
     43 H11       -39.2159    3.1703   -8.1016 H         1 MOL         0.0267
     44 H12       -34.3650    3.8806   -9.2258 H         1 MOL         0.0542
     45 H13       -26.1704    3.6971   -7.6403 H         1 MOL         0.2095
     46 H14       -28.3405    6.8036   -7.5584 H         1 MOL         0.0634
     47 H15       -30.6540    5.9383   -8.0739 H         1 MOL         0.0615
     48 H16       -30.8115    3.8066   -4.3647 H         1 MOL         0.0615
     49 H17       -32.1442    4.8937   -8.7589 H         1 MOL         0.0553
     50 H18       -36.7634    2.6464   -6.5536 H         1 MOL         0.0450
     51 H19       -36.1579    0.7983   -7.9656 H         1 MOL         0.0289
     52 H20       -35.6606    1.8694   -9.3191 H         1 MOL         0.0289
     53 H21       -37.8852    1.5276  -10.0745 H         1 MOL         0.0267
     54 H22       -38.4659    1.0624   -8.4396 H         1 MOL         0.0267
     55 H23       -34.8440    2.0093   -2.6452 H         1 MOL         0.0516
     56 H24       -35.5437    0.7553   -5.4474 H         1 MOL         0.0319
     57 H25       -36.7383    1.2643   -4.2062 H         1 MOL         0.0319
     58 H26       -32.6352    2.0120   -1.7726 H         1 MOL         0.0651
     59 H27       -30.2738    1.3138   -1.9075 H         1 MOL         0.0719
     60 H28       -29.3446    0.3873   -4.1062 H         1 MOL         0.0652
     61 H29       -30.9537    0.3062   -5.9962 H         1 MOL         0.0803
@<TRIPOS>BOND
     1    1   11 1  
     2   23    1 1  
     3    2    5 ar 
     4   21    2 ar 
     5    4    3 1  
     6    3   18 1  
     7   16    4 1  
     8    5   16 1  
     9   19    5 ar 
    10    7    6 ar 
    11    6   14 1  
    12    6   22 ar 
    13    9    7 ar 
    14    8    9 1  
    15   26    8 1  
    16   27    8 1  
    17    9   12 ar 
    18   28   10 ar 
    19   10   32 ar 
    20   25   11 1  
    21   12   13 ar 
    22   12   23 1  
    23   13   22 ar 
    24   14   20 ar 
    25   14   21 ar 
    26   16   15 2  
    27   16   17 2  
    28   20   19 ar 
    29   23   24 1  
    30   24   25 1  
    31   26   27 1  
    32   26   28 1  
    33   28   29 ar 
    34   29   30 ar 
    35   30   31 ar 
    36   31   32 ar 
    37    1   33 1  
    38    1   34 1  
    39    2   35 1  
    40    3   36 1  
    41    3   37 1  
    42    4   38 1  
    43    4   39 1  
    44    7   40 1  
    45    8   41 1  
    46   11   42 1  
    47   11   43 1  
    48   13   44 1  
    49   18   45 1  
    50   19   46 1  
    51   20   47 1  
    52   21   48 1  
    53   22   49 1  
    54   23   50 1  
    55   24   51 1  
    56   24   52 1  
    57   25   53 1  
    58   25   54 1  
    59   26   55 1  
    60   27   56 1  
    61   27   57 1  
    62   29   58 1  
    63   30   59 1  
    64   31   60 1  
    65   32   61 1  
@<TRIPOS>SUBSTRUCTURE
     1 MOL         1

