### 
### Created by X-TOOL on Mon Aug  2 16:12:31 2021
### 

@<TRIPOS>MOLECULE
5zyl_ligand
   61    65     1     0     0
SMALL
GAST_HUCK


@<TRIPOS>ATOM
      1 C2        -37.0870    3.9290   -8.0630 C.3       1 MOL        -0.0412
      2 C12       -28.9170    4.8230   -4.7070 C.ar      1 MOL        -0.0373
      3 C13       -25.1430    5.3330   -7.4040 C.3       1 MOL         0.0639
      4 C14       -25.2550    5.2400   -5.8550 C.3       1 MOL         0.0938
      5 C15       -28.2570    5.6820   -5.6280 C.ar      1 MOL         0.0874
      6 C17       -32.1780    4.3120   -6.5860 C.ar      1 MOL        -0.0310
      7 C18       -33.0540    3.8380   -5.5870 C.ar      1 MOL        -0.0582
      8 C19       -35.1540    2.8450   -4.6400 C.3       1 MOL         0.0075
      9 C20       -34.3380    3.3580   -5.8120 C.ar      1 MOL        -0.0338
     10 N1        -32.6780    0.8450   -5.0040 N.ar      1 MOL        -0.2976
     11 C5        -38.2830    3.1770   -8.7410 C.3       1 MOL        -0.0510
     12 C6        -34.8210    3.3390   -7.1400 C.ar      1 MOL        -0.0364
     13 C7        -33.9660    3.8380   -8.1730 C.ar      1 MOL        -0.0649
     14 C9        -30.8290    4.7980   -6.2610 C.ar      1 MOL        -0.0237
     15 O3        -26.6060    6.1690   -3.7180 O.2       1 MOL        -0.1694
     16 S1        -26.6310    6.3080   -5.1990 S.o2      1 MOL        -0.0013
     17 O2        -26.5260    7.6080   -5.8450 O.2       1 MOL        -0.1694
     18 O1        -26.1540    4.4660   -7.9620 O.3       1 MOL        -0.3934
     19 C16       -28.8200    6.0810   -6.8700 C.ar      1 MOL        -0.0373
     20 C10       -30.1280    5.6190   -7.1760 C.ar      1 MOL        -0.0540
     21 C11       -30.2110    4.4140   -5.0380 C.ar      1 MOL        -0.0540
     22 C8        -32.6470    4.3230   -7.9180 C.ar      1 MOL        -0.0668
     23 C1        -36.2450    2.8370   -7.4320 C.3       1 MOL        -0.0092
     24 C3        -36.3590    1.6470   -8.4370 C.3       1 MOL        -0.0412
     25 C4        -37.7980    1.7400   -8.9720 C.3       1 MOL        -0.0510
     26 C27       -34.4990    1.8410   -3.6850 C.3       1 MOL         0.0218
     27 C21       -35.5750    1.3980   -4.6710 C.3       1 MOL        -0.0225
     28 C22       -33.0630    1.3970   -3.8090 C.ar      1 MOL         0.0333
     29 C23       -32.1200    1.4950   -2.7670 C.ar      1 MOL        -0.0320
     30 C24       -30.7790    1.0720   -2.9520 C.ar      1 MOL        -0.0488
     31 C25       -30.4030    0.5470   -4.2230 C.ar      1 MOL        -0.0410
     32 C26       -31.4150    0.4470   -5.2070 C.ar      1 MOL         0.0028
     33 H1        -37.4538    4.6266   -7.2957 H         1 MOL         0.0289
     34 H2        -36.5032    4.4828   -8.8130 H         1 MOL         0.0289
     35 H3        -28.4378    4.5002   -3.7898 H         1 MOL         0.0634
     36 H4        -24.1448    5.0048   -7.7294 H         1 MOL         0.0573
     37 H5        -25.3133    6.3691   -7.7319 H         1 MOL         0.0573
     38 H6        -24.3049    5.5686   -5.4085 H         1 MOL         0.0527
     39 H7        -25.4502    4.1946   -5.5738 H         1 MOL         0.0527
     40 H8        -32.6972    3.8492   -4.5635 H         1 MOL         0.0544
     41 H9        -35.8291    3.6268   -4.2618 H         1 MOL         0.0476
     42 H10       -38.5407    3.6526   -9.6988 H         1 MOL         0.0267
     43 H11       -39.1626    3.1826   -8.0804 H         1 MOL         0.0267
     44 H12       -34.3349    3.8484   -9.1923 H         1 MOL         0.0542
     45 H13       -26.0020    3.5750   -7.6696 H         1 MOL         0.2095
     46 H14       -28.2720    6.7142   -7.5583 H         1 MOL         0.0634
     47 H15       -30.5917    5.8969   -8.1156 H         1 MOL         0.0615
     48 H16       -30.7594    3.7870   -4.3443 H         1 MOL         0.0615
     49 H17       -32.0229    4.6896   -8.7250 H         1 MOL         0.0553
     50 H18       -36.6890    2.5325   -6.4727 H         1 MOL         0.0450
     51 H19       -36.1946    0.6873   -7.9253 H         1 MOL         0.0289
     52 H20       -35.6313    1.7560   -9.2546 H         1 MOL         0.0289
     53 H21       -37.8151    1.5058  -10.0466 H         1 MOL         0.0267
     54 H22       -38.4458    1.0335   -8.4324 H         1 MOL         0.0267
     55 H23       -34.7452    1.8928   -2.6142 H         1 MOL         0.0516
     56 H24       -35.3044    0.7668   -5.5303 H         1 MOL         0.0319
     57 H25       -36.5703    1.1088   -4.3026 H         1 MOL         0.0319
     58 H26       -32.4242    1.9001   -1.8087 H         1 MOL         0.0651
     59 H27       -30.0574    1.1461   -2.1465 H         1 MOL         0.0719
     60 H28       -29.3844    0.2373   -4.4271 H         1 MOL         0.0652
     61 H29       -31.1556    0.0278   -6.1724 H         1 MOL         0.0803
@<TRIPOS>BOND
     1    1   11 1  
     2   23    1 1  
     3    2    5 ar 
     4   21    2 ar 
     5    4    3 1  
     6    3   18 1  
     7   16    4 1  
     8    5   16 1  
     9   19    5 ar 
    10    7    6 ar 
    11    6   14 1  
    12    6   22 ar 
    13    9    7 ar 
    14    8    9 1  
    15   26    8 1  
    16   27    8 1  
    17    9   12 ar 
    18   28   10 ar 
    19   10   32 ar 
    20   25   11 1  
    21   12   13 ar 
    22   12   23 1  
    23   13   22 ar 
    24   14   20 ar 
    25   14   21 ar 
    26   16   15 2  
    27   16   17 2  
    28   20   19 ar 
    29   23   24 1  
    30   24   25 1  
    31   26   27 1  
    32   26   28 1  
    33   28   29 ar 
    34   29   30 ar 
    35   30   31 ar 
    36   31   32 ar 
    37    1   33 1  
    38    1   34 1  
    39    2   35 1  
    40    3   36 1  
    41    3   37 1  
    42    4   38 1  
    43    4   39 1  
    44    7   40 1  
    45    8   41 1  
    46   11   42 1  
    47   11   43 1  
    48   13   44 1  
    49   18   45 1  
    50   19   46 1  
    51   20   47 1  
    52   21   48 1  
    53   22   49 1  
    54   23   50 1  
    55   24   51 1  
    56   24   52 1  
    57   25   53 1  
    58   25   54 1  
    59   26   55 1  
    60   27   56 1  
    61   27   57 1  
    62   29   58 1  
    63   30   59 1  
    64   31   60 1  
    65   32   61 1  
@<TRIPOS>SUBSTRUCTURE
     1 MOL         1

