### 
### Created by X-TOOL on Mon Aug  2 16:12:31 2021
### 

@<TRIPOS>MOLECULE
5zym_ligand
   61    65     1     0     0
SMALL
GAST_HUCK


@<TRIPOS>ATOM
      1 C2        -37.0390    3.7660   -8.1970 C.3       1 MOL        -0.0412
      2 C12       -29.0250    4.9770   -4.7580 C.ar      1 MOL        -0.0373
      3 C13       -25.1560    5.3240   -7.3970 C.3       1 MOL         0.0639
      4 C14       -25.4140    5.0560   -5.8850 C.3       1 MOL         0.0938
      5 C15       -28.3140    5.7080   -5.6930 C.ar      1 MOL         0.0874
      6 C17       -32.1570    4.2210   -6.6390 C.ar      1 MOL        -0.0310
      7 C18       -32.9870    3.6800   -5.6340 C.ar      1 MOL        -0.0582
      8 C19       -35.1250    2.4770   -4.9030 C.3       1 MOL         0.0075
      9 C20       -34.2940    3.1650   -5.9480 C.ar      1 MOL        -0.0338
     10 N1        -32.0890    0.8220   -5.0120 N.ar      1 MOL        -0.2976
     11 C5        -38.2790    3.0980   -8.8130 C.3       1 MOL        -0.0510
     12 C6        -34.7700    3.1920   -7.2750 C.ar      1 MOL        -0.0364
     13 C7        -33.9440    3.7470   -8.2850 C.ar      1 MOL        -0.0649
     14 C9        -30.8240    4.7600   -6.3430 C.ar      1 MOL        -0.0237
     15 O3        -26.6140    6.0690   -3.6810 O.2       1 MOL        -0.1694
     16 S1        -26.6630    6.2540   -5.1720 S.o2      1 MOL        -0.0013
     17 O2        -26.4600    7.4980   -5.9850 O.2       1 MOL        -0.1694
     18 O1        -26.1780    4.5570   -8.0390 O.3       1 MOL        -0.3934
     19 C16       -28.7740    5.9650   -7.0070 C.ar      1 MOL        -0.0373
     20 C10       -30.0450    5.4690   -7.2970 C.ar      1 MOL        -0.0540
     21 C11       -30.2860    4.4910   -5.0600 C.ar      1 MOL        -0.0540
     22 C8        -32.6640    4.2520   -7.9640 C.ar      1 MOL        -0.0668
     23 C1        -36.1790    2.6510   -7.6510 C.3       1 MOL        -0.0092
     24 C3        -36.3880    1.6100   -8.7770 C.3       1 MOL        -0.0412
     25 C4        -37.9160    1.6240   -8.9570 C.3       1 MOL        -0.0510
     26 C27       -34.3830    1.3840   -4.0830 C.3       1 MOL         0.0218
     27 C21       -34.9530    2.6440   -3.4370 C.3       1 MOL        -0.0225
     28 C22       -32.8480    1.1970   -3.9210 C.ar      1 MOL         0.0333
     29 C23       -32.0950    1.4640   -2.6990 C.ar      1 MOL        -0.0320
     30 C24       -30.6620    1.3480   -2.5740 C.ar      1 MOL        -0.0488
     31 C25       -29.9120    0.9440   -3.6980 C.ar      1 MOL        -0.0410
     32 C26       -30.6870    0.7090   -4.8930 C.ar      1 MOL         0.0028
     33 H1        -37.3373    4.4475   -7.3868 H         1 MOL         0.0289
     34 H2        -36.4890    4.3287   -8.9656 H         1 MOL         0.0289
     35 H3        -28.5923    4.7835   -3.7831 H         1 MOL         0.0634
     36 H4        -24.1555    4.9771   -7.6949 H         1 MOL         0.0573
     37 H5        -25.2582    6.3937   -7.6319 H         1 MOL         0.0573
     38 H6        -24.4659    5.1619   -5.3374 H         1 MOL         0.0527
     39 H7        -25.7945    4.0310   -5.7646 H         1 MOL         0.0527
     40 H8        -32.6347    3.6518   -4.6092 H         1 MOL         0.0544
     41 H9        -36.1393    2.3109   -5.2949 H         1 MOL         0.0476
     42 H10       -38.5039    3.5367   -9.7963 H         1 MOL         0.0267
     43 H11       -39.1492    3.2170   -8.1507 H         1 MOL         0.0267
     44 H12       -34.2966    3.7841   -9.3094 H         1 MOL         0.0542
     45 H13       -26.0774    3.6411   -7.8078 H         1 MOL         0.2095
     46 H14       -28.1816    6.5077   -7.7347 H         1 MOL         0.0634
     47 H15       -30.4541    5.6305   -8.2878 H         1 MOL         0.0615
     48 H16       -30.8485    3.9180   -4.3318 H         1 MOL         0.0615
     49 H17       -32.0519    4.6751   -8.7523 H         1 MOL         0.0553
     50 H18       -36.6089    2.2452   -6.7234 H         1 MOL         0.0450
     51 H19       -36.0321    0.6152   -8.4709 H         1 MOL         0.0289
     52 H20       -35.8752    1.9145   -9.7013 H         1 MOL         0.0289
     53 H21       -38.1981    1.2450   -9.9503 H         1 MOL         0.0267
     54 H22       -38.4087    1.0203   -8.1806 H         1 MOL         0.0267
     55 H23       -34.8709    0.4041   -3.9749 H         1 MOL         0.0516
     56 H24       -35.8277    2.5675   -2.7745 H         1 MOL         0.0319
     57 H25       -34.2692    3.4158   -3.0540 H         1 MOL         0.0319
     58 H26       -32.6528    1.7717   -1.8219 H         1 MOL         0.0651
     59 H27       -30.1708    1.5675   -1.6329 H         1 MOL         0.0719
     60 H28       -28.8356    0.8194   -3.6669 H         1 MOL         0.0652
     61 H29       -30.1407    0.4183   -5.7830 H         1 MOL         0.0803
@<TRIPOS>BOND
     1    1   11 1  
     2   23    1 1  
     3    2    5 ar 
     4   21    2 ar 
     5    4    3 1  
     6    3   18 1  
     7   16    4 1  
     8    5   16 1  
     9   19    5 ar 
    10    7    6 ar 
    11    6   14 1  
    12    6   22 ar 
    13    9    7 ar 
    14    8    9 1  
    15   26    8 1  
    16   27    8 1  
    17    9   12 ar 
    18   28   10 ar 
    19   10   32 ar 
    20   25   11 1  
    21   12   13 ar 
    22   12   23 1  
    23   13   22 ar 
    24   14   20 ar 
    25   14   21 ar 
    26   16   15 2  
    27   16   17 2  
    28   20   19 ar 
    29   23   24 1  
    30   24   25 1  
    31   26   27 1  
    32   26   28 1  
    33   28   29 ar 
    34   29   30 ar 
    35   30   31 ar 
    36   31   32 ar 
    37    1   33 1  
    38    1   34 1  
    39    2   35 1  
    40    3   36 1  
    41    3   37 1  
    42    4   38 1  
    43    4   39 1  
    44    7   40 1  
    45    8   41 1  
    46   11   42 1  
    47   11   43 1  
    48   13   44 1  
    49   18   45 1  
    50   19   46 1  
    51   20   47 1  
    52   21   48 1  
    53   22   49 1  
    54   23   50 1  
    55   24   51 1  
    56   24   52 1  
    57   25   53 1  
    58   25   54 1  
    59   26   55 1  
    60   27   56 1  
    61   27   57 1  
    62   29   58 1  
    63   30   59 1  
    64   31   60 1  
    65   32   61 1  
@<TRIPOS>SUBSTRUCTURE
     1 MOL         1

