### 
### Created by X-TOOL on Wed Jan  1 15:39:37 2020
### 

@<TRIPOS>MOLECULE
5zz2_ligand
   43    48     1     0     0
SMALL
GAST_HUCK


@<TRIPOS>ATOM
      1 C4         34.1610  -30.6700  -40.7740 C.ar      1 9M0         0.1260
      2 C5         34.2800  -30.3920  -39.4130 C.ar      1 9M0         0.0933
      3 C6         33.1130  -30.3820  -38.6820 C.ar      1 9M0         0.1439
      4 C8         36.4240  -30.3460  -41.0560 C.2       1 9M0         0.1307
      5 C9         36.6520  -30.1650  -39.6940 C.2       1 9M0         0.0602
      6 C10        35.5620  -30.1440  -38.8070 C.2       1 9M0         0.1297
      7 C11        37.5340  -30.0820  -41.7390 C.2       1 9M0         0.0927
      8 C13        37.9640  -29.7650  -39.5710 C.2       1 9M0         0.1061
      9 O7         35.2550  -30.7300  -41.5950 O.3       1 9M0        -0.2748
     10 C15        38.8040  -29.3900  -38.4450 C.2       1 9M0         0.1179
     11 C1         31.8840  -30.6480  -39.2190 C.ar      1 9M0        -0.0331
     12 C2         31.8020  -30.9140  -40.5740 C.ar      1 9M0        -0.0675
     13 C3         32.9370  -30.9220  -41.3570 C.ar      1 9M0        -0.0274
     14 N12        38.4880  -29.7260  -40.8310 N.pl3     1 9M0        -0.2747
     15 O14        35.6880  -29.9610  -37.6050 O.2       1 9M0        -0.3984
     16 C16        37.6110  -30.1830  -43.2300 C.3       1 9M0         0.0292
     17 C17        37.7680  -31.6480  -43.5470 C.ar      1 9M0        -0.0502
     18 C18        38.9690  -32.2900  -43.2790 C.ar      1 9M0        -0.0378
     19 C19        39.1000  -33.6100  -43.6150 C.ar      1 9M0         0.1173
     20 C20        38.0830  -34.2980  -44.1950 C.ar      1 9M0         0.1162
     21 C21        36.8670  -33.7070  -44.4380 C.ar      1 9M0        -0.0474
     22 C22        36.7250  -32.3720  -44.1120 C.ar      1 9M0        -0.0781
     23 O23        40.1730  -34.4400  -43.4030 O.3       1 9M0        -0.2927
     24 C24        39.8170  -35.6800  -44.0030 C.3       1 9M0         0.1854
     25 O25        38.4840  -35.5800  -44.4840 O.3       1 9M0        -0.2954
     26 S26        38.2070  -29.0160  -36.8710 S.3       1 9M0        -0.0158
     27 C27        39.7670  -28.7260  -36.3600 C.2       1 9M0         0.0037
     28 C28        40.6300  -28.9150  -37.3590 C.2       1 9M0        -0.0254
     29 N29        40.0940  -29.3010  -38.5540 N.2       1 9M0        -0.3254
     30 F30        33.2010  -30.0740  -37.3880 F         1 9M0        -0.1803
     31 H1         30.9955  -30.6504  -38.5980 H         1 9M0         0.0524
     32 H2         30.8372  -31.1179  -41.0242 H         1 9M0         0.0616
     33 H3         32.8678  -31.1243  -42.4197 H         1 9M0         0.0525
     34 H4         39.4578  -29.4668  -41.0615 H         1 9M0         0.2311
     35 H5         38.4761  -29.6171  -43.6060 H         1 9M0         0.0576
     36 H6         36.6901  -29.7911  -43.6864 H         1 9M0         0.0576
     37 H7         39.7883  -31.7555  -42.8120 H         1 9M0         0.0453
     38 H8         36.0471  -34.2688  -44.8707 H         1 9M0         0.0493
     39 H9         35.7787  -31.8782  -44.3012 H         1 9M0         0.0440
     40 H10        39.8832  -36.4859  -43.2573 H         1 9M0         0.0970
     41 H11        40.4981  -35.8971  -44.8390 H         1 9M0         0.0970
     42 H12        40.0430  -28.4242  -35.3507 H         1 9M0         0.0702
     43 H13        41.7014  -28.7697  -37.2290 H         1 9M0         0.0562
@<TRIPOS>BOND
     1    1    2 ar 
     2    9    1 1  
     3    1   13 ar 
     4    2    3 ar 
     5    2    6 1  
     6    3   11 ar 
     7    3   30 1  
     8    4    5 1  
     9    4    7 2  
    10    4    9 1  
    11    5    6 1  
    12    5    8 2  
    13    6   15 2  
    14    7   14 1  
    15    7   16 1  
    16    8   10 1  
    17    8   14 1  
    18   10   26 1  
    19   10   29 2  
    20   11   12 ar 
    21   12   13 ar 
    22   16   17 1  
    23   17   18 ar 
    24   17   22 ar 
    25   18   19 ar 
    26   19   20 ar 
    27   19   23 1  
    28   20   21 ar 
    29   20   25 1  
    30   21   22 ar 
    31   23   24 1  
    32   24   25 1  
    33   26   27 1  
    34   27   28 2  
    35   28   29 1  
    36   11   31 1  
    37   12   32 1  
    38   13   33 1  
    39   14   34 1  
    40   16   35 1  
    41   16   36 1  
    42   18   37 1  
    43   21   38 1  
    44   22   39 1  
    45   24   40 1  
    46   24   41 1  
    47   27   42 1  
    48   28   43 1  
@<TRIPOS>SUBSTRUCTURE
     1 9M0         1

