### 
### Created by X-TOOL on Wed Jan  1 15:39:38 2020
### 

@<TRIPOS>MOLECULE
5zz4_ligand
   77    81     1     0     0
SMALL
GAST_HUCK


@<TRIPOS>ATOM
      1 C5         -8.0760   11.2430  272.9250 C.ar      1 9M3        -0.0758
      2 C6         -7.2880   12.3950  272.7550 C.ar      1 9M3        -0.0418
      3 C2         -9.2640   13.8270  273.2390 C.ar      1 9M3        -0.0043
      4 C4         -9.4310   11.3250  273.2450 C.ar      1 9M3        -0.0655
      5 O43        -5.8270   14.6620  274.5740 O.2       1 9M3        -0.3622
      6 C31        -6.1200   15.2470  273.5080 C.2       1 9M3         0.2497
      7 C32        -5.4840   16.5650  273.0550 C.ar      1 9M3         0.0828
      8 C37        -4.9890   17.4830  273.9850 C.ar      1 9M3        -0.0139
      9 C36        -4.4320   18.7240  273.6240 C.ar      1 9M3        -0.0356
     10 C35        -4.3750   19.1340  272.2910 C.ar      1 9M3        -0.0451
     11 C38        -3.7770   20.4810  271.9240 C.3       1 9M3        -0.0435
     12 C42        -2.4180   20.2000  271.3290 C.3       1 9M3        -0.0831
     13 C41        -4.6310   21.2970  270.9720 C.3       1 9M3        -0.0831
     14 C39        -3.5970   21.4180  273.1120 C.3       1 9M3        -0.0831
     15 C34        -4.8850   18.2260  271.3470 C.ar      1 9M3        -0.0356
     16 C33        -5.4410   16.9740  271.7190 C.ar      1 9M3        -0.0139
     17 N30        -7.0340   14.8200  272.7340 N.am      1 9M3        -0.2312
     18 C7         -7.8180   13.6740  272.9130 C.ar      1 9M3         0.0762
     19 C1         -9.8500   15.2270  273.3730 C.3       1 9M3        -0.0305
     20 C3        -10.0600   12.5580  273.4240 C.ar      1 9M3         0.0102
     21 C13       -11.5240   12.5740  273.7260 C.ar      1 9M3         0.1006
     22 N8        -12.0710   13.5780  274.4660 N.ar      1 9M3        -0.2444
     23 N12       -12.3180   11.5760  273.2150 N.ar      1 9M3        -0.2409
     24 C11       -13.6710   11.5720  273.4320 C.ar      1 9M3         0.2042
     25 N10       -14.2010   12.6010  274.1740 N.ar      1 9M3        -0.2179
     26 C9        -13.4000   13.5900  274.6920 C.ar      1 9M3         0.1813
     27 N14       -13.8970   14.6150  275.4390 N.pl3     1 9M3        -0.3008
     28 N24       -14.4970   10.5870  272.9260 N.pl3     1 9M3        -0.2366
     29 C16       -14.2040    9.4310  272.2370 C.ar      1 9M3         0.0729
     30 C21       -15.2500    8.5790  271.8310 C.ar      1 9M3        -0.0314
     31 C20       -14.9830    7.3760  271.1350 C.ar      1 9M3        -0.0510
     32 C19       -13.6560    6.9860  270.8340 C.ar      1 9M3         0.0384
     33 C18       -12.6160    7.8430  271.2270 C.ar      1 9M3        -0.0510
     34 C17       -12.8880    9.0430  271.9170 C.ar      1 9M3        -0.0314
     35 C22       -13.3180    5.7230  270.0490 C.2       1 9M3         0.1992
     36 O29       -12.4420    4.9460  270.4350 O.2       1 9M3        -0.3898
     37 N23       -13.9640    5.5250  268.8770 N.am      1 9M3        -0.2697
     38 C28       -14.9110    4.4120  268.6610 C.3       1 9M3         0.0566
     39 C27       -15.9820    4.8130  267.6150 C.3       1 9M3         0.0680
     40 O26       -16.2420    6.2280  267.6100 O.3       1 9M3        -0.3758
     41 C25       -15.0970    7.0560  267.3220 C.3       1 9M3         0.0680
     42 C24       -13.7470    6.4240  267.7210 C.3       1 9M3         0.0566
     43 H1         -7.6192   10.2674  272.8044 H         1 9M3         0.0537
     44 H2         -6.2415   12.2854  272.4944 H         1 9M3         0.0524
     45 H3        -10.0068   10.4134  273.3569 H         1 9M3         0.0525
     46 H4         -5.0364   17.2264  275.0371 H         1 9M3         0.0741
     47 H5         -4.0392   19.3747  274.3969 H         1 9M3         0.0854
     48 H6         -1.9391   21.1485  271.0444 H         1 9M3         0.0139
     49 H7         -2.5320   19.5650  270.4380 H         1 9M3         0.0139
     50 H8         -1.7928   19.6818  272.0711 H         1 9M3         0.0139
     51 H9         -5.6128   21.4861  271.4306 H         1 9M3         0.0139
     52 H10        -4.7662   20.7411  270.0325 H         1 9M3         0.0139
     53 H11        -4.1334   22.2554  270.7627 H         1 9M3         0.0139
     54 H12        -2.9828   20.9237  273.8791 H         1 9M3         0.0139
     55 H13        -4.5814   21.6671  273.5350 H         1 9M3         0.0139
     56 H14        -3.0968   22.3396  272.7797 H         1 9M3         0.0139
     57 H15        -4.8525   18.4915  270.2965 H         1 9M3         0.0854
     58 H16        -5.8405   16.3215  270.9511 H         1 9M3         0.0741
     59 H17        -7.2115   15.3595  271.9109 H         1 9M3         0.2239
     60 H18        -9.0626   15.9731  273.1905 H         1 9M3         0.0381
     61 H19       -10.2531   15.3602  274.3877 H         1 9M3         0.0381
     62 H20       -10.6573   15.3586  272.6375 H         1 9M3         0.0381
     63 H21       -13.2627   15.3371  275.8094 H         1 9M3         0.1860
     64 H22       -14.9071   14.6679  275.6335 H         1 9M3         0.1860
     65 H23       -15.5014   10.7435  273.0920 H         1 9M3         0.2226
     66 H24       -16.2756    8.8492  272.0553 H         1 9M3         0.0553
     67 H25       -15.8077    6.7433  270.8276 H         1 9M3         0.0641
     68 H26       -11.5900    7.5791  270.9972 H         1 9M3         0.0641
     69 H27       -12.0631    9.6831  272.2085 H         1 9M3         0.0553
     70 H28       -15.4064    4.1672  269.6121 H         1 9M3         0.0544
     71 H29       -14.3601    3.5321  268.2973 H         1 9M3         0.0544
     72 H30       -16.9176    4.2829  267.8465 H         1 9M3         0.0580
     73 H31       -15.6293    4.5153  266.6165 H         1 9M3         0.0580
     74 H32       -15.2097    8.0039  267.8686 H         1 9M3         0.0580
     75 H33       -15.0786    7.2562  266.2405 H         1 9M3         0.0580
     76 H34       -13.3443    5.8477  266.8750 H         1 9M3         0.0544
     77 H35       -13.0353    7.2160  267.9971 H         1 9M3         0.0544
@<TRIPOS>BOND
     1    2    1 ar 
     2    1    4 ar 
     3   18    2 ar 
     4   18    3 ar 
     5    3   19 1  
     6    3   20 ar 
     7   20    4 ar 
     8    6    5 2  
     9    6    7 1  
    10   17    6 am 
    11    7    8 ar 
    12    7   16 ar 
    13    8    9 ar 
    14    9   10 ar 
    15   10   11 1  
    16   15   10 ar 
    17   11   12 1  
    18   11   13 1  
    19   11   14 1  
    20   16   15 ar 
    21   17   18 1  
    22   20   21 1  
    23   21   22 ar 
    24   21   23 ar 
    25   22   26 ar 
    26   23   24 ar 
    27   24   25 ar 
    28   24   28 1  
    29   25   26 ar 
    30   26   27 1  
    31   28   29 1  
    32   29   30 ar 
    33   29   34 ar 
    34   30   31 ar 
    35   31   32 ar 
    36   32   33 ar 
    37   32   35 1  
    38   33   34 ar 
    39   35   36 2  
    40   35   37 am 
    41   37   38 1  
    42   37   42 1  
    43   38   39 1  
    44   39   40 1  
    45   40   41 1  
    46   41   42 1  
    47    1   43 1  
    48    2   44 1  
    49    4   45 1  
    50    8   46 1  
    51    9   47 1  
    52   12   48 1  
    53   12   49 1  
    54   12   50 1  
    55   13   51 1  
    56   13   52 1  
    57   13   53 1  
    58   14   54 1  
    59   14   55 1  
    60   14   56 1  
    61   15   57 1  
    62   16   58 1  
    63   17   59 1  
    64   19   60 1  
    65   19   61 1  
    66   19   62 1  
    67   27   63 1  
    68   27   64 1  
    69   28   65 1  
    70   30   66 1  
    71   31   67 1  
    72   33   68 1  
    73   34   69 1  
    74   38   70 1  
    75   38   71 1  
    76   39   72 1  
    77   39   73 1  
    78   41   74 1  
    79   41   75 1  
    80   42   76 1  
    81   42   77 1  
@<TRIPOS>SUBSTRUCTURE
     1 9M3         1

