### 
### Created by X-TOOL on Wed Jan  1 15:39:38 2020
### 

@<TRIPOS>MOLECULE
5zzw_ligand
   46    48     1     0     0
SMALL
GAST_HUCK


@<TRIPOS>ATOM
      1 N         -18.2070   31.9750  -12.4240 N.4       1 SAH         0.2327
      2 CA        -18.1840   32.5470  -13.7740 C.3       1 SAH         0.0291
      3 CB        -17.0360   31.9870  -14.6180 C.3       1 SAH         0.0114
      4 CG        -16.8420   30.4610  -14.4860 C.3       1 SAH         0.0005
      5 SD        -15.5640   29.9490  -15.5820 S.3       1 SAH        -0.1578
      6 C         -19.4870   32.2990  -14.4790 C.2       1 SAH         0.0844
      7 O         -19.6360   32.5980  -15.6670 O.co2     1 SAH        -0.5643
      8 OXT       -20.4390   31.7960  -13.8850 O.co2     1 SAH        -0.5643
      9 C5'       -14.2080   29.6630  -14.4780 C.3       1 SAH         0.0226
     10 C4'       -13.5550   30.9530  -13.9970 C.3       1 SAH         0.0995
     11 O4'       -12.5410   30.6380  -13.0440 O.3       1 SAH        -0.3383
     12 C3'       -12.8470   31.7460  -15.0820 C.3       1 SAH         0.1132
     13 O3'       -13.0160   33.1430  -14.7970 O.3       1 SAH        -0.3864
     14 C2'       -11.3930   31.2980  -14.9900 C.3       1 SAH         0.1385
     15 O2'       -10.4640   32.2440  -15.5020 O.3       1 SAH        -0.3836
     16 C1'       -11.2470   31.0830  -13.4950 C.3       1 SAH         0.2009
     17 N9        -10.2730   30.0400  -13.0870 N.pl3     1 SAH        -0.1919
     18 C8        -10.0970   28.8160  -13.6400 C.2       1 SAH         0.1123
     19 N7         -9.1350   28.1230  -12.9800 N.2       1 SAH        -0.2958
     20 C5         -8.6880   28.9000  -11.9810 C.ar      1 SAH         0.1045
     21 C6         -7.6750   28.7810  -10.9050 C.ar      1 SAH         0.1298
     22 N6         -6.9460   27.6470  -10.7860 N.pl3     1 SAH        -0.3152
     23 N1         -7.5160   29.8440  -10.0620 N.ar      1 SAH        -0.2698
     24 C2         -8.2490   30.9730  -10.1840 C.ar      1 SAH         0.0533
     25 N3         -9.1850   31.1500  -11.1390 N.ar      1 SAH        -0.2714
     26 C4         -9.4440   30.1670  -12.0480 C.ar      1 SAH         0.1613
     27 H1        -17.3251   32.1521  -11.9690 H         1 SAH         0.2010
     28 H2        -18.3609   30.9806  -12.4830 H         1 SAH         0.2010
     29 H3        -18.9507   32.3992  -11.8920 H         1 SAH         0.2010
     30 H4        -18.0413   33.6335  -13.6785 H         1 SAH         0.1024
     31 H5        -16.1045   32.4818  -14.3058 H         1 SAH         0.0347
     32 H6        -17.2384   32.2193  -15.6740 H         1 SAH         0.0347
     33 H7        -17.7788   29.9463  -14.7458 H         1 SAH         0.0379
     34 H8        -16.5620   30.2129  -13.4516 H         1 SAH         0.0379
     35 H9        -13.4510   29.0596  -15.0003 H         1 SAH         0.0402
     36 H10       -14.5784   29.1092  -13.6027 H         1 SAH         0.0402
     37 H11       -14.3296   31.5834  -13.5358 H         1 SAH         0.0632
     38 H12       -13.2566   31.5184  -16.0772 H         1 SAH         0.0647
     39 H13       -12.6380   33.3398  -13.9480 H         1 SAH         0.2100
     40 H14       -11.2501   30.3517  -15.5323 H         1 SAH         0.0676
     41 H15       -10.5395   33.0560  -15.0147 H         1 SAH         0.2101
     42 H16       -10.9696   32.0352  -13.0192 H         1 SAH         0.0996
     43 H17       -10.6522   28.4393  -14.4978 H         1 SAH         0.1349
     44 H18        -6.2420   27.5634  -10.0388 H         1 SAH         0.1820
     45 H19        -7.0952   26.8676  -11.4426 H         1 SAH         0.1820
     46 H20        -8.0758   31.7774   -9.4783 H         1 SAH         0.0996
@<TRIPOS>BOND
     1    1    2 1  
     2    2    3 1  
     3    2    6 1  
     4    3    4 1  
     5    4    5 1  
     6    5    9 1  
     7    6    7 ar 
     8    6    8 ar 
     9    9   10 1  
    10   10   11 1  
    11   10   12 1  
    12   11   16 1  
    13   12   13 1  
    14   12   14 1  
    15   14   15 1  
    16   14   16 1  
    17   16   17 1  
    18   17   18 1  
    19   17   26 1  
    20   18   19 2  
    21   19   20 1  
    22   20   21 ar 
    23   20   26 ar 
    24   21   22 1  
    25   21   23 ar 
    26   23   24 ar 
    27   24   25 ar 
    28   25   26 ar 
    29    1   27 1  
    30    1   28 1  
    31    1   29 1  
    32    2   30 1  
    33    3   31 1  
    34    3   32 1  
    35    4   33 1  
    36    4   34 1  
    37    9   35 1  
    38    9   36 1  
    39   10   37 1  
    40   12   38 1  
    41   13   39 1  
    42   14   40 1  
    43   15   41 1  
    44   16   42 1  
    45   18   43 1  
    46   22   44 1  
    47   22   45 1  
    48   24   46 1  
@<TRIPOS>SUBSTRUCTURE
     1 SAH         1

