### 
### Created by X-TOOL on Mon Aug  2 16:12:33 2021
### 

@<TRIPOS>MOLECULE
6a3n_ligand
   50    53     1     0     0
SMALL
GAST_HUCK


@<TRIPOS>ATOM
      1 C4        -31.4240   45.3280  -10.0570 C.cat     1 MOL         0.2116
      2 C6        -29.2930   44.6900   -9.9340 C.2       1 MOL         0.3261
      3 C7        -29.3380   44.4220   -8.5580 C.2       1 MOL         0.2156
      4 C8        -30.5850   44.6380   -7.8760 C.2       1 MOL         0.2469
      5 C12       -28.0570   43.9400   -8.2540 C.2       1 MOL         0.1294
      6 N3        -32.4800   45.8760  -10.7040 N.pl3     1 MOL        -0.2989
      7 C13       -27.4260   44.5720  -11.6880 C.3       1 MOL         0.1075
      8 C1        -33.1510   45.1730  -12.9770 C.2       1 MOL         0.2051
      9 C2        -32.5310   46.2690  -12.1020 C.3       1 MOL         0.1232
     10 N5        -30.3000   45.1420  -10.7270 N.pl3     1 MOL        -0.1862
     11 N9        -31.5870   45.0720   -8.7230 N.am      1 MOL        -0.2490
     12 N10       -28.0400   44.3900  -10.3590 N.pl3     1 MOL        -0.0686
     13 N11       -27.2730   43.9110   -9.3240 N.2       1 MOL        -0.0848
     14 O14       -34.3230   44.8800  -12.8070 O.2       1 MOL        -0.3941
     15 O15       -30.7850   44.5370   -6.6550 O.2       1 MOL        -0.3648
     16 C16       -27.0110   43.2690  -12.3710 C.3       1 MOL        -0.0186
     17 C17       -25.8250   43.6540  -13.2650 C.3       1 MOL        -0.0500
     18 C18       -25.5340   45.1300  -13.0100 C.3       1 MOL        -0.0500
     19 C19       -26.1650   45.4350  -11.6820 C.3       1 MOL        -0.0186
     20 C20       -33.3440   47.5480  -12.2670 C.3       1 MOL        -0.0234
     21 N21       -32.4180   44.6290  -13.9740 N.am      1 MOL        -0.2683
     22 C22       -32.9810   43.7080  -14.9650 C.3       1 MOL         0.0367
     23 C23       -31.7630   42.9560  -15.4820 C.3       1 MOL         0.0007
     24 C24       -30.6210   43.9120  -15.3650 C.3       1 MOL         0.1230
     25 C25       -30.9980   44.8410  -14.2570 C.3       1 MOL         0.0651
     26 F26       -29.4710   43.1910  -14.9670 F         1 MOL        -0.2433
     27 H1        -27.7432   43.6270   -7.2592 H         1 MOL         0.1024
     28 H2        -33.3337   46.0298  -10.1487 H         1 MOL         0.1842
     29 H3        -28.1808   45.0668  -12.3168 H         1 MOL         0.0693
     30 H4        -31.5029   46.4540  -12.4465 H         1 MOL         0.0812
     31 H5        -30.1986   45.3196  -11.7365 H         1 MOL         0.2559
     32 H6        -32.4974   45.2089   -8.3324 H         1 MOL         0.1818
     33 H7        -27.8378   42.8684  -12.9759 H         1 MOL         0.0297
     34 H8        -26.7064   42.5205  -11.6247 H         1 MOL         0.0297
     35 H9        -26.0829   43.4972  -14.3228 H         1 MOL         0.0266
     36 H10       -24.9452   43.0458  -13.0080 H         1 MOL         0.0266
     37 H11       -25.9792   45.7525  -13.8001 H         1 MOL         0.0266
     38 H12       -24.4492   45.3076  -12.9708 H         1 MOL         0.0266
     39 H13       -25.4978   45.1528  -10.8542 H         1 MOL         0.0297
     40 H14       -26.4180   46.5025  -11.6014 H         1 MOL         0.0297
     41 H15       -33.3719   47.8302  -13.3298 H         1 MOL         0.0278
     42 H16       -32.8776   48.3566  -11.6851 H         1 MOL         0.0278
     43 H17       -34.3691   47.3801  -11.9052 H         1 MOL         0.0278
     44 H18       -33.4768   44.2594  -15.7774 H         1 MOL         0.0523
     45 H19       -33.6997   43.0187  -14.4977 H         1 MOL         0.0523
     46 H20       -31.9107   42.6610  -16.5313 H         1 MOL         0.0313
     47 H21       -31.5775   42.0598  -14.8718 H         1 MOL         0.0313
     48 H22       -30.4438   44.4515  -16.3071 H         1 MOL         0.0672
     49 H23       -30.3989   44.6208  -13.3612 H         1 MOL         0.0551
     50 H24       -30.8273   45.8830  -14.5653 H         1 MOL         0.0551
@<TRIPOS>BOND
     1    1    6 ar 
     2   10    1 ar 
     3    1   11 ar 
     4    2    3 2  
     5    2   10 1  
     6    2   12 1  
     7    3    4 1  
     8    3    5 1  
     9    4   11 am 
    10    4   15 2  
    11    5   13 2  
    12    6    9 1  
    13   12    7 1  
    14    7   16 1  
    15    7   19 1  
    16    9    8 1  
    17    8   14 2  
    18    8   21 am 
    19    9   20 1  
    20   12   13 1  
    21   16   17 1  
    22   17   18 1  
    23   18   19 1  
    24   21   22 1  
    25   21   25 1  
    26   22   23 1  
    27   23   24 1  
    28   24   25 1  
    29   24   26 1  
    30    5   27 1  
    31    6   28 1  
    32    7   29 1  
    33    9   30 1  
    34   10   31 1  
    35   11   32 1  
    36   16   33 1  
    37   16   34 1  
    38   17   35 1  
    39   17   36 1  
    40   18   37 1  
    41   18   38 1  
    42   19   39 1  
    43   19   40 1  
    44   20   41 1  
    45   20   42 1  
    46   20   43 1  
    47   22   44 1  
    48   22   45 1  
    49   23   46 1  
    50   23   47 1  
    51   24   48 1  
    52   25   49 1  
    53   25   50 1  
@<TRIPOS>SUBSTRUCTURE
     1 MOL         1

