### 
### Created by X-TOOL on Mon Aug  2 16:12:33 2021
### 

@<TRIPOS>MOLECULE
6a6k_ligand
   71    74     1     0     0
SMALL
GAST_HUCK


@<TRIPOS>ATOM
      1 C12        68.1880   -2.6500  149.9670 C.ar      1 MOL        -0.0684
      2 C13        68.1050   -3.4110  148.8050 C.ar      1 MOL        -0.0387
      3 C14        68.5580   -4.7440  148.7760 C.ar      1 MOL        -0.0684
      4 C17        68.2790   -1.3120  147.2510 C.ar      1 MOL        -0.0384
      5 C18        69.6770   -1.2350  147.1350 C.ar      1 MOL        -0.0319
      6 C22        67.5480   -0.1260  147.1180 C.ar      1 MOL        -0.0701
      7 C24        66.5760   -3.2330  146.7980 C.2       1 MOL        -0.0268
      8 C25        66.1210   -2.3630  145.5650 C.3       1 MOL        -0.0143
      9 C26        64.9400   -2.8500  144.7170 C.3       1 MOL        -0.0188
     10 C27        64.3090   -1.5860  144.0880 C.3       1 MOL         0.0463
     11 C29        65.8750   -4.6020  147.1220 C.ar      1 MOL        -0.0160
     12 C30        66.2220   -5.8140  146.4120 C.ar      1 MOL        -0.0534
     13 C31        65.5970   -7.0940  146.6900 C.ar      1 MOL        -0.0611
     14 C32        64.6470   -7.0070  147.6890 C.ar      1 MOL        -0.0618
     15 C34        64.8460   -4.7090  148.1360 C.ar      1 MOL        -0.0534
     16 C01        72.2750   -5.9930  156.7500 C.3       1 MOL        -0.0218
     17 C02        71.3330   -6.7930  155.7940 C.3       1 MOL        -0.0265
     18 C03        71.8130   -8.2700  155.7620 C.3       1 MOL        -0.0218
     19 C05        70.7780   -4.9350  154.6300 C.3       1 MOL        -0.0114
     20 C06        70.3440   -4.2780  153.3220 C.3       1 MOL         0.0672
     21 C08        70.5330   -6.3520  152.2480 C.3       1 MOL         0.0672
     22 C09        70.7920   -7.0440  153.5870 C.3       1 MOL        -0.0114
     23 C10        69.1710   -4.5620  151.0920 C.ar      1 MOL         0.0405
     24 C11        68.7230   -3.2360  151.1220 C.ar      1 MOL        -0.0447
     25 C15        69.1030   -5.3320  149.9230 C.ar      1 MOL        -0.0447
     26 C16        67.5600   -2.7090  147.5640 C.2       1 MOL        -0.0221
     27 C19        70.2880    0.0020  146.8670 C.ar      1 MOL         0.0841
     28 C20        69.5380    1.1670  146.7270 C.ar      1 MOL        -0.0364
     29 C21        68.1670    1.1110  146.8510 C.ar      1 MOL        -0.0732
     30 C33        64.1790   -5.9560  148.4640 C.ar      1 MOL        -0.0611
     31 N04        71.2990   -6.2240  154.5810 N.4       1 MOL         0.2398
     32 N07        69.7310   -5.1570  152.3520 N.pl3     1 MOL        -0.2986
     33 O23        71.6760    0.1250  146.7390 O.3       1 MOL        -0.3342
     34 O28        64.0880   -1.8340  142.7190 O.3       1 MOL        -0.3948
     35 H1         67.8448   -1.6218  149.9785 H         1 MOL         0.0569
     36 H2         68.4841   -5.3182  147.8595 H         1 MOL         0.0569
     37 H3         70.2823   -2.1266  147.2518 H         1 MOL         0.0508
     38 H4         66.4697   -0.1604  147.2239 H         1 MOL         0.0503
     39 H5         66.9876   -2.2750  144.8932 H         1 MOL         0.0448
     40 H6         65.8539   -1.3683  145.9513 H         1 MOL         0.0448
     41 H7         64.2046   -3.3685  145.3497 H         1 MOL         0.0313
     42 H8         65.2921   -3.5324  143.9294 H         1 MOL         0.0313
     43 H9         64.9922   -0.7319  144.2053 H         1 MOL         0.0559
     44 H10        63.3531   -1.3617  144.5840 H         1 MOL         0.0559
     45 H11        66.9810   -5.7639  145.6397 H         1 MOL         0.0626
     46 H12        65.8471   -8.0132  146.1728 H         1 MOL         0.0617
     47 H13        64.1694   -7.9539  147.9133 H         1 MOL         0.0617
     48 H14        64.5600   -3.8139  148.6764 H         1 MOL         0.0626
     49 H15        72.2892   -6.4751  157.7386 H         1 MOL         0.0284
     50 H16        71.9056   -4.9617  156.8503 H         1 MOL         0.0284
     51 H17        73.2933   -5.9790  156.3342 H         1 MOL         0.0284
     52 H18        70.3124   -6.7715  156.2038 H         1 MOL         0.0846
     53 H19        71.1622   -8.8526  155.0933 H         1 MOL         0.0284
     54 H20        71.7681   -8.6922  156.7767 H         1 MOL         0.0284
     55 H21        72.8485   -8.3111  155.3932 H         1 MOL         0.0284
     56 H22        69.8964   -4.9652  155.2872 H         1 MOL         0.0834
     57 H23        71.5478   -4.2898  155.0785 H         1 MOL         0.0834
     58 H24        71.2346   -3.8303  152.8569 H         1 MOL         0.0568
     59 H25        69.6202   -3.4863  153.5654 H         1 MOL         0.0568
     60 H26        70.0135   -7.0610  151.5866 H         1 MOL         0.0568
     61 H27        71.5027   -6.0806  151.8053 H         1 MOL         0.0568
     62 H28        71.5114   -7.8585  153.4167 H         1 MOL         0.0834
     63 H29        69.8401   -7.4641  153.9438 H         1 MOL         0.0834
     64 H30        68.7900   -2.6622  152.0393 H         1 MOL         0.0518
     65 H31        69.4625   -6.3545  149.9077 H         1 MOL         0.0518
     66 H32        70.0294    2.1112  146.5219 H         1 MOL         0.0519
     67 H33        67.5705    2.0098  146.7442 H         1 MOL         0.0582
     68 H34        63.4098   -6.0538  149.2215 H         1 MOL         0.0617
     69 H35        72.2660   -6.0973  154.3262 H         1 MOL         0.2037
     70 H36        72.0801   -0.7273  146.8526 H         1 MOL         0.2478
     71 H37        64.9158   -2.0296  142.2961 H         1 MOL         0.2094
@<TRIPOS>BOND
     1    1    2 ar 
     2   24    1 ar 
     3    3    2 ar 
     4    2   26 1  
     5   25    3 ar 
     6    4    5 ar 
     7    4    6 ar 
     8   26    4 1  
     9    5   27 ar 
    10    6   29 ar 
    11    7    8 1  
    12    7   11 1  
    13   26    7 2  
    14    8    9 1  
    15    9   10 1  
    16   10   34 1  
    17   11   12 ar 
    18   11   15 ar 
    19   12   13 ar 
    20   13   14 ar 
    21   30   14 ar 
    22   15   30 ar 
    23   17   16 1  
    24   17   18 1  
    25   31   17 1  
    26   20   19 1  
    27   19   31 1  
    28   32   20 1  
    29   21   22 1  
    30   32   21 1  
    31   22   31 1  
    32   23   24 ar 
    33   23   25 ar 
    34   23   32 1  
    35   27   28 ar 
    36   27   33 1  
    37   28   29 ar 
    38    1   35 1  
    39    3   36 1  
    40    5   37 1  
    41    6   38 1  
    42    8   39 1  
    43    8   40 1  
    44    9   41 1  
    45    9   42 1  
    46   10   43 1  
    47   10   44 1  
    48   12   45 1  
    49   13   46 1  
    50   14   47 1  
    51   15   48 1  
    52   16   49 1  
    53   16   50 1  
    54   16   51 1  
    55   17   52 1  
    56   18   53 1  
    57   18   54 1  
    58   18   55 1  
    59   19   56 1  
    60   19   57 1  
    61   20   58 1  
    62   20   59 1  
    63   21   60 1  
    64   21   61 1  
    65   22   62 1  
    66   22   63 1  
    67   24   64 1  
    68   25   65 1  
    69   28   66 1  
    70   29   67 1  
    71   30   68 1  
    72   31   69 1  
    73   33   70 1  
    74   34   71 1  
@<TRIPOS>SUBSTRUCTURE
     1 MOL         1

