### 
### Created by X-TOOL on Mon Aug  2 16:17:10 2021
### 

@<TRIPOS>MOLECULE
6a80_ligand
   14    13     1     0     0
SMALL
GAST_HUCK


@<TRIPOS>ATOM
      1 N          22.4100  -21.2700  -13.2560 N.4       1 CYS         0.2333
      2 CA         22.5130  -19.9000  -12.9120 C.3       1 CYS         0.0372
      3 C          23.7910  -19.4010  -13.3580 C.2       1 CYS         0.0852
      4 O          23.9760  -18.2570  -13.7860 O.co2     1 CYS        -0.5642
      5 CB         22.5610  -19.7950  -11.3940 C.3       1 CYS         0.0457
      6 SG         24.1570  -20.3200  -10.7270 S.3       1 CYS        -0.1708
      7 OXT        24.6320  -20.2550  -13.0610 O.co2     1 CYS        -0.5642
      8 H1         21.5193  -21.6277  -12.9480 H         1 CYS         0.2010
      9 H2         23.1519  -21.7854  -12.8088 H         1 CYS         0.2010
     10 H3         22.4854  -21.3720  -14.2560 H         1 CYS         0.2010
     11 H4         21.6793  -19.3218  -13.3368 H         1 CYS         0.1032
     12 H5         21.7718  -20.4327  -10.9691 H         1 CYS         0.0448
     13 H6         22.3825  -18.7488  -11.1049 H         1 CYS         0.0448
     14 H7         24.8865  -19.7368  -11.1061 H         1 CYS         0.1019
@<TRIPOS>BOND
     1    1    2 1  
     2    2    3 1  
     3    2    5 1  
     4    3    4 ar 
     5    3    7 ar 
     6    5    6 1  
     7    1    8 1  
     8    1    9 1  
     9    1   10 1  
    10    2   11 1  
    11    5   12 1  
    12    5   13 1  
    13    6   14 1  
@<TRIPOS>SUBSTRUCTURE
     1 CYS         1

