### 
### Created by X-TOOL on Mon Aug  2 16:12:33 2021
### 

@<TRIPOS>MOLECULE
6a84_ligand
   50    54     1     0     0
SMALL
GAST_HUCK


@<TRIPOS>ATOM
      1 C10         2.3890  -11.8920   -7.2460 C.3       1 MOL        -0.0232
      2 C11         2.1430  -12.5190   -5.9090 C.ar      1 MOL        -0.0154
      3 C12         1.8150  -13.7790   -5.5480 C.ar      1 MOL         0.0545
      4 C14         1.6420  -14.2520   -4.2420 C.ar      1 MOL        -0.0314
      5 C15         1.8800  -13.2930   -3.2200 C.ar      1 MOL        -0.0447
      6 C01         3.7460  -12.7660  -15.8840 C.3       1 MOL         0.0453
      7 C02         3.4800  -12.5200  -14.4070 C.2       1 MOL         0.1844
      8 C03         2.0980  -12.3900  -13.9380 C.2       1 MOL         0.2751
      9 C06         3.0920  -12.0450  -11.6960 C.cat     1 MOL         0.2071
     10 C08         3.8850  -11.6470   -9.3040 C.3       1 MOL         0.0180
     11 C09         3.6290  -12.3380   -7.9690 C.3       1 MOL        -0.0564
     12 C16         2.2630  -11.9510   -3.5360 C.ar      1 MOL        -0.0112
     13 C17         2.4060  -11.5860   -4.9030 C.ar      1 MOL         0.0702
     14 C19         2.7410  -10.4350   -6.9230 C.3       1 MOL         0.0081
     15 C20         1.2530  -12.1430   -8.2000 C.3       1 MOL        -0.0564
     16 C21         1.4200  -11.5970   -9.6390 C.3       1 MOL         0.0180
     17 C23         4.4940  -12.4010  -13.5320 C.2       1 MOL         0.1981
     18 C24         6.0040  -12.5350  -14.0270 C.3       1 MOL         0.0670
     19 C25         6.1630  -13.0390  -15.4400 C.3       1 MOL        -0.0185
     20 C26         5.1390  -12.3720  -16.3260 C.3       1 MOL        -0.0216
     21 N05         1.8700  -12.1490  -12.5080 N.am      1 MOL        -0.2439
     22 N07         2.7930  -11.8000  -10.2810 N.pl3     1 MOL        -0.3086
     23 N18         2.7650  -10.3290   -5.4270 N.pl3     1 MOL        -0.3106
     24 N22         4.2700  -12.1530  -12.1770 N.pl3     1 MOL        -0.2106
     25 O04         1.0480  -12.4770  -14.6320 O.2       1 MOL        -0.3459
     26 CL1         1.5310  -14.9770   -6.8910 Cl        1 MOL        -0.0493
     27 H1          1.3486  -15.2730   -4.0261 H         1 MOL         0.0612
     28 H2          1.7692  -13.5839   -2.1816 H         1 MOL         0.0810
     29 H3          3.0186  -12.1844  -16.4693 H         1 MOL         0.0704
     30 H4          3.6074  -13.8380  -16.0879 H         1 MOL         0.0704
     31 H5          4.8013  -12.0699   -9.7415 H         1 MOL         0.0524
     32 H6          4.0308  -10.5733   -9.1146 H         1 MOL         0.0524
     33 H7          3.5441  -13.4187   -8.1558 H         1 MOL         0.0169
     34 H8          4.4923  -12.1456   -7.3150 H         1 MOL         0.0169
     35 H9          2.4406  -11.2270   -2.7490 H         1 MOL         0.0603
     36 H10         1.9811   -9.7581   -7.3405 H         1 MOL         0.0416
     37 H11         3.7271  -10.1803   -7.3386 H         1 MOL         0.0416
     38 H12         0.3502  -11.6831   -7.7717 H         1 MOL         0.0169
     39 H13         1.1116  -13.2316   -8.2709 H         1 MOL         0.0169
     40 H14         1.2174  -10.5161   -9.6139 H         1 MOL         0.0524
     41 H15         0.6743  -12.0951  -10.2760 H         1 MOL         0.0524
     42 H16         6.5243  -13.2325  -13.3541 H         1 MOL         0.0721
     43 H17         6.4749  -11.5430  -13.9623 H         1 MOL         0.0721
     44 H18         6.0127  -14.1285  -15.4606 H         1 MOL         0.0325
     45 H19         7.1737  -12.8013  -15.8033 H         1 MOL         0.0325
     46 H20         5.2499  -11.2800  -16.2545 H         1 MOL         0.0329
     47 H21         5.2952  -12.6890  -17.3677 H         1 MOL         0.0329
     48 H22         0.9541  -12.0622  -12.1160 H         1 MOL         0.1822
     49 H23         3.0015   -9.4882   -4.8811 H         1 MOL         0.1911
     50 H24         5.0785  -12.0542  -11.5465 H         1 MOL         0.2495
@<TRIPOS>BOND
     1    1    2 1  
     2   11    1 1  
     3    1   14 1  
     4    1   15 1  
     5    2    3 ar 
     6    2   13 ar 
     7    3    4 ar 
     8    3   26 1  
     9    4    5 ar 
    10    5   12 ar 
    11    7    6 1  
    12    6   20 1  
    13    8    7 1  
    14    7   17 2  
    15   21    8 am 
    16    8   25 2  
    17    9   21 ar 
    18   22    9 ar 
    19    9   24 ar 
    20   10   11 1  
    21   10   22 1  
    22   12   13 ar 
    23   13   23 1  
    24   14   23 1  
    25   15   16 1  
    26   16   22 1  
    27   17   18 1  
    28   17   24 1  
    29   18   19 1  
    30   19   20 1  
    31    4   27 1  
    32    5   28 1  
    33    6   29 1  
    34    6   30 1  
    35   10   31 1  
    36   10   32 1  
    37   11   33 1  
    38   11   34 1  
    39   12   35 1  
    40   14   36 1  
    41   14   37 1  
    42   15   38 1  
    43   15   39 1  
    44   16   40 1  
    45   16   41 1  
    46   18   42 1  
    47   18   43 1  
    48   19   44 1  
    49   19   45 1  
    50   20   46 1  
    51   20   47 1  
    52   21   48 1  
    53   23   49 1  
    54   24   50 1  
@<TRIPOS>SUBSTRUCTURE
     1 MOL         1

