### 
### Created by X-TOOL on Mon Aug  2 16:12:34 2021
### 

@<TRIPOS>MOLECULE
6a87_ligand
   53    54     1     0     0
SMALL
GAST_HUCK


@<TRIPOS>ATOM
      1 C1        -22.1210   41.2710    7.5820 C.3       1 NAG         0.1298
      2 C2        -22.4910   42.4900    6.7050 C.3       1 NAG         0.1057
      3 C3        -23.3090   41.9650    5.5030 C.3       1 NAG         0.1095
      4 C4        -22.5220   40.9000    4.7470 C.3       1 NAG         0.1115
      5 C5        -22.0720   39.7950    5.7400 C.3       1 NAG         0.1118
      6 C6        -21.1870   38.6960    5.1560 C.3       1 NAG         0.0795
      7 C7        -22.7660   44.7880    7.6420 C.2       1 NAG         0.1733
      8 C8        -23.7350   45.6960    8.3880 C.3       1 NAG         0.0257
      9 N2        -23.2290   43.5380    7.4120 N.am      1 NAG        -0.2782
     10 O3        -23.7920   42.9410    4.5630 O.3       1 NAG        -0.3867
     11 O4        -23.3890   40.4010    3.6910 O.3       1 NAG        -0.3865
     12 O5        -21.3500   40.3110    6.8590 O.3       1 NAG        -0.3556
     13 O6        -19.8860   39.2130    4.8770 O.3       1 NAG        -0.3461
     14 O7        -21.6430   45.1800    7.2770 O.2       1 NAG        -0.3974
     15 C1        -19.7090   39.3500    3.4500 C.3       1 NAG         0.1879
     16 C2        -18.4410   40.1680    3.2660 C.3       1 NAG         0.1341
     17 C3        -17.2070   39.3500    3.6560 C.3       1 NAG         0.1140
     18 C4        -17.2030   38.0490    2.8670 C.3       1 NAG         0.1095
     19 C5        -18.5050   37.3170    3.1710 C.3       1 NAG         0.0873
     20 C6        -18.4970   35.9820    2.4700 C.3       1 NAG        -0.0361
     21 O2        -18.5250   41.3220    4.1080 O.3       1 NAG        -0.3841
     22 O3        -16.0050   40.0640    3.3740 O.3       1 NAG        -0.3864
     23 O4        -17.0620   38.3240    1.4620 O.3       1 NAG        -0.3866
     24 O5        -19.6400   38.0930    2.7540 O.3       1 NAG        -0.3431
     25 C         -21.0640   39.7770    9.7170 C.3       1 NAG        -0.0156
     26 S         -21.3990   41.4890    9.2400 S.3       1 NAG        -0.1308
     27 H1        -23.0916   40.7913    7.7762 H         1 NAG         0.0737
     28 H2        -21.5583   42.9376    6.3313 H         1 NAG         0.0617
     29 H3        -24.1994   41.4808    5.9304 H         1 NAG         0.0644
     30 H4        -21.6265   41.3496    4.2933 H         1 NAG         0.0647
     31 H5        -22.9925   39.3212    6.1118 H         1 NAG         0.0646
     32 H6        -21.6376   38.3219    4.2249 H         1 NAG         0.0587
     33 H7        -21.1039   37.8721    5.8800 H         1 NAG         0.0587
     34 H8        -23.2756   46.6855    8.5289 H         1 NAG         0.0467
     35 H9        -23.9676   45.2567    9.3693 H         1 NAG         0.0467
     36 H10       -24.6615   45.8016    7.8046 H         1 NAG         0.0467
     37 H11       -24.1430   43.3132    7.7499 H         1 NAG         0.1856
     38 H12       -23.0549   43.3413    4.1170 H         1 NAG         0.2100
     39 H13       -23.6313   41.1178    3.1166 H         1 NAG         0.2100
     40 H14       -20.5621   39.9105    3.0401 H         1 NAG         0.0937
     41 H15       -18.3541   40.4792    2.2145 H         1 NAG         0.0671
     42 H16       -17.2492   39.1271    4.7323 H         1 NAG         0.0648
     43 H17       -16.3557   37.4267    3.1907 H         1 NAG         0.0646
     44 H18       -18.5736   37.1504    4.2561 H         1 NAG         0.0621
     45 H19       -19.4347   35.4489    2.6859 H         1 NAG         0.0255
     46 H20       -17.6452   35.3850    2.8278 H         1 NAG         0.0255
     47 H21       -18.4054   36.1381    1.3850 H         1 NAG         0.0255
     48 H22       -18.5974   41.0467    5.0143 H         1 NAG         0.2101
     49 H23       -15.9603   40.2517    2.4438 H         1 NAG         0.2100
     50 H24       -16.2421   38.7793    1.3103 H         1 NAG         0.2100
     51 H25       -20.6158   39.7572   10.7213 H         1 NAG         0.0341
     52 H26       -20.3674   39.3250    8.9957 H         1 NAG         0.0341
     53 H27       -22.0051   39.2075    9.7243 H         1 NAG         0.0341
@<TRIPOS>BOND
     1    2    1 1  
     2    1   12 1  
     3    1   26 1  
     4    2    3 1  
     5    9    2 1  
     6    3    4 1  
     7    3   10 1  
     8    4    5 1  
     9    4   11 1  
    10    5    6 1  
    11   12    5 1  
    12    6   13 1  
    13    7    8 1  
    14    7    9 am 
    15    7   14 2  
    16   13   15 1  
    17   15   16 1  
    18   15   24 1  
    19   16   17 1  
    20   16   21 1  
    21   17   18 1  
    22   17   22 1  
    23   18   19 1  
    24   18   23 1  
    25   19   20 1  
    26   19   24 1  
    27   26   25 1  
    28    1   27 1  
    29    2   28 1  
    30    3   29 1  
    31    4   30 1  
    32    5   31 1  
    33    6   32 1  
    34    6   33 1  
    35    8   34 1  
    36    8   35 1  
    37    8   36 1  
    38    9   37 1  
    39   10   38 1  
    40   11   39 1  
    41   15   40 1  
    42   16   41 1  
    43   17   42 1  
    44   18   43 1  
    45   19   44 1  
    46   20   45 1  
    47   20   46 1  
    48   20   47 1  
    49   21   48 1  
    50   22   49 1  
    51   23   50 1  
    52   25   51 1  
    53   25   52 1  
    54   25   53 1  
@<TRIPOS>SUBSTRUCTURE
     1 NAG         1

