### 
### Created by X-TOOL on Mon Aug  2 16:10:31 2021
### 

@<TRIPOS>MOLECULE
6a93_ligand
   58    62     1     0     0
SMALL
GAST_HUCK


@<TRIPOS>ATOM
      1 C01        10.8750    1.4190   64.6530 C.3       1 MOL        -0.0271
      2 C02        10.0800    0.2610   63.7990 C.2       1 MOL        -0.0133
      3 C03        10.3740    0.0030   62.5010 C.2       1 MOL         0.0197
      4 C04        11.4700    0.7270   61.6580 C.3       1 MOL         0.0104
      5 C05        12.8300    0.0680   61.8460 C.3       1 MOL        -0.0280
      6 C07        15.1460    0.2650   61.4670 C.3       1 MOL        -0.0298
      7 C08        16.3220    0.4130   60.4880 C.3       1 MOL         0.0001
      8 C09        16.0830   -0.3110   59.1370 C.3       1 MOL         0.0116
      9 C10        14.7150    0.1020   58.5670 C.3       1 MOL         0.0001
     10 C11        13.5600    0.0200   59.5630 C.3       1 MOL        -0.0298
     11 C12        17.1410   -0.0710   58.0390 C.2       1 MOL         0.0510
     12 C15        19.1000   -0.1510   56.7940 C.ar      1 MOL         0.1514
     13 C16        18.5100   -0.6800   57.9630 C.ar      1 MOL         0.0257
     14 C17        19.2850   -1.5900   58.7420 C.ar      1 MOL        -0.0616
     15 C18        20.5830   -1.9640   58.3730 C.ar      1 MOL        -0.0363
     16 C19        21.1610   -1.4150   57.1770 C.ar      1 MOL         0.1263
     17 C21        20.4310   -0.5050   56.3770 C.ar      1 MOL         0.0091
     18 C22         9.6250   -1.0970   61.6990 C.2       1 MOL         0.2038
     19 C25         7.6810   -3.0120   61.7640 C.3       1 MOL         0.0711
     20 C26         7.0730   -4.0500   62.7310 C.3       1 MOL        -0.0209
     21 C27         6.2580   -3.3280   63.7790 C.3       1 MOL        -0.0305
     22 C28         7.1480   -2.3410   64.5610 C.3       1 MOL         0.0383
     23 C29         8.3460   -1.4600   63.8190 C.2       1 MOL         0.1471
     24 F20        22.3840   -1.7800   56.8470 F         1 MOL        -0.1863
     25 N06        13.8330    0.6560   60.8930 N.4       1 MOL         0.2363
     26 N13        17.0180    0.7350   56.9740 N.2       1 MOL        -0.1526
     27 N24         8.5350   -1.8620   62.4550 N.am      1 MOL        -0.1867
     28 N30         9.0170   -0.5180   64.4590 N.2       1 MOL        -0.3053
     29 O14        18.1460    0.7090   56.2220 O.3       1 MOL        -0.1811
     30 O23         9.8410   -1.3830   60.5280 O.2       1 MOL        -0.4173
     31 H1         10.4771    1.4569   65.6778 H         1 MOL         0.0406
     32 H2         10.7318    2.3957   64.1677 H         1 MOL         0.0406
     33 H3         11.9481    1.1792   64.6850 H         1 MOL         0.0406
     34 H4         11.5328    1.7779   61.9768 H         1 MOL         0.0397
     35 H5         11.1931    0.6824   60.5944 H         1 MOL         0.0397
     36 H6         12.7391   -1.0116   61.6560 H         1 MOL         0.0829
     37 H7         13.1722    0.2311   62.8786 H         1 MOL         0.0829
     38 H8         15.3433    0.8990   62.3440 H         1 MOL         0.0816
     39 H9         15.0871   -0.7875   61.7812 H         1 MOL         0.0816
     40 H10        17.2232   -0.0090   60.9568 H         1 MOL         0.0340
     41 H11        16.4792    1.4833   60.2887 H         1 MOL         0.0340
     42 H12        16.0669   -1.3905   59.3479 H         1 MOL         0.0459
     43 H13        14.4835   -0.5582   57.7182 H         1 MOL         0.0340
     44 H14        14.7901    1.1410   58.2136 H         1 MOL         0.0340
     45 H15        13.3283   -1.0419   59.7322 H         1 MOL         0.0816
     46 H16        12.6871    0.5193   59.1173 H         1 MOL         0.0816
     47 H17        18.8560   -2.0045   59.6471 H         1 MOL         0.0594
     48 H18        21.1463   -2.6606   58.9833 H         1 MOL         0.0536
     49 H19        20.8622   -0.0860   55.4750 H         1 MOL         0.0553
     50 H20         6.8566   -2.5381   61.2110 H         1 MOL         0.0633
     51 H21         8.3359   -3.5457   61.0596 H         1 MOL         0.0633
     52 H22         7.8798   -4.6175   63.2177 H         1 MOL         0.0295
     53 H23         6.4251   -4.7405   62.1711 H         1 MOL         0.0295
     54 H24         5.8309   -4.0631   64.4770 H         1 MOL         0.0300
     55 H25         5.4450   -2.7731   63.2881 H         1 MOL         0.0300
     56 H26         7.6410   -2.9286   65.3494 H         1 MOL         0.0559
     57 H27         6.4671   -1.6094   65.0204 H         1 MOL         0.0559
     58 H28        13.7554    1.6588   60.8263 H         1 MOL         0.2035
@<TRIPOS>BOND
     1    2    1 1  
     2    3    2 2  
     3    2   28 1  
     4    3    4 1  
     5   18    3 1  
     6    4    5 1  
     7    5   25 1  
     8    6    7 1  
     9   25    6 1  
    10    7    8 1  
    11    9    8 1  
    12    8   11 1  
    13   10    9 1  
    14   25   10 1  
    15   11   13 1  
    16   11   26 2  
    17   13   12 ar 
    18   12   17 ar 
    19   12   29 1  
    20   13   14 ar 
    21   14   15 ar 
    22   15   16 ar 
    23   17   16 ar 
    24   16   24 1  
    25   27   18 am 
    26   18   30 2  
    27   19   20 1  
    28   19   27 1  
    29   20   21 1  
    30   21   22 1  
    31   22   23 1  
    32   23   27 1  
    33   23   28 2  
    34   26   29 1  
    35    1   31 1  
    36    1   32 1  
    37    1   33 1  
    38    4   34 1  
    39    4   35 1  
    40    5   36 1  
    41    5   37 1  
    42    6   38 1  
    43    6   39 1  
    44    7   40 1  
    45    7   41 1  
    46    8   42 1  
    47    9   43 1  
    48    9   44 1  
    49   10   45 1  
    50   10   46 1  
    51   14   47 1  
    52   15   48 1  
    53   17   49 1  
    54   19   50 1  
    55   19   51 1  
    56   20   52 1  
    57   20   53 1  
    58   21   54 1  
    59   21   55 1  
    60   22   56 1  
    61   22   57 1  
    62   25   58 1  
@<TRIPOS>SUBSTRUCTURE
     1 MOL         1

