### 
### Created by X-TOOL on Mon Aug  2 16:10:31 2021
### 

@<TRIPOS>MOLECULE
6a94_ligand
   41    43     1     0     0
SMALL
GAST_HUCK


@<TRIPOS>ATOM
      1 C1         14.0110   -1.9420   54.5620 C.ar      1 ZOT         0.0357
      2 C10        18.4130   -1.1980   57.5500 C.ar      1 ZOT        -0.0295
      3 C11        18.8740   -0.7830   56.3070 C.ar      1 ZOT         0.0286
      4 C12        16.4640   -0.7290   55.0270 C.ar      1 ZOT         0.0441
      5 C13        16.0090   -0.9080   53.7240 C.ar      1 ZOT        -0.0438
      6 C14        14.7870   -1.5260   53.4900 C.ar      1 ZOT        -0.0519
      7 C15        20.2030   -0.9970   55.9510 C.ar      1 ZOT        -0.0540
      8 C16        21.0600   -1.6680   56.8170 C.ar      1 ZOT        -0.0745
      9 C17        20.5910   -2.1120   58.0500 C.ar      1 ZOT        -0.0758
     10 C18        19.2680   -1.8780   58.4110 C.ar      1 ZOT        -0.0701
     11 C2         14.4470   -1.7370   55.8580 C.ar      1 ZOT        -0.0392
     12 C3         15.6650   -1.1200   56.0950 C.ar      1 ZOT         0.0349
     13 C4         15.9040   -1.0530   57.4630 C.2       1 ZOT         0.1008
     14 C5         14.8600   -0.0420   59.2400 C.3       1 ZOT         0.1131
     15 C6         13.6020    0.8250   59.2030 C.3       1 ZOT        -0.0033
     16 C7         11.8540    1.8460   60.4840 C.3       1 ZOT        -0.0433
     17 C8         12.7960   -0.2780   61.1630 C.3       1 ZOT        -0.0433
     18 C9         17.1410   -1.1050   58.1050 C.2       1 ZOT        -0.0395
     19 N1         13.0790    1.0340   60.5570 N.4       1 ZOT         0.2329
     20 O1         14.7650   -1.0240   58.2100 O.3       1 ZOT        -0.3071
     21 S1         18.0230    0.0930   55.0460 S.3       1 ZOT        -0.0447
     22 CL1        12.5070   -2.6990   54.3070 Cl        1 ZOT        -0.0764
     23 H1         16.6096   -0.5643   52.8896 H         1 ZOT         0.0568
     24 H2         14.4415   -1.6824   52.4745 H         1 ZOT         0.0621
     25 H3         20.5709   -0.6396   54.9960 H         1 ZOT         0.0543
     26 H4         22.0909   -1.8448   56.5323 H         1 ZOT         0.0542
     27 H5         21.2544   -2.6384   58.7267 H         1 ZOT         0.0544
     28 H6         18.9012   -2.2278   59.3692 H         1 ZOT         0.0532
     29 H7         13.8339   -2.0600   56.6916 H         1 ZOT         0.0626
     30 H8         14.9400   -0.5378   60.2187 H         1 ZOT         0.0676
     31 H9         15.7479    0.5855   59.0732 H         1 ZOT         0.0676
     32 H10        12.8358    0.3244   58.5929 H         1 ZOT         0.0842
     33 H11        13.8477    1.7996   58.7560 H         1 ZOT         0.0842
     34 H12        11.4586    2.0050   61.4981 H         1 ZOT         0.0777
     35 H13        11.1024    1.3219   59.8754 H         1 ZOT         0.0777
     36 H14        12.0853    2.8181   60.0241 H         1 ZOT         0.0777
     37 H15        13.7229   -0.8685   61.2083 H         1 ZOT         0.0777
     38 H16        12.0514   -0.8106   60.5532 H         1 ZOT         0.0777
     39 H17        12.4024   -0.1349   62.1801 H         1 ZOT         0.0777
     40 H18        17.1061   -1.0676   59.1928 H         1 ZOT         0.0358
     41 H19        13.7657    1.5179   61.1141 H         1 ZOT         0.2029
@<TRIPOS>BOND
     1    1    6 ar 
     2   11    1 ar 
     3    1   22 1  
     4    2    3 ar 
     5    2   10 ar 
     6   18    2 1  
     7    3    7 ar 
     8    3   21 1  
     9    4    5 ar 
    10   12    4 ar 
    11    4   21 1  
    12    5    6 ar 
    13    7    8 ar 
    14    9    8 ar 
    15   10    9 ar 
    16   12   11 ar 
    17   13   12 1  
    18   13   18 2  
    19   20   13 1  
    20   14   15 1  
    21   14   20 1  
    22   15   19 1  
    23   19   16 1  
    24   19   17 1  
    25    5   23 1  
    26    6   24 1  
    27    7   25 1  
    28    8   26 1  
    29    9   27 1  
    30   10   28 1  
    31   11   29 1  
    32   14   30 1  
    33   14   31 1  
    34   15   32 1  
    35   15   33 1  
    36   16   34 1  
    37   16   35 1  
    38   16   36 1  
    39   17   37 1  
    40   17   38 1  
    41   17   39 1  
    42   18   40 1  
    43   19   41 1  
@<TRIPOS>SUBSTRUCTURE
     1 ZOT         1

