### 
### Created by X-TOOL on Mon Aug  2 16:12:34 2021
### 

@<TRIPOS>MOLECULE
6a9o_ligand
   38    41     1     0     0
SMALL
GAST_HUCK


@<TRIPOS>ATOM
      1 C15        25.5230  221.8870   53.0160 C.ar      1 MOL        -0.0130
      2 C14        19.2330  224.6970   49.1540 C.ar      1 MOL         0.0563
      3 C13        20.2160  224.2250   50.2130 C.2       1 MOL         0.2334
      4 C17        23.8560  221.8840   54.9630 C.2       1 MOL         0.2255
      5 C18        18.4680  223.7030   48.3960 C.ar      1 MOL        -0.0415
      6 C7         26.3000  221.1650   55.2730 C.ar      1 MOL        -0.0463
      7 C6         24.7490  222.6580   50.7070 C.ar      1 MOL        -0.0744
      8 C5         24.4910  222.3830   52.1250 C.ar      1 MOL        -0.0029
      9 C2         22.4450  223.3210   50.4690 C.ar      1 MOL         0.0563
     10 C4         23.1650  222.5950   52.7130 C.ar      1 MOL         0.0686
     11 C3         22.1710  223.0560   51.8510 C.ar      1 MOL        -0.0174
     12 C1         23.7330  223.1400   49.8610 C.ar      1 MOL        -0.0510
     13 C21        18.2020  226.4440   48.0120 C.ar      1 MOL        -0.0562
     14 C22        19.1270  226.0810   48.9940 C.ar      1 MOL        -0.0415
     15 N9         22.8560  222.3620   54.0690 N.am      1 MOL        -0.2328
     16 C16        25.2260  221.6410   54.4340 C.ar      1 MOL         0.0548
     17 C8         27.5760  220.9470   54.7260 C.ar      1 MOL        -0.0608
     18 C10        26.8390  221.6700   52.5210 C.ar      1 MOL        -0.0560
     19 C11        27.8370  221.2030   53.3670 C.ar      1 MOL        -0.0621
     20 O9         23.5520  221.6840   56.2200 O.2       1 MOL        -0.3856
     21 N12        21.3970  223.7670   49.7040 N.am      1 MOL        -0.2344
     22 C19        17.5450  224.0920   47.4260 C.ar      1 MOL        -0.0562
     23 C20        17.4460  225.4820   47.2750 C.ar      1 MOL        -0.0576
     24 O29        19.8660  224.2610   51.4410 O.2       1 MOL        -0.3722
     25 H1         18.6222  222.6482   48.5927 H         1 MOL         0.0669
     26 H2         26.1221  220.9756   56.3254 H         1 MOL         0.0656
     27 H3         25.7405  222.4867   50.3037 H         1 MOL         0.0565
     28 H4         21.1698  223.2175   52.2338 H         1 MOL         0.0384
     29 H5         23.9118  223.3610   48.8149 H         1 MOL         0.0411
     30 H6         18.0522  227.4967   47.8012 H         1 MOL         0.0629
     31 H7         19.7015  226.7970   49.5706 H         1 MOL         0.0669
     32 H8         21.9297  222.5334   54.4046 H         1 MOL         0.2313
     33 H9         28.3721  220.5756   55.3611 H         1 MOL         0.0592
     34 H10        27.0639  221.8699   51.4796 H         1 MOL         0.0594
     35 H11        28.8329  221.0330   52.9740 H         1 MOL         0.0638
     36 H12        21.5052  223.7559   48.7099 H         1 MOL         0.2267
     37 H13        16.9606  223.3877   46.8450 H         1 MOL         0.0629
     38 H14        16.7407  225.8560   46.5417 H         1 MOL         0.0652
@<TRIPOS>BOND
     1    8    1 1  
     2    1   16 ar 
     3    1   18 ar 
     4    3    2 1  
     5    2    5 ar 
     6    2   14 ar 
     7   21    3 am 
     8    3   24 2  
     9    4   15 am 
    10   16    4 1  
    11    4   20 2  
    12    5   22 ar 
    13   16    6 ar 
    14    6   17 ar 
    15    7    8 ar 
    16   12    7 ar 
    17    8   10 ar 
    18    9   11 ar 
    19    9   12 ar 
    20    9   21 1  
    21   10   11 ar 
    22   10   15 1  
    23   14   13 ar 
    24   13   23 ar 
    25   17   19 ar 
    26   18   19 ar 
    27   22   23 ar 
    28    5   25 1  
    29    6   26 1  
    30    7   27 1  
    31   11   28 1  
    32   12   29 1  
    33   13   30 1  
    34   14   31 1  
    35   15   32 1  
    36   17   33 1  
    37   18   34 1  
    38   19   35 1  
    39   21   36 1  
    40   22   37 1  
    41   23   38 1  
@<TRIPOS>SUBSTRUCTURE
     1 MOL         1

