### 
### Created by X-TOOL on Mon Aug  2 16:12:34 2021
### 

@<TRIPOS>MOLECULE
6aa4_ligand
   62    64     1     0     0
SMALL
GAST_HUCK


@<TRIPOS>ATOM
      1 CAD        22.5950  -16.2030   18.0380 C.3       1 MKS        -0.0625
      2 CAS        23.1840  -15.6210   16.7410 C.3       1 MKS        -0.0453
      3 CAE        22.6620  -16.0840   15.4050 C.3       1 MKS        -0.0625
      4 CAK        24.2830  -14.5690   16.7870 C.3       1 MKS        -0.0440
      5 CAO        24.3320  -13.5820   17.9810 C.3       1 MKS        -0.0279
      6 CAX        24.0300  -12.0980   17.7120 C.ar      1 MKS        -0.0232
      7 CBD        25.0310  -11.1150   17.2530 C.ar      1 MKS         0.0079
      8 CAZ        26.4290  -11.4510   16.8240 C.3       1 MKS         0.1027
      9 OAF        26.8990  -12.7380   16.5630 O.3       1 MKS        -0.3778
     10 CBC        27.2970  -10.3250   16.4180 C.ar      1 MKS         0.0366
     11 CAV        28.6320  -10.5780   16.0070 C.ar      1 MKS         0.0795
     12 OAI        29.0860  -11.8850   15.9640 O.3       1 MKS        -0.3460
     13 CAW        29.5170   -9.5010   15.8070 C.ar      1 MKS        -0.0020
     14 CAN        30.9270   -9.7410   15.3680 C.3       1 MKS        -0.0292
     15 CAJ        31.9870   -9.8410   16.4490 C.3       1 MKS        -0.0455
     16 CAR        33.2120   -8.8940   16.3180 C.3       1 MKS        -0.0456
     17 CAC        33.7420   -8.1640   17.5330 C.3       1 MKS        -0.0626
     18 CAB        33.8720   -8.6970   14.9930 C.3       1 MKS        -0.0626
     19 CAT        29.0650   -8.1560   16.0220 C.ar      1 MKS         0.0672
     20 OAG        29.9370   -7.0980   15.8260 O.3       1 MKS        -0.3463
     21 CAL        27.7490   -7.9080   16.4290 C.ar      1 MKS        -0.0238
     22 CBA        26.8550   -9.0120   16.6290 C.ar      1 MKS         0.0944
     23 OAQ        25.5450   -8.7600   16.8450 O.3       1 MKS        -0.2850
     24 CBB        24.6400   -9.7790   17.0910 C.ar      1 MKS         0.0928
     25 CAM        23.2800   -9.3570   17.3650 C.ar      1 MKS        -0.0212
     26 CAU        22.3330  -10.3040   17.8070 C.ar      1 MKS         0.0958
     27 OAH        21.0160   -9.9070   18.0390 O.3       1 MKS        -0.3455
     28 CAY        22.7100  -11.6710   17.9790 C.ar      1 MKS         0.1035
     29 OAP        21.7180  -12.6240   18.1700 O.3       1 MKS        -0.3375
     30 CAA        20.8720  -12.9970   17.1120 C.3       1 MKS         0.0527
     31 H1         21.8195  -16.9423   17.7890 H         1 MKS         0.0232
     32 H2         22.1510  -15.3928   18.6350 H         1 MKS         0.0232
     33 H3         23.3934  -16.6900   18.6171 H         1 MKS         0.0232
     34 H4         23.9429  -16.4172   16.7278 H         1 MKS         0.0297
     35 H5         23.1994  -15.5610   14.6002 H         1 MKS         0.0232
     36 H6         21.5873  -15.8605   15.3337 H         1 MKS         0.0232
     37 H7         22.8184  -17.1683   15.3060 H         1 MKS         0.0232
     38 H8         24.1881  -13.9641   15.8732 H         1 MKS         0.0285
     39 H9         25.2431  -15.1057   16.7735 H         1 MKS         0.0285
     40 H10        25.3445  -13.6363   18.4074 H         1 MKS         0.0384
     41 H11        23.6016  -13.9335   18.7246 H         1 MKS         0.0384
     42 H12        26.7978  -11.4701   17.8601 H         1 MKS         0.0786
     43 H13        27.8133  -12.6945   16.3086 H         1 MKS         0.2141
     44 H14        28.5514  -12.3850   15.3585 H         1 MKS         0.2424
     45 H15        31.2112   -8.9123   14.7029 H         1 MKS         0.0360
     46 H16        30.9409  -10.6852   14.8039 H         1 MKS         0.0360
     47 H17        32.3639  -10.8744   16.4511 H         1 MKS         0.0283
     48 H18        31.5015   -9.6258   17.4123 H         1 MKS         0.0283
     49 H19        33.8855   -9.7376   16.5293 H         1 MKS         0.0297
     50 H20        34.6049   -7.5468   17.2424 H         1 MKS         0.0232
     51 H21        34.0537   -8.8954   18.2932 H         1 MKS         0.0232
     52 H22        32.9527   -7.5191   17.9465 H         1 MKS         0.0232
     53 H23        33.3559   -9.3017   14.2328 H         1 MKS         0.0232
     54 H24        34.9246   -9.0097   15.0576 H         1 MKS         0.0232
     55 H25        33.8216   -7.6346   14.7126 H         1 MKS         0.0232
     56 H26        29.4879   -6.2810   16.0085 H         1 MKS         0.2430
     57 H27        27.4086   -6.8917   16.5915 H         1 MKS         0.0352
     58 H28        22.9931   -8.3203   17.2310 H         1 MKS         0.0376
     59 H29        20.5075  -10.6549   18.3298 H         1 MKS         0.2417
     60 H30        20.1598  -13.7583   17.4630 H         1 MKS         0.0566
     61 H31        21.4740  -13.4099   16.2892 H         1 MKS         0.0566
     62 H32        20.3198  -12.1149   16.7556 H         1 MKS         0.0566
@<TRIPOS>BOND
     1    1    2 1  
     2    2    3 1  
     3    2    4 1  
     4    4    5 1  
     5    5    6 1  
     6    6    7 ar 
     7    6   28 ar 
     8    7    8 1  
     9    7   24 ar 
    10    8    9 1  
    11    8   10 1  
    12   10   11 ar 
    13   10   22 ar 
    14   11   12 1  
    15   11   13 ar 
    16   13   14 1  
    17   13   19 ar 
    18   14   15 1  
    19   15   16 1  
    20   16   17 1  
    21   16   18 1  
    22   19   20 1  
    23   19   21 ar 
    24   21   22 ar 
    25   22   23 1  
    26   23   24 1  
    27   24   25 ar 
    28   25   26 ar 
    29   26   27 1  
    30   26   28 ar 
    31   28   29 1  
    32   29   30 1  
    33    1   31 1  
    34    1   32 1  
    35    1   33 1  
    36    2   34 1  
    37    3   35 1  
    38    3   36 1  
    39    3   37 1  
    40    4   38 1  
    41    4   39 1  
    42    5   40 1  
    43    5   41 1  
    44    8   42 1  
    45    9   43 1  
    46   12   44 1  
    47   14   45 1  
    48   14   46 1  
    49   15   47 1  
    50   15   48 1  
    51   16   49 1  
    52   17   50 1  
    53   17   51 1  
    54   17   52 1  
    55   18   53 1  
    56   18   54 1  
    57   18   55 1  
    58   20   56 1  
    59   21   57 1  
    60   25   58 1  
    61   27   59 1  
    62   30   60 1  
    63   30   61 1  
    64   30   62 1  
@<TRIPOS>SUBSTRUCTURE
     1 MKS         1

