### 
### Created by X-TOOL on Mon Aug  2 16:12:34 2021
### 

@<TRIPOS>MOLECULE
6aa5_ligand
   58    61     1     0     0
SMALL
GAST_HUCK


@<TRIPOS>ATOM
      1 CAB        22.7930  -16.0760   18.1280 C.3       1 MKU        -0.0625
      2 CAR        23.1600  -15.6120   16.7120 C.3       1 MKU        -0.0450
      3 CAC        22.7390  -16.4540   15.5140 C.3       1 MKU        -0.0625
      4 CAK        23.9480  -14.3210   16.4760 C.3       1 MKU        -0.0421
      5 CAN        24.3060  -13.5300   17.7240 C.3       1 MKU        -0.0220
      6 CAW        24.0750  -12.1510   17.5730 C.ar      1 MKU        -0.0096
      7 CBC        25.0500  -11.1890   17.1840 C.ar      1 MKU         0.0443
      8 CAY        26.3910  -11.4800   16.8430 C.2       1 MKU         0.1173
      9 OAF        26.8360  -12.6260   16.7880 O.2       1 MKU        -0.4096
     10 CBB        27.2550  -10.4360   16.5230 C.ar      1 MKU         0.0736
     11 CAT        28.5920  -10.6880   16.2330 C.ar      1 MKU         0.0950
     12 OAH        29.0370  -11.9730   16.2600 O.3       1 MKU        -0.3367
     13 CAV        29.5000   -9.6840   15.9230 C.ar      1 MKU         0.0112
     14 CAI        30.8270  -10.0340   15.6530 C.3       1 MKU        -0.0238
     15 CAJ        31.4780   -8.9880   14.7750 C.3       1 MKU        -0.0146
     16 CBD        31.3260   -7.6620   15.4880 C.3       1 MKU         0.0866
     17 CAD        31.9670   -7.7450   16.8840 C.3       1 MKU        -0.0316
     18 CAE        32.0330   -6.5580   14.6920 C.3       1 MKU        -0.0316
     19 OAP        29.9070   -7.3450   15.5930 O.3       1 MKU        -0.3174
     20 CAU        29.0430   -8.3600   15.9110 C.ar      1 MKU         0.0839
     21 CAM        27.7050   -8.0810   16.1870 C.ar      1 MKU        -0.0099
     22 CBA        26.8300   -9.1190   16.4920 C.ar      1 MKU         0.1152
     23 OAQ        25.5230   -8.8600   16.7600 O.3       1 MKU        -0.2644
     24 CAZ        24.6410   -9.8470   17.1150 C.ar      1 MKU         0.1135
     25 CAL        23.3460   -9.4400   17.4080 C.ar      1 MKU        -0.0070
     26 CAS        22.4110  -10.3780   17.7880 C.ar      1 MKU         0.1092
     27 OAG        21.1310  -10.0140   18.0800 O.3       1 MKU        -0.3373
     28 CAX        22.7780  -11.7160   17.8600 C.ar      1 MKU         0.1161
     29 OAO        21.8510  -12.6450   18.2490 O.3       1 MKU        -0.3344
     30 CAA        20.8580  -12.9650   17.2610 C.3       1 MKU         0.0530
     31 H1         22.2313  -17.0200   18.0704 H         1 MKU         0.0232
     32 H2         22.1729  -15.3096   18.6158 H         1 MKU         0.0232
     33 H3         23.7117  -16.2311   18.7127 H         1 MKU         0.0232
     34 H4         22.2180  -15.0470   16.6548 H         1 MKU         0.0297
     35 H5         23.0847  -15.9722   14.5876 H         1 MKU         0.0232
     36 H6         21.6427  -16.5417   15.4946 H         1 MKU         0.0232
     37 H7         23.1857  -17.4560   15.5949 H         1 MKU         0.0232
     38 H8         23.3447  -13.6709   15.8253 H         1 MKU         0.0288
     39 H9         24.8846  -14.5855   15.9633 H         1 MKU         0.0288
     40 H10        25.3717  -13.6866   17.9472 H         1 MKU         0.0411
     41 H11        23.6975  -13.8997   18.5625 H         1 MKU         0.0411
     42 H12        28.5519  -12.4883   15.6262 H         1 MKU         0.2477
     43 H13        30.8483  -11.0052   15.1369 H         1 MKU         0.0363
     44 H14        31.3821  -10.1096   16.5996 H         1 MKU         0.0363
     45 H15        30.9779   -8.9509   13.7960 H         1 MKU         0.0311
     46 H16        32.5435   -9.2220   14.6339 H         1 MKU         0.0311
     47 H17        31.8536   -6.7789   17.3975 H         1 MKU         0.0261
     48 H18        33.0361   -7.9833   16.7830 H         1 MKU         0.0261
     49 H19        31.4696   -8.5321   17.4697 H         1 MKU         0.0261
     50 H20        31.5861   -6.4852   13.6895 H         1 MKU         0.0261
     51 H21        33.1022   -6.7996   14.6001 H         1 MKU         0.0261
     52 H22        31.9178   -5.5974   15.2154 H         1 MKU         0.0261
     53 H23        27.3474   -7.0579   16.1640 H         1 MKU         0.0383
     54 H24        23.0731   -8.3932   17.3383 H         1 MKU         0.0409
     55 H25        20.6307  -10.7850   18.3206 H         1 MKU         0.2459
     56 H26        20.1645  -13.7157   17.6679 H         1 MKU         0.0566
     57 H27        21.3501  -13.3687   16.3639 H         1 MKU         0.0566
     58 H28        20.2991  -12.0557   16.9949 H         1 MKU         0.0566
@<TRIPOS>BOND
     1    1    2 1  
     2    2    3 1  
     3    2    4 1  
     4    4    5 1  
     5    5    6 1  
     6    6    7 ar 
     7    6   28 ar 
     8    7    8 1  
     9    7   24 ar 
    10    8    9 2  
    11    8   10 1  
    12   10   11 ar 
    13   10   22 ar 
    14   11   12 1  
    15   11   13 ar 
    16   13   14 1  
    17   13   20 ar 
    18   14   15 1  
    19   15   16 1  
    20   16   17 1  
    21   16   18 1  
    22   16   19 1  
    23   19   20 1  
    24   20   21 ar 
    25   21   22 ar 
    26   22   23 1  
    27   23   24 1  
    28   24   25 ar 
    29   25   26 ar 
    30   26   27 1  
    31   26   28 ar 
    32   28   29 1  
    33   29   30 1  
    34    1   31 1  
    35    1   32 1  
    36    1   33 1  
    37    2   34 1  
    38    3   35 1  
    39    3   36 1  
    40    3   37 1  
    41    4   38 1  
    42    4   39 1  
    43    5   40 1  
    44    5   41 1  
    45   12   42 1  
    46   14   43 1  
    47   14   44 1  
    48   15   45 1  
    49   15   46 1  
    50   17   47 1  
    51   17   48 1  
    52   17   49 1  
    53   18   50 1  
    54   18   51 1  
    55   18   52 1  
    56   21   53 1  
    57   25   54 1  
    58   27   55 1  
    59   30   56 1  
    60   30   57 1  
    61   30   58 1  
@<TRIPOS>SUBSTRUCTURE
     1 MKU         1

