### 
### Created by X-TOOL on Mon Aug  2 16:11:52 2021
### 

@<TRIPOS>MOLECULE
6aad_ligand
   46    47     1     0     0
SMALL
GAST_HUCK


@<TRIPOS>ATOM
      1 C10        78.6630   25.9000   11.8840 C.ar      1 MOL         0.0160
      2 C13        76.5750   25.0650   14.1420 C.2       1 MOL         0.3216
      3 CD         73.8930   25.5080   15.4430 C.3       1 MOL        -0.0325
      4 CA         72.8910   27.8980   17.1840 C.3       1 MOL         0.0283
      5 C          72.3550   28.8190   18.2880 C.2       1 MOL         0.0844
      6 C26        79.1120   26.0390    9.5010 C.ar      1 MOL        -0.0379
      7 N1         77.3800   29.9410    9.4840 N.2       1 MOL        -0.1966
      8 N2         78.6160   30.0300    9.1600 N.2       1 MOL        -0.1966
      9 C3         78.3670   29.5110   10.4970 C.3       1 MOL         0.2673
     10 C4         78.7080   30.3840   11.7040 C.3       1 MOL         0.4123
     11 F5         79.2400   29.7260   12.7550 F         1 MOL        -0.1744
     12 F6         77.5980   31.0080   12.1070 F         1 MOL        -0.1744
     13 F7         79.5690   31.3050   11.2720 F         1 MOL        -0.1744
     14 C8         78.5880   28.0100   10.7030 C.ar      1 MOL         0.0000
     15 C9         78.4530   27.2780   11.9130 C.ar      1 MOL        -0.0321
     16 C11        78.6570   24.8480   13.0280 C.3       1 MOL         0.1174
     17 O12        77.9770   25.1990   14.2530 O.3       1 MOL        -0.2501
     18 O14        76.1270   23.9680   14.1500 O.2       1 MOL        -0.3774
     19 NZ         75.6430   26.1600   13.9720 N.am      1 MOL        -0.2624
     20 CE         74.2340   25.7930   13.9980 C.3       1 MOL         0.0328
     21 CG         72.4580   25.8680   15.8090 C.3       1 MOL        -0.0445
     22 CB         72.4600   26.4350   17.2310 C.3       1 MOL         0.0025
     23 N          74.3710   28.0140   17.1860 N.4       1 MOL         0.2327
     24 OXT        72.7540   28.6240   19.5770 O.co2     1 MOL        -0.5643
     25 O          71.5270   29.8550   17.9390 O.co2     1 MOL        -0.5643
     26 C25        78.9960   25.3410   10.6780 C.ar      1 MOL        -0.0291
     27 C27        78.8940   27.3830    9.5400 C.ar      1 MOL        -0.0415
     28 H1         74.5724   26.0901   16.0829 H         1 MOL         0.0285
     29 H2         74.0419   24.4345   15.6311 H         1 MOL         0.0285
     30 H3         72.5190   28.2965   16.2286 H         1 MOL         0.1024
     31 H4         79.3679   25.5384    8.5742 H         1 MOL         0.0683
     32 H5         78.1926   27.7796   12.8380 H         1 MOL         0.0779
     33 H6         79.7051   24.6326   13.2831 H         1 MOL         0.0781
     34 H7         78.1804   23.9375   12.6359 H         1 MOL         0.0781
     35 H8         75.9464   27.1044   13.8453 H         1 MOL         0.1867
     36 H9         73.6182   26.6215   13.6182 H         1 MOL         0.0519
     37 H10        74.0630   24.8971   13.3830 H         1 MOL         0.0519
     38 H11        71.8253   24.9692   15.7665 H         1 MOL         0.0269
     39 H12        72.0717   26.6218   15.1072 H         1 MOL         0.0269
     40 H13        71.4489   26.3623   17.6580 H         1 MOL         0.0339
     41 H14        73.1633   25.8635   17.8545 H         1 MOL         0.0339
     42 H15        74.6318   28.9872   17.1546 H         1 MOL         0.2010
     43 H16        74.7463   27.5395   16.3798 H         1 MOL         0.2010
     44 H17        74.7398   27.5942   18.0249 H         1 MOL         0.2010
     45 H18        79.1808   24.2732   10.6512 H         1 MOL         0.0804
     46 H19        78.9663   27.9612    8.6260 H         1 MOL         0.0801
@<TRIPOS>BOND
     1    1   15 ar 
     2   16    1 1  
     3    1   26 ar 
     4    2   17 1  
     5    2   18 2  
     6   19    2 am 
     7    3   20 1  
     8   21    3 1  
     9    4    5 1  
    10   22    4 1  
    11    4   23 1  
    12    5   24 ar 
    13    5   25 ar 
    14   26    6 ar 
    15    6   27 ar 
    16    8    7 2  
    17    9    7 1  
    18    9    8 1  
    19    9   10 1  
    20   14    9 1  
    21   10   11 1  
    22   10   12 1  
    23   10   13 1  
    24   15   14 ar 
    25   14   27 ar 
    26   17   16 1  
    27   20   19 1  
    28   21   22 1  
    29    3   28 1  
    30    3   29 1  
    31    4   30 1  
    32    6   31 1  
    33   15   32 1  
    34   16   33 1  
    35   16   34 1  
    36   19   35 1  
    37   20   36 1  
    38   20   37 1  
    39   21   38 1  
    40   21   39 1  
    41   22   40 1  
    42   22   41 1  
    43   23   42 1  
    44   23   43 1  
    45   23   44 1  
    46   26   45 1  
    47   27   46 1  
@<TRIPOS>SUBSTRUCTURE
     1 MOL         1

