### 
### Created by X-TOOL on Wed Jan  1 15:39:38 2020
### 

@<TRIPOS>MOLECULE
6aah_ligand
   46    50     1     0     0
SMALL
GAST_HUCK


@<TRIPOS>ATOM
      1 C9        -14.4830    0.3810  -14.9860 C.2       1 9T6        -0.0587
      2 C3        -17.2180   -1.4590  -12.5370 C.ar      1 9T6        -0.0019
      3 C8        -13.6500    0.7390  -14.0100 C.2       1 9T6         0.0221
      4 C5        -15.5710   -0.3080  -14.4030 C.ar      1 9T6         0.0265
      5 C2        -17.6150   -1.5420  -13.8510 C.ar      1 9T6         0.0773
      6 C1        -16.7700   -0.9360  -14.8370 C.ar      1 9T6         0.0718
      7 C6        -15.2570   -0.2800  -13.0480 C.ar      1 9T6         0.1247
      8 C10       -18.8760   -2.2470  -14.1710 C.2       1 9T6         0.1912
      9 C19       -18.4720    1.3430  -17.2920 C.3       1 9T6        -0.0450
     10 C23       -18.5250   -0.6260  -18.8110 C.3       1 9T6        -0.0450
     11 C22       -18.1540    1.6170  -19.7800 C.3       1 9T6        -0.0211
     12 C15       -16.2540    2.0600  -18.2080 C.3       1 9T6        -0.0190
     13 C16       -16.2490    0.0350  -19.6860 C.3       1 9T6        -0.0190
     14 C21       -18.9020    0.8540  -18.6820 C.3       1 9T6        -0.0378
     15 C14       -16.9600    1.2310  -17.1310 C.3       1 9T6        -0.0146
     16 C17       -16.9970   -0.7740  -18.6060 C.3       1 9T6        -0.0146
     17 C18       -16.5370   -0.2490  -17.2530 C.3       1 9T6         0.0455
     18 C20       -16.6440    1.5190  -19.5910 C.3       1 9T6         0.0670
     19 N4        -16.0900   -0.8730  -12.1710 N.ar      1 9T6        -0.3016
     20 N7        -14.1280    0.3340  -12.8550 N.pl3     1 9T6        -0.2708
     21 N12       -19.6440   -2.8770  -13.2400 N.am      1 9T6        -0.3033
     22 N13       -17.1200   -1.0200  -16.1550 N.pl3     1 9T6        -0.3077
     23 O11       -19.2690   -2.2890  -15.3220 O.2       1 9T6        -0.3956
     24 O24       -16.0090    2.2780  -20.6120 O.3       1 9T6        -0.3885
     25 H1        -14.3492    0.5837  -16.0476 H         1 9T6         0.0302
     26 H2        -17.8536   -1.8902  -11.7721 H         1 9T6         0.0752
     27 H3        -12.7169    1.2833  -14.1481 H         1 9T6         0.0907
     28 H4        -18.9643    0.7287  -16.5238 H         1 9T6         0.0271
     29 H5        -18.7723    2.3940  -17.1690 H         1 9T6         0.0271
     30 H6        -18.8004   -0.9914  -19.8113 H         1 9T6         0.0271
     31 H7        -19.0584   -1.2109  -18.0472 H         1 9T6         0.0271
     32 H8        -18.4514    2.6755  -19.7473 H         1 9T6         0.0296
     33 H9        -18.4212    1.1910  -20.7583 H         1 9T6         0.0296
     34 H10       -15.1645    1.9846  -18.0763 H         1 9T6         0.0296
     35 H11       -16.5615    3.1128  -18.1237 H         1 9T6         0.0296
     36 H12       -16.5149   -0.3508  -20.6812 H         1 9T6         0.0296
     37 H13       -15.1645   -0.0650  -19.5317 H         1 9T6         0.0296
     38 H14       -19.9871    0.9865  -18.8047 H         1 9T6         0.0302
     39 H15       -16.6732    1.6095  -16.1388 H         1 9T6         0.0324
     40 H16       -16.7320   -1.8384  -18.6890 H         1 9T6         0.0324
     41 H17       -15.4410   -0.3213  -17.1941 H         1 9T6         0.0565
     42 H18       -13.6783    0.4803  -11.9400 H         1 9T6         0.2299
     43 H19       -20.4875   -3.3375  -13.5163 H         1 9T6         0.1801
     44 H20       -19.3646   -2.8792  -12.2798 H         1 9T6         0.1801
     45 H21       -17.8643   -1.6891  -16.3984 H         1 9T6         0.1843
     46 H22       -16.2800    3.1861  -20.5449 H         1 9T6         0.2102
@<TRIPOS>BOND
     1    1    3 2  
     2    4    1 1  
     3    5    2 ar 
     4    2   19 ar 
     5   20    3 1  
     6    6    4 ar 
     7    4    7 ar 
     8    6    5 ar 
     9    5    8 1  
    10   22    6 1  
    11    7   19 ar 
    12    7   20 1  
    13    8   21 am 
    14    8   23 2  
    15    9   14 1  
    16   15    9 1  
    17   10   14 1  
    18   16   10 1  
    19   14   11 1  
    20   18   11 1  
    21   15   12 1  
    22   12   18 1  
    23   16   13 1  
    24   13   18 1  
    25   17   15 1  
    26   17   16 1  
    27   17   22 1  
    28   18   24 1  
    29    1   25 1  
    30    2   26 1  
    31    3   27 1  
    32    9   28 1  
    33    9   29 1  
    34   10   30 1  
    35   10   31 1  
    36   11   32 1  
    37   11   33 1  
    38   12   34 1  
    39   12   35 1  
    40   13   36 1  
    41   13   37 1  
    42   14   38 1  
    43   15   39 1  
    44   16   40 1  
    45   17   41 1  
    46   20   42 1  
    47   21   43 1  
    48   21   44 1  
    49   22   45 1  
    50   24   46 1  
@<TRIPOS>SUBSTRUCTURE
     1 9T6         1

