### 
### Created by X-TOOL on Wed Jan  1 15:39:37 2020
### 

@<TRIPOS>MOLECULE
6aaj_ligand
   46    50     1     0     0
SMALL
GAST_HUCK


@<TRIPOS>ATOM
      1 C9         14.9830    4.2590   40.9070 C.2       1 9T6        -0.0587
      2 C3         11.5670    2.3710   39.6070 C.ar      1 9T6        -0.0019
      3 C8         15.6850    4.1050   39.7260 C.2       1 9T6         0.0221
      4 C5         13.6990    3.6720   40.7400 C.ar      1 9T6         0.0265
      5 C2         11.5160    2.8230   40.9100 C.ar      1 9T6         0.0773
      6 C1         12.5600    3.4910   41.5240 C.ar      1 9T6         0.0718
      7 C6         13.6690    3.1740   39.4420 C.ar      1 9T6         0.1247
      8 C10        10.2760    2.5910   41.6140 C.2       1 9T6         0.1912
      9 C19        12.7260    5.1940   45.6870 C.3       1 9T6        -0.0450
     10 C23        12.2070    6.8170   43.8970 C.3       1 9T6        -0.0450
     11 C22        13.8870    7.4240   45.5540 C.3       1 9T6        -0.0211
     12 C15        15.1290    5.3300   45.1020 C.3       1 9T6        -0.0190
     13 C16        14.5830    6.9090   43.2430 C.3       1 9T6        -0.0190
     14 C21        12.5710    6.6780   45.3580 C.3       1 9T6        -0.0378
     15 C14        13.8340    4.5650   44.8490 C.3       1 9T6        -0.0146
     16 C17        13.2870    6.1610   43.0430 C.3       1 9T6        -0.0146
     17 C18        13.5560    4.6820   43.3620 C.3       1 9T6         0.0455
     18 C20        14.9610    6.7950   44.6900 C.3       1 9T6         0.0670
     19 N4         12.6510    2.5270   38.8390 N.ar      1 9T6        -0.3016
     20 N7         14.8730    3.4460   38.8470 N.pl3     1 9T6        -0.2708
     21 N12         9.3180    2.1530   40.7530 N.am      1 9T6        -0.3033
     22 N13        12.4000    3.9330   42.8660 N.pl3     1 9T6        -0.3077
     23 O11        10.1660    2.7960   42.8130 O.2       1 9T6        -0.3956
     24 O24        16.1570    7.5370   44.7760 O.3       1 9T6        -0.3885
     25 H1         15.3501    4.7458   41.8093 H         1 9T6         0.0302
     26 H2         10.6987    1.8724   39.1917 H         1 9T6         0.0752
     27 H3         16.7005    4.4468   39.5317 H         1 9T6         0.0907
     28 H4         11.7779    4.6773   45.4769 H         1 9T6         0.0271
     29 H5         12.9746    5.0852   46.7530 H         1 9T6         0.0271
     30 H6         12.1306    7.8832   43.6373 H         1 9T6         0.0271
     31 H7         11.2415    6.3241   43.7105 H         1 9T6         0.0271
     32 H8         14.1868    7.3662   46.6108 H         1 9T6         0.0296
     33 H9         13.7568    8.4778   45.2669 H         1 9T6         0.0296
     34 H10        15.9406    4.8770   44.5137 H         1 9T6         0.0296
     35 H11        15.3791    5.2790   46.1720 H         1 9T6         0.0296
     36 H12        14.4495    7.9671   42.9736 H         1 9T6         0.0296
     37 H13        15.3706    6.4672   42.6149 H         1 9T6         0.0296
     38 H14        11.7891    7.1184   45.9942 H         1 9T6         0.0302
     39 H15        13.9484    3.5069   45.1271 H         1 9T6         0.0324
     40 H16        12.9789    6.2353   41.9897 H         1 9T6         0.0324
     41 H17        14.4494    4.3379   42.8204 H         1 9T6         0.0565
     42 H18        15.1276    3.1918   37.8819 H         1 9T6         0.2299
     43 H19         8.3993    1.9471   41.0899 H         1 9T6         0.1801
     44 H20         9.5326    2.0370   39.7832 H         1 9T6         0.1801
     45 H21        11.5588    3.7458   43.4301 H         1 9T6         0.1843
     46 H22        15.9919    8.4338   44.5095 H         1 9T6         0.2102
@<TRIPOS>BOND
     1    1    3 2  
     2    4    1 1  
     3    5    2 ar 
     4    2   19 ar 
     5   20    3 1  
     6    6    4 ar 
     7    4    7 ar 
     8    6    5 ar 
     9    5    8 1  
    10   22    6 1  
    11    7   19 ar 
    12    7   20 1  
    13    8   21 am 
    14    8   23 2  
    15    9   14 1  
    16   15    9 1  
    17   10   14 1  
    18   16   10 1  
    19   14   11 1  
    20   18   11 1  
    21   15   12 1  
    22   12   18 1  
    23   16   13 1  
    24   13   18 1  
    25   17   15 1  
    26   17   16 1  
    27   17   22 1  
    28   18   24 1  
    29    1   25 1  
    30    2   26 1  
    31    3   27 1  
    32    9   28 1  
    33    9   29 1  
    34   10   30 1  
    35   10   31 1  
    36   11   32 1  
    37   11   33 1  
    38   12   34 1  
    39   12   35 1  
    40   13   36 1  
    41   13   37 1  
    42   14   38 1  
    43   15   39 1  
    44   16   40 1  
    45   17   41 1  
    46   20   42 1  
    47   21   43 1  
    48   21   44 1  
    49   22   45 1  
    50   24   46 1  
@<TRIPOS>SUBSTRUCTURE
     1 9T6         1

