### 
### Created by X-TOOL on Wed Jan  1 15:39:38 2020
### 

@<TRIPOS>MOLECULE
6aak_ligand
   46    50     1     0     0
SMALL
GAST_HUCK


@<TRIPOS>ATOM
      1 C9         11.1980  -40.3100   49.1180 C.2       1 9T6        -0.0587
      2 C3         10.8330  -38.2950   52.7390 C.ar      1 9T6        -0.0019
      3 C8         10.1740  -41.1640   49.3460 C.2       1 9T6         0.0221
      4 C5         11.3200  -39.4540   50.2460 C.ar      1 9T6         0.0265
      5 C2         11.8690  -37.7940   51.9670 C.ar      1 9T6         0.0773
      6 C1         12.1410  -38.3590   50.6600 C.ar      1 9T6         0.0718
      7 C6         10.2870  -39.9170   51.1050 C.ar      1 9T6         0.1247
      8 C10        12.6200  -36.6290   52.4940 C.2       1 9T6         0.1912
      9 C19        14.7230  -35.8390   48.0530 C.3       1 9T6        -0.0450
     10 C23        12.2190  -35.7660   47.9670 C.3       1 9T6        -0.0450
     11 C22        13.5180  -35.5150   45.8700 C.3       1 9T6        -0.0211
     12 C15        14.7450  -37.6440   46.3760 C.3       1 9T6        -0.0190
     13 C16        12.2320  -37.6000   46.2260 C.3       1 9T6        -0.0190
     14 C21        13.5020  -35.2080   47.3690 C.3       1 9T6        -0.0378
     15 C14        14.6450  -37.3590   47.8780 C.3       1 9T6        -0.0146
     16 C17        12.1440  -37.2770   47.7240 C.3       1 9T6        -0.0146
     17 C18        13.3220  -37.9570   48.4120 C.3       1 9T6         0.0455
     18 C20        13.5360  -37.0370   45.6550 C.3       1 9T6         0.0670
     19 N4         10.0920  -39.3170   52.3200 N.ar      1 9T6        -0.3016
     20 N7          9.6510  -40.9200   50.5250 N.pl3     1 9T6        -0.2708
     21 N12        12.7490  -36.3470   53.8050 N.am      1 9T6        -0.3033
     22 N13        13.1990  -37.8590   49.8770 N.pl3     1 9T6        -0.3077
     23 O11        13.0910  -35.8280   51.7040 O.2       1 9T6        -0.3956
     24 O24        13.6140  -37.3640   44.2740 O.3       1 9T6        -0.3885
     25 H1         11.8208  -40.2831   48.2251 H         1 9T6         0.0302
     26 H2         10.6225  -37.8455   53.7027 H         1 9T6         0.0752
     27 H3          9.8353  -41.9360   48.6567 H         1 9T6         0.0907
     28 H4         14.7197  -35.5880   49.1240 H         1 9T6         0.0271
     29 H5         15.6456  -35.4589   47.5901 H         1 9T6         0.0271
     30 H6         11.3539  -35.2774   47.4949 H         1 9T6         0.0271
     31 H7         12.2055  -35.5696   49.0492 H         1 9T6         0.0271
     32 H8         14.4154  -35.0705   45.4149 H         1 9T6         0.0296
     33 H9         12.6192  -35.0896   45.3996 H         1 9T6         0.0296
     34 H10        14.7620  -38.7313   46.2101 H         1 9T6         0.0296
     35 H11        15.6692  -37.1981   45.9796 H         1 9T6         0.0296
     36 H12        11.3773  -37.1463   45.7028 H         1 9T6         0.0296
     37 H13        12.2114  -38.6907   46.0848 H         1 9T6         0.0296
     38 H14        13.5301  -34.1185   47.5181 H         1 9T6         0.0302
     39 H15        15.4871  -37.8283   48.4076 H         1 9T6         0.0324
     40 H16        11.1976  -37.6636   48.1301 H         1 9T6         0.0324
     41 H17        13.3049  -39.0248   48.1485 H         1 9T6         0.0565
     42 H18         8.8603  -41.4350   50.9379 H         1 9T6         0.2299
     43 H19        13.2699  -35.5441   54.0948 H         1 9T6         0.1801
     44 H20        12.3239  -36.9406   54.4883 H         1 9T6         0.1801
     45 H21        13.9607  -37.3782   50.3767 H         1 9T6         0.1843
     46 H22        12.8680  -36.9915   43.8189 H         1 9T6         0.2102
@<TRIPOS>BOND
     1    1    3 2  
     2    4    1 1  
     3    5    2 ar 
     4    2   19 ar 
     5   20    3 1  
     6    6    4 ar 
     7    4    7 ar 
     8    6    5 ar 
     9    5    8 1  
    10   22    6 1  
    11    7   19 ar 
    12    7   20 1  
    13    8   21 am 
    14    8   23 2  
    15    9   14 1  
    16   15    9 1  
    17   10   14 1  
    18   16   10 1  
    19   14   11 1  
    20   18   11 1  
    21   15   12 1  
    22   12   18 1  
    23   16   13 1  
    24   13   18 1  
    25   17   15 1  
    26   17   16 1  
    27   17   22 1  
    28   18   24 1  
    29    1   25 1  
    30    2   26 1  
    31    3   27 1  
    32    9   28 1  
    33    9   29 1  
    34   10   30 1  
    35   10   31 1  
    36   11   32 1  
    37   11   33 1  
    38   12   34 1  
    39   12   35 1  
    40   13   36 1  
    41   13   37 1  
    42   14   38 1  
    43   15   39 1  
    44   16   40 1  
    45   17   41 1  
    46   20   42 1  
    47   21   43 1  
    48   21   44 1  
    49   22   45 1  
    50   24   46 1  
@<TRIPOS>SUBSTRUCTURE
     1 9T6         1

