### 
### Created by X-TOOL on Wed Jan  1 15:39:37 2020
### 

@<TRIPOS>MOLECULE
6aam_ligand
   46    50     1     0     0
SMALL
GAST_HUCK


@<TRIPOS>ATOM
      1 C9         -5.1580   25.0400  -30.9900 C.2       1 9T6        -0.0587
      2 C3         -8.0100   23.4410  -33.4110 C.ar      1 9T6        -0.0019
      3 C8         -5.5970   26.3330  -30.9980 C.2       1 9T6         0.0221
      4 C5         -6.0440   24.2670  -31.7950 C.ar      1 9T6         0.0265
      5 C2         -7.0850   22.5070  -32.9590 C.ar      1 9T6         0.0773
      6 C1         -6.0640   22.9290  -32.1210 C.ar      1 9T6         0.0718
      7 C6         -7.0120   25.0970  -32.2950 C.ar      1 9T6         0.1247
      8 C10        -7.2940   21.1260  -33.4390 C.2       1 9T6         0.1912
      9 C19        -5.1710   21.8720  -28.5020 C.3       1 9T6        -0.0450
     10 C23        -2.8800   21.9930  -29.5200 C.3       1 9T6        -0.0450
     11 C22        -3.3640   20.3120  -27.8040 C.3       1 9T6        -0.0211
     12 C15        -5.3000   19.4760  -29.1960 C.3       1 9T6        -0.0190
     13 C16        -3.0010   19.6030  -30.1830 C.3       1 9T6        -0.0190
     14 C21        -3.6640   21.7520  -28.2300 C.3       1 9T6        -0.0378
     15 C14        -5.6390   20.9140  -29.6030 C.3       1 9T6        -0.0146
     16 C17        -3.3160   21.0180  -30.6350 C.3       1 9T6        -0.0146
     17 C18        -4.8270   21.0850  -30.8910 C.3       1 9T6         0.0455
     18 C20        -3.8040   19.3440  -28.8970 C.3       1 9T6         0.0670
     19 N4         -8.0330   24.7540  -33.1100 N.ar      1 9T6        -0.3016
     20 N7         -6.7090   26.3320  -31.7820 N.pl3     1 9T6        -0.2708
     21 N12        -8.4010   21.0150  -34.2370 N.am      1 9T6        -0.3033
     22 N13        -4.9510   22.3560  -31.5230 N.pl3     1 9T6        -0.3077
     23 O11        -6.5820   20.1700  -33.1740 O.2       1 9T6        -0.3956
     24 O24        -3.5370   18.0470  -28.4180 O.3       1 9T6        -0.3885
     25 H1         -4.2833   24.6650  -30.4607 H         1 9T6         0.0302
     26 H2         -8.7895   23.0771  -34.0705 H         1 9T6         0.0752
     27 H3         -5.1515   27.1844  -30.4856 H         1 9T6         0.0907
     28 H4         -5.3940   22.9036  -28.8119 H         1 9T6         0.0271
     29 H5         -5.7176   21.6411  -27.5758 H         1 9T6         0.0271
     30 H6         -1.8079   21.8505  -29.3192 H         1 9T6         0.0271
     31 H7         -3.0558   23.0249  -29.8581 H         1 9T6         0.0271
     32 H8         -3.9087   20.0855  -26.8756 H         1 9T6         0.0296
     33 H9         -2.2833   20.2004  -27.6317 H         1 9T6         0.0296
     34 H10        -5.5669   18.7945  -30.0171 H         1 9T6         0.0296
     35 H11        -5.8742   19.2090  -28.2966 H         1 9T6         0.0296
     36 H12        -1.9243   19.5033  -29.9809 H         1 9T6         0.0296
     37 H13        -3.2960   18.8846  -30.9620 H         1 9T6         0.0296
     38 H14        -3.3588   22.4657  -27.4506 H         1 9T6         0.0302
     39 H15        -6.7154   21.0472  -29.7862 H         1 9T6         0.0324
     40 H16        -2.7723   21.2543  -31.5616 H         1 9T6         0.0324
     41 H17        -5.1338   20.2914  -31.5882 H         1 9T6         0.0565
     42 H18        -7.2682   27.1760  -31.9715 H         1 9T6         0.2299
     43 H19        -8.6504   20.1279  -34.6255 H         1 9T6         0.1801
     44 H20        -8.9601   21.8210  -34.4313 H         1 9T6         0.1801
     45 H21        -4.0953   22.9291  -31.5380 H         1 9T6         0.1843
     46 H22        -4.0350   17.8953  -27.6233 H         1 9T6         0.2102
@<TRIPOS>BOND
     1    1    3 2  
     2    4    1 1  
     3    5    2 ar 
     4    2   19 ar 
     5   20    3 1  
     6    6    4 ar 
     7    4    7 ar 
     8    6    5 ar 
     9    5    8 1  
    10   22    6 1  
    11    7   19 ar 
    12    7   20 1  
    13    8   21 am 
    14    8   23 2  
    15    9   14 1  
    16   15    9 1  
    17   10   14 1  
    18   16   10 1  
    19   14   11 1  
    20   18   11 1  
    21   15   12 1  
    22   12   18 1  
    23   16   13 1  
    24   13   18 1  
    25   17   15 1  
    26   17   16 1  
    27   17   22 1  
    28   18   24 1  
    29    1   25 1  
    30    2   26 1  
    31    3   27 1  
    32    9   28 1  
    33    9   29 1  
    34   10   30 1  
    35   10   31 1  
    36   11   32 1  
    37   11   33 1  
    38   12   34 1  
    39   12   35 1  
    40   13   36 1  
    41   13   37 1  
    42   14   38 1  
    43   15   39 1  
    44   16   40 1  
    45   17   41 1  
    46   20   42 1  
    47   21   43 1  
    48   21   44 1  
    49   22   45 1  
    50   24   46 1  
@<TRIPOS>SUBSTRUCTURE
     1 9T6         1

