### 
### Created by X-TOOL on Mon Aug  2 16:11:52 2021
### 

@<TRIPOS>MOLECULE
6aan_ligand
   42    42     1     0     0
SMALL
GAST_HUCK


@<TRIPOS>ATOM
      1 C15       -22.0480    3.0620   11.9510 C.ar      1 MOL        -0.0119
      2 C17       -22.2000    5.3900   11.3330 C.ar      1 MOL         0.0180
      3 C20       -22.0590    5.0360   10.0120 C.ar      1 MOL        -0.0532
      4 C21       -21.9120    3.7080    9.6500 C.ar      1 MOL        -0.0672
      5 C22       -21.9050    2.7270   10.6270 C.ar      1 MOL        -0.0577
      6 O         -30.8170    5.6030   16.5200 O.co2     1 MOL        -0.5643
      7 C         -29.6570    6.0320   17.1050 C.2       1 MOL         0.0844
      8 OXT       -29.5390    7.3450   17.4480 O.co2     1 MOL        -0.5643
      9 CA        -28.4740    5.0700   17.3800 C.3       1 MOL         0.0283
     10 N         -27.9110    5.4330   18.6640 N.4       1 MOL         0.2327
     11 CB        -28.8310    3.5640   17.3620 C.3       1 MOL         0.0025
     12 CG        -28.3520    2.8330   16.0870 C.3       1 MOL        -0.0445
     13 CD        -26.8260    2.6590   15.9510 C.3       1 MOL        -0.0325
     14 CE        -26.4440    2.2450   14.5150 C.3       1 MOL         0.0328
     15 NZ        -25.1250    2.7280   14.1360 N.am      1 MOL        -0.2624
     16 C11       -23.9670    1.8730   14.2730 C.2       1 MOL         0.3216
     17 O12       -24.1490    0.6780   14.5060 O.2       1 MOL        -0.3774
     18 O13       -22.6750    2.3850   14.1530 O.3       1 MOL        -0.2507
     19 C14       -22.0280    1.9580   12.9650 C.3       1 MOL         0.1113
     20 C16       -22.1890    4.4030   12.3080 C.ar      1 MOL        -0.0427
     21 C18       -22.3540    6.7800   11.6400 C.1       1 MOL        -0.0715
     22 C19       -22.4810    7.9350   11.8130 C.1       1 MOL        -0.1139
     23 H1        -22.0630    5.8039    9.2469 H         1 MOL         0.0572
     24 H2        -21.8028    3.4373    8.6060 H         1 MOL         0.0600
     25 H3        -21.7858    1.6872   10.3448 H         1 MOL         0.0559
     26 H4        -27.7165    5.2359   16.5998 H         1 MOL         0.1024
     27 H5        -27.1357    4.8244   18.8750 H         1 MOL         0.2010
     28 H6        -28.6158    5.3393   19.3785 H         1 MOL         0.2010
     29 H7        -27.5896    6.3879   18.6321 H         1 MOL         0.2010
     30 H8        -29.9243    3.4643   17.4307 H         1 MOL         0.0339
     31 H9        -28.3635    3.0847   18.2347 H         1 MOL         0.0339
     32 H10       -28.7061    3.4044   15.2163 H         1 MOL         0.0269
     33 H11       -28.8085    1.8322   16.0792 H         1 MOL         0.0269
     34 H12       -26.4885    1.8811   16.6517 H         1 MOL         0.0285
     35 H13       -26.3320    3.6112   16.1945 H         1 MOL         0.0285
     36 H14       -27.1868    2.6593   13.8175 H         1 MOL         0.0519
     37 H15       -26.4515    1.1470   14.4491 H         1 MOL         0.0519
     38 H16       -25.0187    3.6560   13.7789 H         1 MOL         0.1867
     39 H17       -20.9857    1.6903   13.1929 H         1 MOL         0.0776
     40 H18       -22.5519    1.0800   12.5593 H         1 MOL         0.0776
     41 H19       -22.2905    4.6753   13.3523 H         1 MOL         0.0567
     42 H20       -22.5952    8.9732   11.9685 H         1 MOL         0.1232
@<TRIPOS>BOND
     1    1    5 ar 
     2   19    1 1  
     3    1   20 ar 
     4    2    3 ar 
     5   20    2 ar 
     6    2   21 1  
     7    4    3 ar 
     8    5    4 ar 
     9    7    6 ar 
    10    7    8 ar 
    11    9    7 1  
    12    9   10 1  
    13   11    9 1  
    14   12   11 1  
    15   13   12 1  
    16   14   13 1  
    17   15   14 1  
    18   16   15 am 
    19   16   17 2  
    20   18   16 1  
    21   18   19 1  
    22   21   22 3  
    23    3   23 1  
    24    4   24 1  
    25    5   25 1  
    26    9   26 1  
    27   10   27 1  
    28   10   28 1  
    29   10   29 1  
    30   11   30 1  
    31   11   31 1  
    32   12   32 1  
    33   12   33 1  
    34   13   34 1  
    35   13   35 1  
    36   14   36 1  
    37   14   37 1  
    38   15   38 1  
    39   19   39 1  
    40   19   40 1  
    41   20   41 1  
    42   22   42 1  
@<TRIPOS>SUBSTRUCTURE
     1 MOL         1

