### 
### Created by X-TOOL on Mon Aug  2 16:11:52 2021
### 

@<TRIPOS>MOLECULE
6aao_ligand
   49    49     1     0     0
SMALL
GAST_HUCK


@<TRIPOS>ATOM
      1 C15        79.4710   12.5300   10.8440 C.3       1 MOL        -0.0223
      2 C17        79.5360   14.6990    9.4150 C.3       1 MOL        -0.0530
      3 C20        78.5260   15.0570   12.5130 C.3       1 MOL        -0.0504
      4 C21        79.3500   13.7760   12.8810 C.3       1 MOL        -0.0223
      5 OXT        73.2640   12.8480   19.6770 O.co2     1 MOL        -0.5643
      6 C          73.0950   13.7460   18.6740 C.2       1 MOL         0.0844
      7 O          73.4490   15.0610   18.8410 O.co2     1 MOL        -0.5643
      8 CA         72.5470   13.1870   17.3800 C.3       1 MOL         0.0283
      9 N          72.0400   14.2370   16.4930 N.4       1 MOL         0.2327
     10 CB         73.7010   12.4690   16.6970 C.3       1 MOL         0.0025
     11 CG         73.4070   12.1220   15.2420 C.3       1 MOL        -0.0445
     12 CD         74.4490   11.1070   14.7390 C.3       1 MOL        -0.0325
     13 CE         75.8760   11.6800   14.5560 C.3       1 MOL         0.0328
     14 NZ         76.8710   10.6040   14.2460 N.am      1 MOL        -0.2625
     15 C11        78.3070   10.9410   13.9960 C.2       1 MOL         0.3197
     16 O12        79.0500   11.0000   14.8860 O.2       1 MOL        -0.3775
     17 O13        79.0580   11.2340   12.7900 O.3       1 MOL        -0.2606
     18 C14        78.8080   12.5170   12.1660 C.3       1 MOL         0.0882
     19 C16        78.9330   13.3720    9.7660 C.3       1 MOL        -0.0504
     20 C18        78.8370   15.9320    9.9870 C.3       1 MOL        -0.0531
     21 C19        79.1340   16.0860   11.5050 C.3       1 MOL        -0.0530
     22 H1         79.4632   11.4944   10.4734 H         1 MOL         0.0293
     23 H2         80.5095   12.8517   11.0114 H         1 MOL         0.0293
     24 H3         79.5320   14.7897    8.3188 H         1 MOL         0.0265
     25 H4         80.5738   14.7027    9.7795 H         1 MOL         0.0265
     26 H5         78.3362   15.5987   13.4513 H         1 MOL         0.0266
     27 H6         77.5711   14.7148   12.0875 H         1 MOL         0.0266
     28 H7         79.2959   13.6185   13.9683 H         1 MOL         0.0293
     29 H8         80.3980   13.9299   12.5845 H         1 MOL         0.0293
     30 H9         71.7347   12.4784   17.5989 H         1 MOL         0.1024
     31 H10        71.6862   13.8197   15.6464 H         1 MOL         0.2010
     32 H11        72.7867   14.8750   16.2665 H         1 MOL         0.2010
     33 H12        71.2982   14.7386   16.9558 H         1 MOL         0.2010
     34 H13        73.9083   11.5378   17.2447 H         1 MOL         0.0339
     35 H14        74.5877   13.1191   16.7303 H         1 MOL         0.0339
     36 H15        73.4577   13.0343   14.6295 H         1 MOL         0.0269
     37 H16        72.4009   11.6840   15.1650 H         1 MOL         0.0269
     38 H17        74.1084   10.7195   13.7675 H         1 MOL         0.0285
     39 H18        74.5017   10.2821   15.4648 H         1 MOL         0.0285
     40 H19        76.1778   12.1876   15.4840 H         1 MOL         0.0519
     41 H20        75.8655   12.4046   13.7285 H         1 MOL         0.0519
     42 H21        76.5723    9.6505   14.2057 H         1 MOL         0.1867
     43 H22        77.7196   12.6251   12.0486 H         1 MOL         0.0647
     44 H23        77.8829   13.5708   10.0262 H         1 MOL         0.0266
     45 H24        78.9751   12.7635    8.8506 H         1 MOL         0.0266
     46 H25        77.7515   15.8302    9.8413 H         1 MOL         0.0265
     47 H26        79.1957   16.8270    9.4576 H         1 MOL         0.0265
     48 H27        80.2267   16.0440   11.6238 H         1 MOL         0.0265
     49 H28        78.7707   17.0804   11.8035 H         1 MOL         0.0265
@<TRIPOS>BOND
     1   18    1 1  
     2    1   19 1  
     3   19    2 1  
     4    2   20 1  
     5    4    3 1  
     6    3   21 1  
     7   18    4 1  
     8    6    5 ar 
     9    6    7 ar 
    10    8    6 1  
    11    8    9 1  
    12   10    8 1  
    13   11   10 1  
    14   12   11 1  
    15   13   12 1  
    16   14   13 1  
    17   15   14 am 
    18   15   16 2  
    19   17   15 1  
    20   17   18 1  
    21   20   21 1  
    22    1   22 1  
    23    1   23 1  
    24    2   24 1  
    25    2   25 1  
    26    3   26 1  
    27    3   27 1  
    28    4   28 1  
    29    4   29 1  
    30    8   30 1  
    31    9   31 1  
    32    9   32 1  
    33    9   33 1  
    34   10   34 1  
    35   10   35 1  
    36   11   36 1  
    37   11   37 1  
    38   12   38 1  
    39   12   39 1  
    40   13   40 1  
    41   13   41 1  
    42   14   42 1  
    43   18   43 1  
    44   19   44 1  
    45   19   45 1  
    46   20   46 1  
    47   20   47 1  
    48   21   48 1  
    49   21   49 1  
@<TRIPOS>SUBSTRUCTURE
     1 MOL         1

