### 
### Created by X-TOOL on Mon Aug  2 16:11:53 2021
### 

@<TRIPOS>MOLECULE
6aaq_ligand
   49    50     1     0     0
SMALL
GAST_HUCK


@<TRIPOS>ATOM
      1 C15        28.1600   47.7640   11.6920 C.3       1 MOL        -0.0070
      2 C17        28.3670   50.1050   12.9180 C.3       1 MOL        -0.0387
      3 C20        28.7430   51.6340   10.3830 C.1       1 MOL        -0.1022
      4 C21        29.5950   49.6090   10.2060 C.3       1 MOL        -0.0387
      5 C22        28.3370   48.8360   10.5860 C.3       1 MOL        -0.0315
      6 C          21.7200   50.1480   17.8160 C.2       1 MOL         0.0844
      7 CA         23.0350   49.3480   17.8100 C.3       1 MOL         0.0283
      8 CB         22.8690   47.8410   17.5040 C.3       1 MOL         0.0025
      9 CG         22.8800   47.5000   15.9980 C.3       1 MOL        -0.0445
     10 CD         24.1920   46.8420   15.5920 C.3       1 MOL        -0.0325
     11 CE         24.7890   47.4640   14.3270 C.3       1 MOL         0.0328
     12 C11        27.1290   46.6020   14.3630 C.2       1 MOL         0.3195
     13 C14        29.0030   47.3540   12.8990 C.3       1 MOL         0.0806
     14 C16        27.6210   49.2020   11.8970 C.3       1 MOL        -0.0315
     15 C18        28.0360   51.6010   12.7760 C.3       1 MOL         0.0094
     16 C19        28.3790   51.8750   11.4800 C.1       1 MOL        -0.1022
     17 C23        29.2240   50.8580    9.3740 C.3       1 MOL         0.0094
     18 N          23.6630   49.5730   19.0890 N.4       1 MOL         0.2327
     19 NZ         26.2130   47.7020   14.4340 N.am      1 MOL        -0.2625
     20 OXT        21.6740   51.3300   18.5070 O.co2     1 MOL        -0.5643
     21 O          20.6200   49.7080   17.1310 O.co2     1 MOL        -0.5643
     22 O12        26.6150   45.5190   14.5530 O.2       1 MOL        -0.3775
     23 O13        28.5370   46.7180   14.1000 O.3       1 MOL        -0.2636
     24 H1         27.5130   46.9152   11.4258 H         1 MOL         0.0332
     25 H2         29.4494   49.9733   12.7726 H         1 MOL         0.0277
     26 H3         28.0915   49.7830   13.9331 H         1 MOL         0.0277
     27 H4         30.2548   48.9597    9.6118 H         1 MOL         0.0277
     28 H5         30.1179   49.9243   11.1210 H         1 MOL         0.0277
     29 H6         27.7511   48.6955    9.6657 H         1 MOL         0.0307
     30 H7         23.6827   49.7654   17.0250 H         1 MOL         0.1024
     31 H8         21.9107   47.5058   17.9273 H         1 MOL         0.0339
     32 H9         23.6938   47.2971   17.9876 H         1 MOL         0.0339
     33 H10        22.7491   48.4263   15.4194 H         1 MOL         0.0269
     34 H11        22.0506   46.8111   15.7800 H         1 MOL         0.0269
     35 H12        24.0091   45.7731   15.4077 H         1 MOL         0.0285
     36 H13        24.9131   46.9541   16.4150 H         1 MOL         0.0285
     37 H14        24.2862   48.4237   14.1368 H         1 MOL         0.0519
     38 H15        24.6097   46.7824   13.4825 H         1 MOL         0.0519
     39 H16        29.4843   48.2832   13.2381 H         1 MOL         0.0614
     40 H17        29.7658   46.6725   12.4944 H         1 MOL         0.0614
     41 H18        26.5406   49.4083   11.9107 H         1 MOL         0.0307
     42 H19        28.6303   52.2049   13.4775 H         1 MOL         0.0397
     43 H20        26.9655   51.7863   12.9484 H         1 MOL         0.0397
     44 H21        30.1018   51.3078    8.8870 H         1 MOL         0.0397
     45 H22        28.4566   50.6392    8.6169 H         1 MOL         0.0397
     46 H23        23.7523   50.5641   19.2497 H         1 MOL         0.2010
     47 H24        24.5770   49.1481   19.0939 H         1 MOL         0.2010
     48 H25        23.0984   49.1641   19.8171 H         1 MOL         0.2010
     49 H26        26.5571   48.6328   14.5573 H         1 MOL         0.1867
@<TRIPOS>BOND
     1    1    5 1  
     2   13    1 1  
     3    1   14 1  
     4   14    2 1  
     5    2   15 1  
     6    3   16 3  
     7   17    3 1  
     8    5    4 1  
     9    4   17 1  
    10   14    5 1  
    11    7    6 1  
    12    6   20 ar 
    13    6   21 ar 
    14    8    7 1  
    15    7   18 1  
    16    9    8 1  
    17   10    9 1  
    18   11   10 1  
    19   19   11 1  
    20   12   19 am 
    21   12   22 2  
    22   23   12 1  
    23   13   23 1  
    24   15   16 1  
    25    1   24 1  
    26    2   25 1  
    27    2   26 1  
    28    4   27 1  
    29    4   28 1  
    30    5   29 1  
    31    7   30 1  
    32    8   31 1  
    33    8   32 1  
    34    9   33 1  
    35    9   34 1  
    36   10   35 1  
    37   10   36 1  
    38   11   37 1  
    39   11   38 1  
    40   13   39 1  
    41   13   40 1  
    42   14   41 1  
    43   15   42 1  
    44   15   43 1  
    45   17   44 1  
    46   17   45 1  
    47   18   46 1  
    48   18   47 1  
    49   18   48 1  
    50   19   49 1  
@<TRIPOS>SUBSTRUCTURE
     1 MOL         1

