### 
### Created by X-TOOL on Mon Sep 10 21:12:44 2018
### 

@<TRIPOS>MOLECULE
6abp_ligand
   20    20     1     0     0
SMALL
GAST_HUCK


@<TRIPOS>ATOM
      1 H1         14.2963   55.5354   55.4649 H         1 ARA         0.0935
      2 H2         12.9906   58.2102   54.5688 H         1 ARA         0.0671
      3 H3         12.3901   55.3659   54.1275 H         1 ARA         0.0647
      4 H4         12.8786   55.7364   51.7121 H         1 ARA         0.0643
      5 H5         15.4265   56.3661   51.9894 H         1 ARA         0.0587
      6 H6         14.8390   55.0017   52.9993 H         1 ARA         0.0587
      7 H7         15.7229   57.1044   56.3782 H         1 ARA         0.2126
      8 H8         11.2044   57.1666   55.7551 H         1 ARA         0.2101
      9 H9         10.4826   56.7724   54.0979 H         1 ARA         0.2100
     10 H10        12.4844   58.0635   51.6395 H         1 ARA         0.2100
     11 C1         14.3290   56.6010   55.1940 C.3       1 ARA         0.1850
     12 C2         12.9450   57.1400   54.8190 C.3       1 ARA         0.1339
     13 C3         12.4230   56.4070   53.7740 C.3       1 ARB         0.1137
     14 C4         13.2900   56.4430   52.4480 C.3       1 ARA         0.1069
     15 C5         14.7570   56.0830   52.8150 C.3       1 ARB         0.0792
     16 O1         14.8230   57.3560   56.2070 O.3       1 ARA        -0.3649
     17 O2         12.0900   56.8890   55.9580 O.3       1 ARA        -0.3841
     18 O3         11.0620   56.7740   53.3450 O.3       1 ARB        -0.3864
     19 O4         13.3570   57.7810   51.8870 O.3       1 ARB        -0.3869
     20 O5         15.1350   56.8380   54.0550 O.3       1 ARB        -0.3462
@<TRIPOS>BOND
     1   11    1 1  
     2   12    2 1  
     3   13    3 1  
     4   14    4 1  
     5   15    5 1  
     6   15    6 1  
     7   16    7 1  
     8   17    8 1  
     9   18    9 1  
    10   19   10 1  
    11   12   11 1  
    12   11   16 1  
    13   11   20 1  
    14   13   12 1  
    15   12   17 1  
    16   14   13 1  
    17   13   18 1  
    18   14   15 1  
    19   14   19 1  
    20   15   20 1  
@<TRIPOS>SUBSTRUCTURE
     1 ARA         1

