### 
### Created by X-TOOL on Mon Aug  2 16:12:35 2021
### 

@<TRIPOS>MOLECULE
6abx_ligand
   18    17     1     0     0
SMALL
GAST_HUCK


@<TRIPOS>ATOM
      1 CAC        -7.8850    5.5680   -7.1530 C.2       1 FLC         0.0371
      2 CA         -6.6230    6.2150   -6.6720 C.3       1 FLC         0.0356
      3 CB         -6.1640    6.3710   -5.2460 C.3       1 FLC         0.1328
      4 CBC        -5.8660    7.7030   -4.5610 C.2       1 FLC         0.0796
      5 CG         -5.3870    5.4510   -4.5780 C.3       1 FLC         0.0356
      6 CGC        -5.7590    4.0840   -4.9610 C.2       1 FLC         0.0371
      7 OA1        -8.1030    5.9940   -8.3450 O.co2     1 FLC        -0.5690
      8 OA2        -8.5400    4.6300   -6.5240 O.co2     1 FLC        -0.5690
      9 OB1        -5.5570    8.7050   -5.2540 O.co2     1 FLC        -0.5449
     10 OB2        -5.7970    7.8060   -3.3020 O.co2     1 FLC        -0.5449
     11 OG1        -5.5940    3.5120   -6.0370 O.co2     1 FLC        -0.5690
     12 OG2        -6.1370    3.5720   -3.9860 O.co2     1 FLC        -0.5690
     13 OHB        -7.4110    6.0790   -4.5090 O.3       1 FLC        -0.3818
     14 H1         -6.6624    7.2400   -7.0692 H         1 FLC         0.0452
     15 H2         -5.8141    5.6598   -7.1694 H         1 FLC         0.0452
     16 H3         -5.5316    5.5746   -3.4946 H         1 FLC         0.0452
     17 H4         -4.3296    5.6213   -4.8286 H         1 FLC         0.0452
     18 H5         -7.7670    5.2503   -4.8071 H         1 FLC         0.2091
@<TRIPOS>BOND
     1    1    2 1  
     2    1    7 ar 
     3    1    8 ar 
     4    2    3 1  
     5    3    4 1  
     6    3    5 1  
     7    3   13 1  
     8    4    9 ar 
     9    4   10 ar 
    10    5    6 1  
    11    6   11 ar 
    12    6   12 ar 
    13    2   14 1  
    14    2   15 1  
    15    5   16 1  
    16    5   17 1  
    17   13   18 1  
@<TRIPOS>SUBSTRUCTURE
     1 FLC         1

