### 
### Created by X-TOOL on Wed Jan  1 15:39:37 2020
### 

@<TRIPOS>MOLECULE
6acb_ligand
   70    76     1     0     0
SMALL
GAST_HUCK


@<TRIPOS>ATOM
      1 C1         30.2920  -30.6480  -40.5680 C.ar      1 9T9        -0.0153
      2 C2         30.5280  -30.6150  -41.9480 C.ar      1 9T9         0.0325
      3 C3         31.7430  -30.1240  -42.4260 C.ar      1 9T9        -0.0112
      4 C4         32.7120  -29.7010  -41.5330 C.ar      1 9T9         0.1148
      5 C5         32.5080  -29.7250  -40.1440 C.ar      1 9T9         0.0803
      6 C6         31.2730  -30.1880  -39.7160 C.ar      1 9T9         0.1339
      7 O7         33.8930  -29.2500  -42.0820 O.3       1 9T9        -0.2783
      8 C8         34.9610  -29.0060  -41.2800 C.2       1 9T9         0.1299
      9 C9         34.8330  -28.8080  -39.8770 C.2       1 9T9         0.0580
     10 C10        33.5720  -29.2830  -39.2240 C.2       1 9T9         0.1208
     11 C11        36.2640  -28.9050  -41.6210 C.2       1 9T9         0.0926
     12 N12        36.9800  -28.6450  -40.4940 N.pl3     1 9T9        -0.2747
     13 C13        36.1410  -28.5740  -39.4150 C.2       1 9T9         0.1058
     14 O14        33.4100  -29.3130  -37.9990 O.2       1 9T9        -0.4043
     15 C15        36.7480  -28.2530  -38.1360 C.2       1 9T9         0.1178
     16 C16        36.7840  -29.0850  -43.0160 C.3       1 9T9         0.0292
     17 C17        37.0420  -30.4960  -43.4830 C.ar      1 9T9        -0.0502
     18 C18        38.3360  -31.0060  -43.4970 C.ar      1 9T9        -0.0378
     19 C19        38.5340  -32.3020  -43.9110 C.ar      1 9T9         0.1173
     20 C20        37.4870  -33.0910  -44.3080 C.ar      1 9T9         0.1162
     21 C21        36.1940  -32.6190  -44.3010 C.ar      1 9T9        -0.0474
     22 C22        35.9850  -31.3110  -43.8890 C.ar      1 9T9        -0.0781
     23 O23        39.6950  -33.0370  -43.8880 O.3       1 9T9        -0.2927
     24 C24        39.3580  -34.2860  -44.4940 C.3       1 9T9         0.1854
     25 O25        37.9430  -34.3390  -44.6660 O.3       1 9T9        -0.2954
     26 S26        35.8150  -28.2320  -36.6840 S.3       1 9T9        -0.0158
     27 C27        37.2030  -27.7060  -35.8290 C.2       1 9T9         0.0036
     28 C28        38.2430  -27.5910  -36.6630 C.2       1 9T9        -0.0254
     29 N29        38.0010  -27.9060  -37.9790 N.2       1 9T9        -0.3254
     30 F30        30.9980  -30.1200  -38.3930 F         1 9T9        -0.1834
     31 N31        29.6030  -31.1090  -42.8560 N.pl3     1 9T9        -0.3176
     32 C32        28.3330  -31.7170  -42.4960 C.3       1 9T9         0.0646
     33 C33        28.4580  -33.2140  -42.2440 C.3       1 9T9        -0.0114
     34 N34        27.9860  -33.6500  -40.9170 N.4       1 9T9         0.2441
     35 C35        28.1800  -35.1010  -40.6880 C.3       1 9T9         0.0095
     36 C36        27.0710  -35.9330  -41.3390 C.3       1 9T9         0.0092
     37 N37        25.7560  -35.5070  -40.8640 N.4       1 9T9         0.2405
     38 C38        25.5580  -34.1030  -41.2100 C.3       1 9T9         0.0092
     39 C39        26.6100  -33.2320  -40.5410 C.3       1 9T9         0.0095
     40 C40        24.6880  -36.3510  -41.4330 C.3       1 9T9        -0.0427
     41 H1         29.3552  -31.0283  -40.1771 H         1 9T9         0.0431
     42 H2         31.9275  -30.0739  -43.4930 H         1 9T9         0.0417
     43 H3         38.0018  -28.5201  -40.4580 H         1 9T9         0.2311
     44 H4         37.7337  -28.5347  -43.0879 H         1 9T9         0.0576
     45 H5         36.0490  -28.6393  -43.7024 H         1 9T9         0.0576
     46 H6         39.1739  -30.3922  -43.1868 H         1 9T9         0.0453
     47 H7         35.3664  -33.2486  -44.6073 H         1 9T9         0.0493
     48 H8         34.9768  -30.9128  -43.8824 H         1 9T9         0.0440
     49 H9         39.6841  -35.1128  -43.8458 H         1 9T9         0.0970
     50 H10        39.8539  -34.3695  -45.4723 H         1 9T9         0.0970
     51 H11        37.2344  -27.4956  -34.7610 H         1 9T9         0.0701
     52 H12        39.2241  -27.2667  -36.3192 H         1 9T9         0.0562
     53 H13        29.8328  -31.0399  -43.8577 H         1 9T9         0.1774
     54 H14        27.6184  -31.5552  -43.3165 H         1 9T9         0.0567
     55 H15        27.9568  -31.2349  -41.5816 H         1 9T9         0.0567
     56 H16        29.5180  -33.4917  -42.3404 H         1 9T9         0.0834
     57 H17        27.8696  -33.7419  -43.0089 H         1 9T9         0.0834
     58 H18        28.5926  -33.1837  -40.2608 H         1 9T9         0.2038
     59 H19        28.1804  -35.2936  -39.6050 H         1 9T9         0.0868
     60 H20        29.1481  -35.4025  -41.1144 H         1 9T9         0.0868
     61 H21        27.2197  -36.9931  -41.0861 H         1 9T9         0.0868
     62 H22        27.1186  -35.8063  -42.4306 H         1 9T9         0.0868
     63 H23        25.7299  -35.5987  -39.8605 H         1 9T9         0.2035
     64 H24        24.5597  -33.7856  -40.8746 H         1 9T9         0.0868
     65 H25        25.6327  -33.9858  -42.3012 H         1 9T9         0.0868
     66 H26        26.4573  -32.1873  -40.8496 H         1 9T9         0.0868
     67 H27        26.4982  -33.3120  -39.4496 H         1 9T9         0.0868
     68 H28        24.8638  -37.4010  -41.1561 H         1 9T9         0.0778
     69 H29        24.6899  -36.2556  -42.5288 H         1 9T9         0.0778
     70 H30        23.7141  -36.0258  -41.0382 H         1 9T9         0.0778
@<TRIPOS>BOND
     1    1    2 ar 
     2    1    6 ar 
     3    2    3 ar 
     4    2   31 1  
     5    3    4 ar 
     6    4    5 ar 
     7    4    7 1  
     8    5    6 ar 
     9    5   10 1  
    10    6   30 1  
    11    7    8 1  
    12    8    9 1  
    13    8   11 2  
    14    9   10 1  
    15    9   13 2  
    16   10   14 2  
    17   11   12 1  
    18   11   16 1  
    19   12   13 1  
    20   13   15 1  
    21   15   26 1  
    22   15   29 2  
    23   16   17 1  
    24   17   18 ar 
    25   17   22 ar 
    26   18   19 ar 
    27   19   20 ar 
    28   19   23 1  
    29   20   21 ar 
    30   20   25 1  
    31   21   22 ar 
    32   23   24 1  
    33   24   25 1  
    34   26   27 1  
    35   27   28 2  
    36   28   29 1  
    37   31   32 1  
    38   32   33 1  
    39   33   34 1  
    40   34   35 1  
    41   34   39 1  
    42   35   36 1  
    43   36   37 1  
    44   37   38 1  
    45   37   40 1  
    46   38   39 1  
    47    1   41 1  
    48    3   42 1  
    49   12   43 1  
    50   16   44 1  
    51   16   45 1  
    52   18   46 1  
    53   21   47 1  
    54   22   48 1  
    55   24   49 1  
    56   24   50 1  
    57   27   51 1  
    58   28   52 1  
    59   31   53 1  
    60   32   54 1  
    61   32   55 1  
    62   33   56 1  
    63   33   57 1  
    64   34   58 1  
    65   35   59 1  
    66   35   60 1  
    67   36   61 1  
    68   36   62 1  
    69   37   63 1  
    70   38   64 1  
    71   38   65 1  
    72   39   66 1  
    73   39   67 1  
    74   40   68 1  
    75   40   69 1  
    76   40   70 1  
@<TRIPOS>SUBSTRUCTURE
     1 9T9         1

