### 
### Created by X-TOOL on Mon Aug  2 16:12:36 2021
### 

@<TRIPOS>MOLECULE
6aej_ligand
   38    39     1     0     0
SMALL
GAST_HUCK


@<TRIPOS>ATOM
      1 C10        31.0860    6.5790   26.1880 C.1       1 MOL         0.1215
      2 N12        32.5070    8.0020   24.4720 N.am      1 MOL        -0.2468
      3 C21        33.8910    6.9520   22.1450 C.3       1 MOL         0.0519
      4 C22        33.4460    6.0610   23.2620 C.3       1 MOL        -0.0088
      5 O15        28.6230    4.8320   32.1580 O.2       1 MOL        -0.4843
      6 N14        29.3640    5.8890   31.1460 N.2       1 MOL        -0.1774
      7 O16        30.9140    6.3720   31.3710 O.2       1 MOL        -0.4843
      8 C03        28.7290    6.3330   30.0300 C.ar      1 MOL         0.2877
      9 C04        29.4170    7.0590   29.0320 C.ar      1 MOL         0.1192
     10 C02        27.3520    6.0380   29.8460 C.ar      1 MOL         0.3938
     11 O17        26.6400    5.3280   30.7900 O.3       1 MOL        -0.1723
     12 C01        26.6850    6.4730   28.6860 C.ar      1 MOL         0.3436
     13 O18        25.3560    6.1780   28.5510 O.3       1 MOL        -0.2169
     14 C06        27.3900    7.1980   27.7250 C.ar      1 MOL         0.1253
     15 C05        28.7600    7.4770   27.8710 C.ar      1 MOL         0.1079
     16 C07        29.4840    8.2210   26.9320 C.3       1 MOL         0.0880
     17 C08        30.7150    7.6680   26.1490 C.3       1 MOL         0.2004
     18 N11        31.3720    5.6590   26.2400 N.1       1 MOL        -0.3000
     19 C09        31.4740    8.5280   25.1910 C.2       1 MOL         0.2157
     20 O13        31.0890    9.6730   25.0860 O.2       1 MOL        -0.3936
     21 C23        33.0680    6.6540   24.5420 C.3       1 MOL         0.0383
     22 O20        33.5420    8.3510   22.2930 O.3       1 MOL        -0.3569
     23 C19        33.2730    8.8580   23.5870 C.3       1 MOL         0.1345
     24 H1         33.4343    6.5844   21.2143 H         1 MOL         0.0561
     25 H2         34.9861    6.8810   22.0691 H         1 MOL         0.0561
     26 H3         34.2713    5.3622   23.4634 H         1 MOL         0.0307
     27 H4         32.5722    5.5011   22.8973 H         1 MOL         0.0307
     28 H5         30.4663    7.2946   29.1682 H         1 MOL         0.1524
     29 H6         27.0345    4.4713   30.9042 H         1 MOL         0.3567
     30 H7         25.0368    6.5292   27.7280 H         1 MOL         0.3211
     31 H8         26.8686    7.5549   26.8442 H         1 MOL         0.0860
     32 H9         29.8461    9.1098   27.4695 H         1 MOL         0.0810
     33 H10        28.7555    8.5268   26.1666 H         1 MOL         0.0810
     34 H11        31.3713    7.9495   26.9857 H         1 MOL         0.0907
     35 H12        32.3183    5.9992   25.0101 H         1 MOL         0.0524
     36 H13        33.9666    6.6938   25.1751 H         1 MOL         0.0524
     37 H14        34.2384    9.0623   24.0730 H         1 MOL         0.0832
     38 H15        32.7160    9.7990   23.4678 H         1 MOL         0.0832
@<TRIPOS>BOND
     1   17    1 1  
     2    1   18 3  
     3   19    2 am 
     4    2   21 1  
     5    2   23 1  
     6    4    3 1  
     7    3   22 1  
     8   21    4 1  
     9    6    5 2  
    10    6    7 2  
    11    8    6 1  
    12    9    8 ar 
    13    8   10 ar 
    14   15    9 ar 
    15   10   11 1  
    16   12   10 ar 
    17   12   13 1  
    18   14   12 ar 
    19   15   14 ar 
    20   16   15 1  
    21   17   16 1  
    22   17   19 1  
    23   19   20 2  
    24   22   23 1  
    25    3   24 1  
    26    3   25 1  
    27    4   26 1  
    28    4   27 1  
    29    9   28 1  
    30   11   29 1  
    31   13   30 1  
    32   14   31 1  
    33   16   32 1  
    34   16   33 1  
    35   17   34 1  
    36   21   35 1  
    37   21   36 1  
    38   23   37 1  
    39   23   38 1  
@<TRIPOS>SUBSTRUCTURE
     1 MOL         1

