### 
### Created by X-TOOL on Wed Jan  1 15:39:34 2020
### 

@<TRIPOS>MOLECULE
6af9_ligand
   18    19     1     0     0
SMALL
GAST_HUCK


@<TRIPOS>ATOM
      1 C1        -36.3230   12.9610  -12.6280 C.ar      1 ISN         0.0271
      2 C2        -35.6200   12.2280  -13.6110 C.ar      1 ISN        -0.0682
      3 C3        -35.0630   12.9290  -14.6900 C.ar      1 ISN        -0.0831
      4 C4        -35.2570   14.3050  -14.6920 C.ar      1 ISN        -0.0818
      5 C5        -35.9640   15.0450  -13.7340 C.ar      1 ISN        -0.0465
      6 N1        -37.3520   14.8020  -11.6500 N.am      1 ISN        -0.2330
      7 C6        -36.5810   14.3870  -12.6940 C.ar      1 ISN         0.0748
      8 C7        -37.0350   12.4970  -11.4060 C.3       1 ISN         0.1789
      9 C10       -37.6890   13.7430  -10.9200 C.2       1 ISN         0.2379
     10 O8        -37.8190   11.3880  -11.4630 O.3       1 ISN        -0.3604
     11 O11       -38.4270   13.6990   -9.8970 O.2       1 ISN        -0.3860
     12 H1        -35.5142   11.1520  -13.5327 H         1 ISN         0.0521
     13 H2        -34.5127   12.4265  -15.4773 H         1 ISN         0.0473
     14 H3        -34.8193   14.8599  -15.5139 H         1 ISN         0.0524
     15 H4        -36.0243   16.1246  -13.8113 H         1 ISN         0.0485
     16 H5        -37.6202   15.7472  -11.4636 H         1 ISN         0.2255
     17 H6        -36.2573   12.2325  -10.6744 H         1 ISN         0.0984
     18 H7        -37.3065   10.6554  -11.7839 H         1 ISN         0.2163
@<TRIPOS>BOND
     1    1    2 ar 
     2    1    7 ar 
     3    1    8 1  
     4    2    3 ar 
     5    3    4 ar 
     6    4    5 ar 
     7    5    7 ar 
     8    7    6 1  
     9    6    9 am 
    10    8    9 1  
    11    8   10 1  
    12    9   11 2  
    13    2   12 1  
    14    3   13 1  
    15    4   14 1  
    16    5   15 1  
    17    6   16 1  
    18    8   17 1  
    19   10   18 1  
@<TRIPOS>SUBSTRUCTURE
     1 ISN         1

