### 
### Created by X-TOOL on Wed Jan  1 15:39:34 2020
### 

@<TRIPOS>MOLECULE
6afa_ligand
   18    19     1     0     0
SMALL
GAST_HUCK


@<TRIPOS>ATOM
      1 C1         36.7960  -12.6750  -12.7650 C.ar      1 ISN         0.0271
      2 C2         36.1840  -11.8940  -13.7470 C.ar      1 ISN        -0.0682
      3 C3         35.5470  -12.5480  -14.8000 C.ar      1 ISN        -0.0831
      4 C4         35.5530  -13.9510  -14.8360 C.ar      1 ISN        -0.0818
      5 C5         36.1740  -14.7470  -13.8520 C.ar      1 ISN        -0.0465
      6 N1         37.4930  -14.6660  -11.7080 N.am      1 ISN        -0.2330
      7 C6         36.8160  -14.1710  -12.7830 C.ar      1 ISN         0.0748
      8 C7         37.4950  -12.2780  -11.5350 C.3       1 ISN         0.1789
      9 C10        37.8940  -13.5990  -10.9970 C.2       1 ISN         0.2379
     10 O8         38.4020  -11.1950  -11.5560 O.3       1 ISN        -0.3604
     11 O11        38.5700  -13.6490   -9.9230 O.2       1 ISN        -0.3860
     12 H1         36.2037  -10.8116  -13.6922 H         1 ISN         0.0521
     13 H2         35.0535  -11.9806  -15.5808 H         1 ISN         0.0473
     14 H3         35.0554  -14.4472  -15.6614 H         1 ISN         0.0524
     15 H4         36.1445  -15.8270  -13.9401 H         1 ISN         0.0485
     16 H5         37.6577  -15.6285  -11.4924 H         1 ISN         0.2255
     17 H6         36.7138  -11.9078  -10.8548 H         1 ISN         0.0984
     18 H7         37.9761  -10.4339  -11.9327 H         1 ISN         0.2163
@<TRIPOS>BOND
     1    1    2 ar 
     2    1    7 ar 
     3    1    8 1  
     4    2    3 ar 
     5    3    4 ar 
     6    4    5 ar 
     7    5    7 ar 
     8    7    6 1  
     9    6    9 am 
    10    8    9 1  
    11    8   10 1  
    12    9   11 2  
    13    2   12 1  
    14    3   13 1  
    15    4   14 1  
    16    5   15 1  
    17    6   16 1  
    18    8   17 1  
    19   10   18 1  
@<TRIPOS>SUBSTRUCTURE
     1 ISN         1

