### 
### Created by X-TOOL on Wed Jan  1 15:39:34 2020
### 

@<TRIPOS>MOLECULE
6afc_ligand
   18    19     1     0     0
SMALL
GAST_HUCK


@<TRIPOS>ATOM
      1 O11        30.2750  -24.8330  -22.5140 O.2       1 72R        -0.3865
      2 C8         30.5470  -25.4710  -23.5190 C.2       1 72R         0.2369
      3 N7         31.7200  -25.4660  -24.1660 N.am      1 72R        -0.2352
      4 C6         31.5790  -26.2880  -25.2330 C.ar      1 72R         0.0710
      5 C5         32.3820  -26.4560  -26.2640 C.ar      1 72R        -0.0479
      6 C4         31.9960  -27.2960  -27.2800 C.ar      1 72R        -0.0480
      7 C3         30.7780  -27.9770  -27.2400 C.ar      1 72R         0.1102
      8 F10        30.4820  -28.7530  -28.2600 F         1 72R        -0.1977
      9 C2         29.9190  -27.7600  -26.1850 C.ar      1 72R        -0.0346
     10 C1         30.3610  -26.9140  -25.2110 C.ar      1 72R         0.0257
     11 C9         29.7840  -26.5490  -23.9740 C.3       1 72R         0.1780
     12 O12        28.4110  -26.3950  -23.9790 O.3       1 72R        -0.3605
     13 H1         32.5405  -24.9546  -23.9107 H         1 72R         0.2242
     14 H2         33.3336  -25.9388  -26.3098 H         1 72R         0.0477
     15 H3         32.6519  -27.4332  -28.1320 H         1 72R         0.0513
     16 H4         28.9461  -28.2352  -26.1321 H         1 72R         0.0509
     17 H5         29.9675  -27.3801  -23.2771 H         1 72R         0.0983
     18 H6         28.0026  -27.2139  -24.2340 H         1 72R         0.2163
@<TRIPOS>BOND
     1    1    2 2  
     2    2    3 am 
     3    2   11 1  
     4    3    4 1  
     5    4    5 ar 
     6    4   10 ar 
     7    5    6 ar 
     8    6    7 ar 
     9    7    8 1  
    10    7    9 ar 
    11    9   10 ar 
    12   10   11 1  
    13   11   12 1  
    14    3   13 1  
    15    5   14 1  
    16    6   15 1  
    17    9   16 1  
    18   11   17 1  
    19   12   18 1  
@<TRIPOS>SUBSTRUCTURE
     1 72R         1

