### 
### Created by X-TOOL on Wed Jan  1 15:39:34 2020
### 

@<TRIPOS>MOLECULE
6afd_ligand
   21    22     1     0     0
SMALL
GAST_HUCK


@<TRIPOS>ATOM
      1 C10        33.8290  -25.1150  -26.4690 C.3       1 72S        -0.0366
      2 C5         32.7250  -26.1040  -26.2980 C.ar      1 72S        -0.0294
      3 C4         32.5570  -27.0700  -27.2570 C.ar      1 72S        -0.0798
      4 C3         31.5340  -28.0130  -27.1900 C.ar      1 72S        -0.0896
      5 C2         30.6750  -27.9900  -26.0960 C.ar      1 72S        -0.0751
      6 C1         30.8630  -27.0280  -25.1590 C.ar      1 72S         0.0208
      7 C6         31.8530  -26.0990  -25.2540 C.ar      1 72S         0.0768
      8 N7         31.7690  -25.2280  -24.2020 N.am      1 72S        -0.2362
      9 C8         30.7310  -25.5140  -23.4630 C.2       1 72S         0.2358
     10 O11        30.3450  -24.9230  -22.4660 O.2       1 72S        -0.3871
     11 C9         30.1340  -26.7150  -23.9590 C.3       1 72S         0.1769
     12 O12        28.7380  -26.6580  -24.0750 O.3       1 72S        -0.3607
     13 H1         34.3842  -25.3411  -27.3913 H         1 72S         0.0360
     14 H2         34.5103  -25.1733  -25.6074 H         1 72S         0.0360
     15 H3         33.4065  -24.1015  -26.5345 H         1 72S         0.0360
     16 H4         33.2435  -27.1007  -28.0954 H         1 72S         0.0462
     17 H5         31.4097  -28.7503  -27.9749 H         1 72S         0.0457
     18 H6         29.8792  -28.7192  -25.9956 H         1 72S         0.0466
     19 H7         32.4096  -24.4808  -24.0248 H         1 72S         0.2232
     20 H8         30.3379  -27.5161  -23.2333 H         1 72S         0.0981
     21 H9         28.4150  -27.4868  -24.4086 H         1 72S         0.2163
@<TRIPOS>BOND
     1    1    2 1  
     2    2    3 ar 
     3    2    7 ar 
     4    3    4 ar 
     5    4    5 ar 
     6    5    6 ar 
     7    6    7 ar 
     8    6   11 1  
     9    7    8 1  
    10    8    9 am 
    11    9   10 2  
    12    9   11 1  
    13   11   12 1  
    14    1   13 1  
    15    1   14 1  
    16    1   15 1  
    17    3   16 1  
    18    4   17 1  
    19    5   18 1  
    20    8   19 1  
    21   11   20 1  
    22   12   21 1  
@<TRIPOS>SUBSTRUCTURE
     1 72S         1

