### 
### Created by X-TOOL on Wed Jan  1 15:39:34 2020
### 

@<TRIPOS>MOLECULE
6afe_ligand
   21    22     1     0     0
SMALL
GAST_HUCK


@<TRIPOS>ATOM
      1 F13       -33.4750   24.1190  -26.5490 F         1 72T        -0.2429
      2 C10       -33.8130   25.3220  -26.3190 C.3       1 72T         0.3536
      3 F14       -34.4060   25.3300  -25.2650 F         1 72T        -0.2429
      4 F15       -34.6470   25.6770  -27.2520 F         1 72T        -0.2429
      5 C5        -32.6920   26.2170  -26.2220 C.ar      1 72T         0.0572
      6 C4        -32.4770   27.1930  -27.1950 C.ar      1 72T        -0.0525
      7 C3        -31.4090   28.0540  -27.1220 C.ar      1 72T        -0.0543
      8 C2        -30.5850   27.9640  -26.0260 C.ar      1 72T        -0.0395
      9 C1        -30.8050   27.0060  -25.1130 C.ar      1 72T         0.0625
     10 C6        -31.8610   26.1620  -25.2030 C.ar      1 72T         0.1203
     11 N7        -31.8150   25.3020  -24.1510 N.am      1 72T        -0.2045
     12 C8        -30.7510   25.5730  -23.4340 C.2       1 72T         0.2586
     13 O11       -30.3960   24.9150  -22.4650 O.2       1 72T        -0.3738
     14 C9        -30.1260   26.7150  -23.9140 C.3       1 72T         0.1907
     15 O12       -28.6910   26.6970  -23.9860 O.3       1 72T        -0.3592
     16 H1        -33.1675   27.2739  -28.0267 H         1 72T         0.0710
     17 H2        -31.2223   28.7811  -27.9040 H         1 72T         0.0583
     18 H3        -29.7644   28.6610  -25.9002 H         1 72T         0.0732
     19 H4        -32.4816   24.5825  -23.9564 H         1 72T         0.2508
     20 H5        -30.3576   27.5257  -23.2075 H         1 72T         0.0998
     21 H6        -28.3817   27.5279  -24.3272 H         1 72T         0.2164
@<TRIPOS>BOND
     1    1    2 1  
     2    2    3 1  
     3    2    4 1  
     4    2    5 1  
     5    5    6 ar 
     6    5   10 ar 
     7    6    7 ar 
     8    7    8 ar 
     9    8    9 ar 
    10    9   10 ar 
    11    9   14 1  
    12   10   11 1  
    13   11   12 am 
    14   12   13 2  
    15   12   14 1  
    16   14   15 1  
    17    6   16 1  
    18    7   17 1  
    19    8   18 1  
    20   11   19 1  
    21   14   20 1  
    22   15   21 1  
@<TRIPOS>SUBSTRUCTURE
     1 72T         1

