### 
### Created by X-TOOL on Wed Jan  1 15:39:35 2020
### 

@<TRIPOS>MOLECULE
6aff_ligand
   24    25     1     0     0
SMALL
GAST_HUCK


@<TRIPOS>ATOM
      1 C14        36.4990  -18.7780  -11.6370 C.3       1 72U         0.0643
      2 O13        36.3320  -17.3480  -11.8590 O.3       1 72U        -0.2836
      3 C10        36.2210  -16.9740  -13.1600 C.2       1 72U         0.2512
      4 O15        36.2010  -17.7950  -14.0800 O.2       1 72U        -0.3663
      5 C5         36.0140  -15.6020  -13.3150 C.ar      1 72U         0.0766
      6 C4         35.2960  -15.0750  -14.3590 C.ar      1 72U        -0.0603
      7 C3         35.1280  -13.7100  -14.4880 C.ar      1 72U        -0.0770
      8 C2         35.6650  -12.8290  -13.5330 C.ar      1 72U        -0.0634
      9 C1         36.4060  -13.3930  -12.5510 C.ar      1 72U         0.0338
     10 C6         36.5830  -14.7230  -12.4520 C.ar      1 72U         0.0977
     11 N7         37.3420  -15.0260  -11.4060 N.am      1 72U        -0.2277
     12 C8         37.7690  -13.9010  -10.8440 C.2       1 72U         0.2406
     13 O11        38.5090  -13.8140   -9.8890 O.2       1 72U        -0.3845
     14 C9         37.0710  -12.7940  -11.4510 C.3       1 72U         0.1806
     15 O12        37.7920  -11.5310  -11.6380 O.3       1 72U        -0.3603
     16 H1         36.5788  -18.9746  -10.5577 H         1 72U         0.0575
     17 H2         37.4138  -19.1230  -12.1411 H         1 72U         0.0575
     18 H3         35.6305  -19.3162  -12.0445 H         1 72U         0.0575
     19 H4         34.8544  -15.7394  -15.0929 H         1 72U         0.0577
     20 H5         34.5769  -13.3144  -15.3335 H         1 72U         0.0488
     21 H6         35.4953  -11.7594  -13.5805 H         1 72U         0.0557
     22 H7         37.5572  -15.9508  -11.0922 H         1 72U         0.2288
     23 H8         36.2769  -12.5161  -10.7424 H         1 72U         0.0986
     24 H9         38.0797  -11.2039  -10.7938 H         1 72U         0.2163
@<TRIPOS>BOND
     1    1    2 1  
     2    2    3 1  
     3    3    4 2  
     4    3    5 1  
     5    5    6 ar 
     6    5   10 ar 
     7    6    7 ar 
     8    7    8 ar 
     9    8    9 ar 
    10    9   10 ar 
    11    9   14 1  
    12   10   11 1  
    13   11   12 am 
    14   12   13 2  
    15   12   14 1  
    16   14   15 1  
    17    1   16 1  
    18    1   17 1  
    19    1   18 1  
    20    6   19 1  
    21    7   20 1  
    22    8   21 1  
    23   11   22 1  
    24   14   23 1  
    25   15   24 1  
@<TRIPOS>SUBSTRUCTURE
     1 72U         1

