### 
### Created by X-TOOL on Wed Jan  1 15:39:34 2020
### 

@<TRIPOS>MOLECULE
6afg_ligand
   21    22     1     0     0
SMALL
GAST_HUCK


@<TRIPOS>ATOM
      1 O11       -38.4660   13.9630   -9.9910 O.2       1 72V        -0.3858
      2 C8        -37.7120   13.7620  -10.9550 C.2       1 72V         0.2401
      3 C9        -37.2520   12.5090  -11.3640 C.3       1 72V         0.1791
      4 O12       -38.1750   11.4550  -11.3110 O.3       1 72V        -0.3604
      5 C1        -36.5760   12.7420  -12.5890 C.ar      1 72V         0.0273
      6 C2        -36.0990   11.8880  -13.5350 C.ar      1 72V        -0.0682
      7 C3        -35.4730   12.3970  -14.6890 C.ar      1 72V        -0.0831
      8 C4        -35.3450   13.7770  -14.7930 C.ar      1 72V        -0.0818
      9 C5        -35.8780   14.6160  -13.8030 C.ar      1 72V        -0.0464
     10 C6        -36.4590   14.0930  -12.7110 C.ar      1 72V         0.0773
     11 N7        -37.0650   14.6850  -11.6870 N.am      1 72V        -0.2221
     12 C10       -37.1780   16.1850  -11.5630 C.3       1 72V         0.0440
     13 H1        -36.4761   12.2151  -10.6418 H         1 72V         0.0984
     14 H2        -37.7581   10.6552  -11.6094 H         1 72V         0.2163
     15 H3        -36.2008   10.8172  -13.4003 H         1 72V         0.0521
     16 H4        -35.1049   11.7376  -15.4667 H         1 72V         0.0473
     17 H5        -34.8302   14.2077  -15.6442 H         1 72V         0.0524
     18 H6        -35.8206   15.6921  -13.9201 H         1 72V         0.0485
     19 H7        -37.7175   16.4368  -10.6381 H         1 72V         0.0550
     20 H8        -37.7276   16.5841  -12.4282 H         1 72V         0.0550
     21 H9        -36.1713   16.6273  -11.5322 H         1 72V         0.0550
@<TRIPOS>BOND
     1    1    2 2  
     2    2    3 1  
     3    2   11 am 
     4    3    4 1  
     5    3    5 1  
     6    5    6 ar 
     7    5   10 ar 
     8    6    7 ar 
     9    7    8 ar 
    10    8    9 ar 
    11    9   10 ar 
    12   10   11 1  
    13   11   12 1  
    14    3   13 1  
    15    4   14 1  
    16    6   15 1  
    17    7   16 1  
    18    8   17 1  
    19    9   18 1  
    20   12   19 1  
    21   12   20 1  
    22   12   21 1  
@<TRIPOS>SUBSTRUCTURE
     1 72V         1

