### 
### Created by X-TOOL on Wed Jan  1 15:39:34 2020
### 

@<TRIPOS>MOLECULE
6afh_ligand
   34    36     1     0     0
SMALL
GAST_HUCK


@<TRIPOS>ATOM
      1 O10       -38.7450   13.9010  -10.1200 O.2       1 73F        -0.3858
      2 C8        -38.0340   13.7080  -11.1140 C.2       1 73F         0.2405
      3 C9        -37.4550   12.4650  -11.4720 C.3       1 73F         0.1791
      4 O11       -38.3490   11.3880  -11.4030 O.3       1 73F        -0.3604
      5 C1        -36.8920   12.7010  -12.7490 C.ar      1 73F         0.0273
      6 C2        -36.3130   11.8690  -13.6430 C.ar      1 73F        -0.0682
      7 C3        -35.7580   12.3490  -14.8280 C.ar      1 73F        -0.0831
      8 C4        -35.8380   13.7160  -15.0340 C.ar      1 73F        -0.0818
      9 C5        -36.4410   14.5600  -14.0870 C.ar      1 73F        -0.0463
     10 C6        -36.9270   14.0560  -12.9400 C.ar      1 73F         0.0778
     11 N7        -37.5830   14.6640  -11.9290 N.am      1 73F        -0.2171
     12 C12       -38.0200   16.0870  -11.8340 C.3       1 73F         0.0646
     13 C13       -36.8080   16.9100  -11.5330 C.3       1 73F         0.0065
     14 C14       -37.1740   18.3150  -11.6020 C.ar      1 73F        -0.0406
     15 C15       -37.5330   19.0430  -10.4630 C.ar      1 73F        -0.0603
     16 C16       -37.8690   20.4010  -10.5680 C.ar      1 73F        -0.0686
     17 C17       -37.8450   21.0440  -11.8120 C.ar      1 73F        -0.0687
     18 C18       -37.4900   20.3180  -12.9700 C.ar      1 73F        -0.0686
     19 C19       -37.1540   18.9690  -12.8510 C.ar      1 73F        -0.0603
     20 H1        -36.6390   12.2404  -10.7694 H         1 73F         0.0984
     21 H2        -37.9005   10.5890  -11.6539 H         1 73F         0.2163
     22 H3        -36.2796   10.8059  -13.4340 H         1 73F         0.0521
     23 H4        -35.2895   11.6886  -15.5487 H         1 73F         0.0473
     24 H5        -35.4279   14.1423  -15.9424 H         1 73F         0.0524
     25 H6        -36.5147   15.6237  -14.2824 H         1 73F         0.0485
     26 H7        -38.7601   16.1997  -11.0281 H         1 73F         0.0610
     27 H8        -38.4645   16.4079  -12.7876 H         1 73F         0.0610
     28 H9        -36.0212   16.6952  -12.2711 H         1 73F         0.0451
     29 H10       -36.4393   16.6720  -10.5243 H         1 73F         0.0451
     30 H11       -37.5517   18.5558   -9.4948 H         1 73F         0.0557
     31 H12       -38.1491   20.9564   -9.6803 H         1 73F         0.0599
     32 H13       -38.0981   22.0955  -11.8857 H         1 73F         0.0559
     33 H14       -37.4787   20.8028  -13.9395 H         1 73F         0.0599
     34 H15       -36.8717   18.4122  -13.7372 H         1 73F         0.0557
@<TRIPOS>BOND
     1    1    2 2  
     2    2    3 1  
     3    2   11 am 
     4    3    4 1  
     5    3    5 1  
     6    5    6 ar 
     7    5   10 ar 
     8    6    7 ar 
     9    7    8 ar 
    10    8    9 ar 
    11    9   10 ar 
    12   10   11 1  
    13   11   12 1  
    14   12   13 1  
    15   13   14 1  
    16   14   15 ar 
    17   14   19 ar 
    18   15   16 ar 
    19   16   17 ar 
    20   17   18 ar 
    21   18   19 ar 
    22    3   20 1  
    23    4   21 1  
    24    6   22 1  
    25    7   23 1  
    26    8   24 1  
    27    9   25 1  
    28   12   26 1  
    29   12   27 1  
    30   13   28 1  
    31   13   29 1  
    32   15   30 1  
    33   16   31 1  
    34   17   32 1  
    35   18   33 1  
    36   19   34 1  
@<TRIPOS>SUBSTRUCTURE
     1 73F         1

