### 
### Created by X-TOOL on Wed Jan  1 15:39:34 2020
### 

@<TRIPOS>MOLECULE
6afi_ligand
   24    25     1     0     0
SMALL
GAST_HUCK


@<TRIPOS>ATOM
      1 O11       -38.6910   13.8580  -10.1240 O.2       1 73D        -0.3858
      2 C8        -38.0010   13.6640  -11.1370 C.2       1 73D         0.2403
      3 C9        -37.4370   12.4260  -11.5200 C.3       1 73D         0.1791
      4 O12       -38.2930   11.2910  -11.4740 O.3       1 73D        -0.3604
      5 C1        -36.7970   12.6810  -12.7570 C.ar      1 73D         0.0273
      6 C2        -36.2140   11.8640  -13.6630 C.ar      1 73D        -0.0682
      7 C3        -35.5820   12.3840  -14.7990 C.ar      1 73D        -0.0831
      8 C4        -35.5890   13.7670  -14.9490 C.ar      1 73D        -0.0818
      9 C5        -36.2040   14.5770  -13.9770 C.ar      1 73D        -0.0463
     10 C6        -36.7680   14.0410  -12.8960 C.ar      1 73D         0.0776
     11 N7        -37.4470   14.6200  -11.8910 N.am      1 73D        -0.2193
     12 C10       -37.7770   16.0190  -11.7690 C.3       1 73D         0.0523
     13 C11       -36.5280   16.7080  -11.2260 C.3       1 73D        -0.0395
     14 H1        -36.6430   12.2022  -10.7924 H         1 73D         0.0984
     15 H2        -37.8107   10.5206  -11.7503 H         1 73D         0.2163
     16 H3        -36.2362   10.7914  -13.5077 H         1 73D         0.0521
     17 H4        -35.1083   11.7377  -15.5291 H         1 73D         0.0473
     18 H5        -35.1205   14.2206  -15.8149 H         1 73D         0.0524
     19 H6        -36.2191   15.6527  -14.1097 H         1 73D         0.0485
     20 H7        -38.6185   16.1526  -11.0733 H         1 73D         0.0584
     21 H8        -38.0442   16.4344  -12.7518 H         1 73D         0.0584
     22 H9        -36.7233   17.7845  -11.1121 H         1 73D         0.0254
     23 H10       -35.6931   16.5590  -11.9266 H         1 73D         0.0254
     24 H11       -36.2674   16.2772  -10.2480 H         1 73D         0.0254
@<TRIPOS>BOND
     1    1    2 2  
     2    2    3 1  
     3    2   11 am 
     4    3    4 1  
     5    3    5 1  
     6    5    6 ar 
     7    5   10 ar 
     8    6    7 ar 
     9    7    8 ar 
    10    8    9 ar 
    11    9   10 ar 
    12   10   11 1  
    13   11   12 1  
    14   12   13 1  
    15    3   14 1  
    16    4   15 1  
    17    6   16 1  
    18    7   17 1  
    19    8   18 1  
    20    9   19 1  
    21   12   20 1  
    22   12   21 1  
    23   13   22 1  
    24   13   23 1  
    25   13   24 1  
@<TRIPOS>SUBSTRUCTURE
     1 73D         1

