### 
### Created by X-TOOL on Wed Jan  1 15:39:34 2020
### 

@<TRIPOS>MOLECULE
6afj_ligand
   36    37     1     0     0
SMALL
GAST_HUCK


@<TRIPOS>ATOM
      1 O10       -38.6160   13.7850  -10.1020 O.2       1 73G        -0.3856
      2 C8        -37.8960   13.6980  -11.0970 C.2       1 73G         0.2426
      3 C9        -37.2140   12.5510  -11.5380 C.3       1 73G         0.1792
      4 O11       -38.0320   11.3900  -11.5440 O.3       1 73G        -0.3604
      5 C1        -36.6200   12.9250  -12.7640 C.ar      1 73G         0.0275
      6 C2        -35.9130   12.2220  -13.7020 C.ar      1 73G        -0.0682
      7 C3        -35.4030   12.8800  -14.8380 C.ar      1 73G        -0.0831
      8 C4        -35.6430   14.2630  -14.9080 C.ar      1 73G        -0.0818
      9 C5        -36.3530   14.9270  -13.9270 C.ar      1 73G        -0.0462
     10 C6        -36.8150   14.2650  -12.8770 C.ar      1 73G         0.0802
     11 N7        -37.5520   14.7270  -11.8470 N.am      1 73G        -0.1985
     12 CA        -38.2710   15.9920  -11.6800 C.3       1 73G         0.1547
     13 C         -37.3260   17.1390  -11.4070 C.2       1 73G         0.2623
     14 O         -36.2040   16.9660  -10.9720 O.2       1 73G        -0.3676
     15 O12       -37.8340   18.3710  -11.7510 O.3       1 73G        -0.2749
     16 C13       -37.0850   19.4240  -11.1660 C.3       1 73G         0.0768
     17 C14       -38.1270   20.4950  -10.9440 C.3       1 73G        -0.0252
     18 C15       -38.0040   20.9160   -9.4880 C.3       1 73G        -0.0535
     19 C16       -38.8460   19.9160   -8.6590 C.3       1 73G        -0.0652
     20 H1        -36.3994   12.3415  -10.8292 H         1 73G         0.0984
     21 H2        -37.5239   10.6476  -11.8489 H         1 73G         0.2163
     22 H3        -35.7457   11.1591  -13.5705 H         1 73G         0.0521
     23 H4        -34.8581   12.3515  -15.6118 H         1 73G         0.0473
     24 H5        -35.2610   14.8230  -15.7539 H         1 73G         0.0524
     25 H6        -36.5325   15.9923  -14.0166 H         1 73G         0.0485
     26 H7        -38.9693   15.8966  -10.8355 H         1 73G         0.0848
     27 H8        -38.8350   16.2058  -12.5999 H         1 73G         0.0848
     28 H9        -36.2959   19.7746  -11.8474 H         1 73G         0.0613
     29 H10       -36.6336   19.1075  -10.2141 H         1 73G         0.0613
     30 H11       -39.1324   20.0946  -11.1409 H         1 73G         0.0291
     31 H12       -37.9380   21.3531  -11.6057 H         1 73G         0.0291
     32 H13       -38.3907   21.9372   -9.3554 H         1 73G         0.0263
     33 H14       -36.9514   20.8784   -9.1708 H         1 73G         0.0263
     34 H15       -38.7869   20.1821   -7.5933 H         1 73G         0.0230
     35 H16       -38.4551   18.8982   -8.8049 H         1 73G         0.0230
     36 H17       -39.8944   19.9571   -8.9895 H         1 73G         0.0230
@<TRIPOS>BOND
     1    1    2 2  
     2    2    3 1  
     3    2   11 am 
     4    3    4 1  
     5    3    5 1  
     6    5    6 ar 
     7    5   10 ar 
     8    6    7 ar 
     9    7    8 ar 
    10    8    9 ar 
    11    9   10 ar 
    12   10   11 1  
    13   11   12 1  
    14   12   13 1  
    15   13   14 2  
    16   13   15 1  
    17   15   16 1  
    18   16   17 1  
    19   17   18 1  
    20   18   19 1  
    21    3   20 1  
    22    4   21 1  
    23    6   22 1  
    24    7   23 1  
    25    8   24 1  
    26    9   25 1  
    27   12   26 1  
    28   12   27 1  
    29   16   28 1  
    30   16   29 1  
    31   17   30 1  
    32   17   31 1  
    33   18   32 1  
    34   18   33 1  
    35   19   34 1  
    36   19   35 1  
    37   19   36 1  
@<TRIPOS>SUBSTRUCTURE
     1 73G         1

