### 
### Created by X-TOOL on Mon Aug  2 16:10:32 2021
### 

@<TRIPOS>MOLECULE
6afk_ligand
   51    55     1     0     0
SMALL
GAST_HUCK


@<TRIPOS>ATOM
      1 CAK        41.4210  -26.8510   -5.0420 C.2       1 MOL        -0.0392
      2 CAZ        42.4980  -27.6860   -4.6640 C.ar      1 MOL        -0.0176
      3 CAH        43.8270  -27.4290   -4.2300 C.ar      1 MOL        -0.0711
      4 CAB        44.6790  -28.4910   -3.9290 C.ar      1 MOL        -0.0763
      5 CAC        44.2220  -29.8090   -4.0540 C.ar      1 MOL        -0.0739
      6 CAI        42.9130  -30.0610   -4.4760 C.ar      1 MOL        -0.0404
      7 CBA        42.0360  -28.9790   -4.7880 C.ar      1 MOL         0.0676
      8 NAT        40.7390  -28.9600   -5.2130 N.pl3     1 MOL        -0.2671
      9 CAX        40.3660  -27.7000   -5.3710 C.2       1 MOL         0.1321
     10 CAU        38.9890  -27.2050   -5.8060 C.2       1 MOL         0.2271
     11 OAA        38.3010  -27.8630   -6.5130 O.2       1 MOL        -0.3840
     12 NAR        38.5460  -25.9170   -5.2770 N.am      1 MOL        -0.2800
     13 CBB        37.2220  -25.3350   -5.6260 C.3       1 MOL         0.0604
     14 CAO        37.4560  -23.9220   -6.0940 C.3       1 MOL         0.0476
     15 CAM        36.3090  -25.2790   -4.4890 C.3       1 MOL        -0.0264
     16 CAL        34.9980  -24.7400   -4.8340 C.3       1 MOL        -0.0317
     17 CAN        35.0120  -23.5100   -5.7450 C.3       1 MOL         0.0249
     18 NBC        36.1860  -23.4500   -6.7410 N.pl3     1 MOL        -0.3059
     19 CAY        35.9930  -23.8410   -8.0940 C.2       1 MOL         0.0939
     20 CAJ        34.8570  -23.5500   -8.8280 C.2       1 MOL        -0.0148
     21 NAS        36.8380  -24.5260   -8.8350 N.2       1 MOL        -0.2155
     22 NAQ        36.3320  -24.7030  -10.0280 N.pl3     1 MOL        -0.2275
     23 CAW        35.1550  -24.1280  -10.0560 C.2       1 MOL         0.0900
     24 CAV        34.2480  -24.1080  -11.2030 C.ar      1 MOL         0.0257
     25 CAF        34.6560  -24.7170  -12.3470 C.ar      1 MOL        -0.0257
     26 CAD        33.7930  -24.6990  -13.3880 C.ar      1 MOL         0.0091
     27 NAP        32.6210  -24.1100  -13.2690 N.ar      1 MOL        -0.3003
     28 CAE        32.2300  -23.5110  -12.1820 C.ar      1 MOL         0.0091
     29 CAG        33.0320  -23.5020  -11.0890 C.ar      1 MOL        -0.0257
     30 H1         41.4169  -25.7624   -5.0703 H         1 MOL         0.0399
     31 H2         44.1779  -26.4080   -4.1331 H         1 MOL         0.0556
     32 H3         45.6931  -28.2969   -3.5989 H         1 MOL         0.0522
     33 H4         44.8844  -30.6354   -3.8231 H         1 MOL         0.0550
     34 H5         42.5626  -31.0828   -4.5666 H         1 MOL         0.0550
     35 H6         40.1495  -29.7875   -5.3823 H         1 MOL         0.2261
     36 H7         39.1510  -25.4115   -4.6618 H         1 MOL         0.1846
     37 H8         36.7642  -25.9318   -6.4286 H         1 MOL         0.0574
     38 H9         38.2806  -23.8981   -6.8217 H         1 MOL         0.0530
     39 H10        37.7040  -23.2779   -5.2375 H         1 MOL         0.0530
     40 H11        36.7561  -24.6416   -3.7120 H         1 MOL         0.0289
     41 H12        36.1763  -26.2978   -4.0960 H         1 MOL         0.0289
     42 H13        34.4880  -24.4640   -3.8993 H         1 MOL         0.0284
     43 H14        34.4286  -25.5321   -5.3423 H         1 MOL         0.0284
     44 H15        35.0589  -22.6143   -5.1082 H         1 MOL         0.0507
     45 H16        34.0751  -23.5016   -6.3213 H         1 MOL         0.0507
     46 H17        33.9625  -23.0090   -8.5229 H         1 MOL         0.0368
     47 H18        36.7797  -25.2056  -10.8077 H         1 MOL         0.2466
     48 H19        35.6264  -25.1943  -12.4217 H         1 MOL         0.0709
     49 H20        34.0670  -25.1714  -14.3244 H         1 MOL         0.0815
     50 H21        31.2642  -23.0198  -12.1505 H         1 MOL         0.0815
     51 H22        32.7195  -23.0326  -10.1632 H         1 MOL         0.0709
@<TRIPOS>BOND
     1    1    2 1  
     2    1    9 2  
     3    2    3 ar 
     4    2    7 ar 
     5    3    4 ar 
     6    4    5 ar 
     7    5    6 ar 
     8    6    7 ar 
     9    7    8 1  
    10    8    9 1  
    11    9   10 1  
    12   10   11 2  
    13   10   12 am 
    14   12   13 1  
    15   13   14 1  
    16   13   15 1  
    17   14   18 1  
    18   15   16 1  
    19   16   17 1  
    20   17   18 1  
    21   18   19 1  
    22   19   20 1  
    23   19   21 2  
    24   20   23 2  
    25   21   22 1  
    26   22   23 1  
    27   23   24 1  
    28   24   25 ar 
    29   24   29 ar 
    30   25   26 ar 
    31   26   27 ar 
    32   27   28 ar 
    33   28   29 ar 
    34    1   30 1  
    35    3   31 1  
    36    4   32 1  
    37    5   33 1  
    38    6   34 1  
    39    8   35 1  
    40   12   36 1  
    41   13   37 1  
    42   14   38 1  
    43   14   39 1  
    44   15   40 1  
    45   15   41 1  
    46   16   42 1  
    47   16   43 1  
    48   17   44 1  
    49   17   45 1  
    50   20   46 1  
    51   22   47 1  
    52   25   48 1  
    53   26   49 1  
    54   28   50 1  
    55   29   51 1  
@<TRIPOS>SUBSTRUCTURE
     1 MOL         1

