### 
### Created by X-TOOL on Wed Jan  1 15:39:34 2020
### 

@<TRIPOS>MOLECULE
6afl_ligand
   34    36     1     0     0
SMALL
GAST_HUCK


@<TRIPOS>ATOM
      1 O11        38.4170  -13.8970  -10.2030 O.2       1 73H        -0.3863
      2 C8         37.7550  -13.6390  -11.1950 C.2       1 73H         0.2395
      3 C9         37.2190  -12.3760  -11.5130 C.3       1 73H         0.1782
      4 O12        38.0840  -11.2940  -11.3390 O.3       1 73H        -0.3605
      5 C1         36.6410  -12.5610  -12.7910 C.ar      1 73H         0.0259
      6 C2         36.0820  -11.7110  -13.6830 C.ar      1 73H        -0.0346
      7 C3         35.5220  -12.2590  -14.8510 C.ar      1 73H         0.1102
      8 F10        35.0200  -11.6240  -15.6620 F         1 73H        -0.1977
      9 C4         35.5420  -13.5940  -15.0550 C.ar      1 73H        -0.0480
     10 C5         36.1270  -14.4210  -14.1040 C.ar      1 73H        -0.0477
     11 C6         36.6390  -13.9120  -12.9980 C.ar      1 73H         0.0741
     12 N7         37.2720  -14.5580  -12.0220 N.am      1 73H        -0.2193
     13 C13        37.6330  -15.9610  -11.9730 C.3       1 73H         0.0638
     14 C14        36.4340  -16.7530  -11.6480 C.3       1 73H         0.0063
     15 C15        36.7630  -18.1650  -11.8160 C.ar      1 73H        -0.0406
     16 C16        37.0500  -18.9920  -10.7230 C.ar      1 73H        -0.0603
     17 C17        37.3320  -20.3450  -10.9340 C.ar      1 73H        -0.0686
     18 C18        37.3470  -20.8840  -12.2200 C.ar      1 73H        -0.0687
     19 C19        37.0800  -20.0660  -13.3380 C.ar      1 73H        -0.0686
     20 C20        36.7850  -18.7220  -13.1180 C.ar      1 73H        -0.0603
     21 H1         36.3915  -12.1861  -10.8136 H         1 73H         0.0983
     22 H2         37.6364  -10.4907  -11.5772 H         1 73H         0.2163
     23 H3         36.0663  -10.6421  -13.5032 H         1 73H         0.0509
     24 H4         35.1055  -14.0165  -15.9528 H         1 73H         0.0513
     25 H5         36.1634  -15.4915  -14.2710 H         1 73H         0.0477
     26 H6         38.3995  -16.1180  -11.1998 H         1 73H         0.0608
     27 H7         38.0284  -16.2746  -12.9504 H         1 73H         0.0608
     28 H8         35.6115  -16.4789  -12.3250 H         1 73H         0.0451
     29 H9         36.1318  -16.5620  -10.6077 H         1 73H         0.0451
     30 H10        37.0535  -18.5851   -9.7183 H         1 73H         0.0557
     31 H11        37.5423  -20.9850  -10.0847 H         1 73H         0.0599
     32 H12        37.5648  -21.9364  -12.3613 H         1 73H         0.0559
     33 H13        37.1037  -20.4726  -14.3426 H         1 73H         0.0599
     34 H14        36.5662  -18.0849  -13.9673 H         1 73H         0.0557
@<TRIPOS>BOND
     1    1    2 2  
     2    2    3 1  
     3    2   12 am 
     4    3    4 1  
     5    3    5 1  
     6    5    6 ar 
     7    5   11 ar 
     8    6    7 ar 
     9    7    8 1  
    10    7    9 ar 
    11    9   10 ar 
    12   10   11 ar 
    13   11   12 1  
    14   12   13 1  
    15   13   14 1  
    16   14   15 1  
    17   15   16 ar 
    18   15   20 ar 
    19   16   17 ar 
    20   17   18 ar 
    21   18   19 ar 
    22   19   20 ar 
    23    3   21 1  
    24    4   22 1  
    25    6   23 1  
    26    9   24 1  
    27   10   25 1  
    28   13   26 1  
    29   13   27 1  
    30   14   28 1  
    31   14   29 1  
    32   16   30 1  
    33   17   31 1  
    34   18   32 1  
    35   19   33 1  
    36   20   34 1  
@<TRIPOS>SUBSTRUCTURE
     1 73H         1

