### 
### Created by X-TOOL on Wed Jan  1 15:39:38 2020
### 

@<TRIPOS>MOLECULE
6afr_ligand
   28    30     1     0     0
SMALL
GAST_HUCK


@<TRIPOS>ATOM
      1 C10       -20.6500   -7.4040   77.7830 C.ar      1 9E3        -0.0395
      2 C15       -24.2940   -6.7400   74.7410 C.2       1 9E3         0.1690
      3 C17       -25.2270   -7.2620   76.6200 C.2       1 9E3         0.0986
      4 C01       -23.9540   -6.8450   79.5530 C.ar      1 9E3        -0.0652
      5 C02       -23.5900   -5.8070   80.4130 C.ar      1 9E3        -0.0377
      6 C03       -22.2890   -5.3180   80.3810 C.ar      1 9E3         0.1063
      7 C04       -21.3110   -5.8590   79.4990 C.ar      1 9E3         0.0761
      8 C05       -21.6600   -6.8840   78.6600 C.ar      1 9E3         0.0081
      9 C06       -23.0030   -7.4000   78.6930 C.ar      1 9E3        -0.0075
     10 C08       -19.1110   -5.7890   78.7400 C.ar      1 9E3         0.0069
     11 C09       -19.3670   -6.8410   77.8310 C.ar      1 9E3        -0.0356
     12 C12       -23.4440   -8.5240   77.7520 C.3       1 9E3         0.0880
     13 C14       -23.3920   -7.4820   75.5070 C.2       1 9E3         0.0685
     14 F18       -24.0840   -6.2230   73.4850 F         1 9E3        -0.2006
     15 N07       -20.0570   -5.3110   79.5280 N.ar      1 9E3        -0.2974
     16 N13       -24.0140   -7.7870   76.6360 N.pl3     1 9E3        -0.2443
     17 N16       -25.3970   -6.6340   75.4680 N.2       1 9E3        -0.2965
     18 O11       -21.9150   -4.2750   81.2200 O.3       1 9E3        -0.3326
     19 H1        -20.8742   -8.2142   77.0986 H         1 9E3         0.0753
     20 H2        -25.9623   -7.3342   77.4200 H         1 9E3         0.1210
     21 H3        -24.9714   -7.2191   79.5526 H         1 9E3         0.0521
     22 H4        -24.3155   -5.3861   81.0997 H         1 9E3         0.0513
     23 H5        -18.1148   -5.3647   78.7915 H         1 9E3         0.0837
     24 H6        -18.5817   -7.2075   77.1798 H         1 9E3         0.0674
     25 H7        -24.1959   -9.1704   78.2282 H         1 9E3         0.0775
     26 H8        -22.5869   -9.1339   77.4305 H         1 9E3         0.0775
     27 H9        -22.3752   -7.7564   75.2299 H         1 9E3         0.0812
     28 H10       -22.6591   -4.0137   81.7496 H         1 9E3         0.2484
@<TRIPOS>BOND
     1    8    1 ar 
     2    1   11 ar 
     3    2   13 2  
     4    2   14 1  
     5   17    2 1  
     6   16    3 1  
     7    3   17 2  
     8    4    5 ar 
     9    9    4 ar 
    10    5    6 ar 
    11    7    6 ar 
    12    6   18 1  
    13    8    7 ar 
    14    7   15 ar 
    15    9    8 ar 
    16   12    9 1  
    17   11   10 ar 
    18   15   10 ar 
    19   12   16 1  
    20   13   16 1  
    21    1   19 1  
    22    3   20 1  
    23    4   21 1  
    24    5   22 1  
    25   10   23 1  
    26   11   24 1  
    27   12   25 1  
    28   12   26 1  
    29   13   27 1  
    30   18   28 1  
@<TRIPOS>SUBSTRUCTURE
     1 9E3         1

