### 
### Created by X-TOOL on Wed Jan  1 15:39:38 2020
### 

@<TRIPOS>MOLECULE
6agg_ligand
   25    24     1     0     0
SMALL
GAST_HUCK


@<TRIPOS>ATOM
      1 N          28.8420   11.4770   45.9900 N.4       1 AG2         0.2185
      2 CA         28.1720   12.4750   46.7860 C.3       1 AG2        -0.0353
      3 CB         26.9810   13.1440   46.1860 C.3       1 AG2        -0.0095
      4 CG         26.1170   13.9970   47.0540 C.3       1 AG2        -0.0150
      5 CD         25.1270   14.8920   46.3820 C.3       1 AG2         0.0627
      6 NE         24.8870   16.1970   46.9170 N.pl3     1 AG2        -0.2723
      7 CZ         23.9210   17.0620   46.2990 C.cat     1 AG2         0.2882
      8 NH1        23.2540   16.6710   45.2420 N.pl3     1 AG2        -0.2849
      9 NH2        23.7140   18.2470   46.7980 N.pl3     1 AG2        -0.2849
     10 H1         29.6238   11.1049   46.5061 H         1 AG2         0.1994
     11 H2         29.1727   11.8957   45.1348 H         1 AG2         0.1994
     12 H3         28.1980   10.7326   45.7726 H         1 AG2         0.1994
     13 H4         28.9075   13.2586   47.0208 H         1 AG2         0.0813
     14 H5         27.8439   11.9893   47.7168 H         1 AG2         0.0813
     15 H6         26.3401   12.3513   45.7726 H         1 AG2         0.0318
     16 H7         27.3475   13.7827   45.3688 H         1 AG2         0.0318
     17 H8         26.7822   14.6350   47.6544 H         1 AG2         0.0301
     18 H9         25.5544   13.3254   47.7191 H         1 AG2         0.0301
     19 H10        24.1629   14.3624   46.3833 H         1 AG2         0.0689
     20 H11        25.4692   15.0281   45.3455 H         1 AG2         0.0689
     21 H12        25.4075   16.5167   47.7463 H         1 AG2         0.2642
     22 H13        22.5637   17.2996   44.8070 H         1 AG2         0.2615
     23 H14        23.4197   15.7349   44.8456 H         1 AG2         0.2615
     24 H15        24.2386   18.5546   47.6293 H         1 AG2         0.2615
     25 H16        23.0257   18.8766   46.3613 H         1 AG2         0.2615
@<TRIPOS>BOND
     1    1    2 1  
     2    2    3 1  
     3    3    4 1  
     4    4    5 1  
     5    5    6 1  
     6    6    7 ar 
     7    7    8 ar 
     8    7    9 ar 
     9    1   10 1  
    10    1   11 1  
    11    1   12 1  
    12    2   13 1  
    13    2   14 1  
    14    3   15 1  
    15    3   16 1  
    16    4   17 1  
    17    4   18 1  
    18    5   19 1  
    19    5   20 1  
    20    6   21 1  
    21    8   22 1  
    22    8   23 1  
    23    9   24 1  
    24    9   25 1  
@<TRIPOS>SUBSTRUCTURE
     1 AG2         1

