### 
### Created by X-TOOL on Mon Aug  2 16:10:33 2021
### 

@<TRIPOS>MOLECULE
6agk_ligand
   49    51     1     0     0
SMALL
GAST_HUCK


@<TRIPOS>ATOM
      1 C01       -13.9450  -67.3810   41.3020 C.3       1 MOL         0.0565
      2 O02       -14.6560  -66.4670   40.5120 O.3       1 MOL        -0.3269
      3 C03       -15.7790  -66.9240   39.8290 C.ar      1 MOL         0.1175
      4 C04       -16.8080  -67.4960   40.5510 C.ar      1 MOL        -0.0334
      5 C05       -17.9570  -67.9440   39.9210 C.ar      1 MOL         0.0084
      6 C06       -19.0950  -68.5930   40.7150 C.2       1 MOL         0.1658
      7 O07       -19.9330  -69.2140   40.1330 O.2       1 MOL        -0.3667
      8 C08       -19.2000  -68.4350   42.2370 C.ar      1 MOL         0.1013
      9 C09       -19.8190  -69.4280   42.9880 C.ar      1 MOL        -0.0176
     10 C10       -19.9310  -69.2930   44.3570 C.ar      1 MOL        -0.0380
     11 C11       -19.3990  -68.1530   44.9360 C.ar      1 MOL        -0.0249
     12 C12       -18.7810  -67.1670   44.1420 C.ar      1 MOL         0.0507
     13 C13       -18.2440  -65.9760   44.6720 C.ar      1 MOL        -0.0147
     14 C14       -17.7890  -64.9720   43.8160 C.ar      1 MOL        -0.0675
     15 C15       -17.2510  -63.7850   44.3200 C.ar      1 MOL        -0.0653
     16 C16       -17.1570  -63.5560   45.6870 C.ar      1 MOL        -0.0139
     17 C17       -16.5650  -62.2530   46.2120 C.3       1 MOL        -0.0315
     18 C18       -17.6090  -64.5440   46.5530 C.ar      1 MOL         0.0920
     19 O19       -17.5280  -64.3850   47.9400 O.3       1 MOL        -0.3363
     20 C20       -18.1420  -65.7240   46.0500 C.ar      1 MOL        -0.0285
     21 N21       -18.7190  -67.3560   42.8290 N.ar      1 MOL        -0.2757
     22 C22       -18.0770  -67.8040   38.5470 C.ar      1 MOL        -0.0334
     23 C23       -17.0510  -67.2140   37.8100 C.ar      1 MOL         0.1175
     24 O24       -17.1600  -67.0570   36.4150 O.3       1 MOL        -0.3269
     25 C25       -18.4170  -66.7410   35.8740 C.3       1 MOL         0.0565
     26 C26       -15.8920  -66.7770   38.4520 C.ar      1 MOL         0.1532
     27 O27       -14.8660  -66.1510   37.7330 O.3       1 MOL        -0.3255
     28 C28       -14.1300  -66.9070   36.8070 C.3       1 MOL         0.0556
     29 H1        -13.0913  -66.8719   41.7732 H         1 MOL         0.0572
     30 H2        -13.5783  -68.2038   40.6707 H         1 MOL         0.0572
     31 H3        -14.6074  -67.7844   42.0821 H         1 MOL         0.0572
     32 H4        -16.7149  -67.5957   41.6264 H         1 MOL         0.0475
     33 H5        -20.2144  -70.3100   42.4973 H         1 MOL         0.0748
     34 H6        -20.4182  -70.0525   44.9578 H         1 MOL         0.0742
     35 H7        -19.4587  -68.0182   46.0099 H         1 MOL         0.0739
     36 H8        -17.8540  -65.1153   42.7435 H         1 MOL         0.0535
     37 H9        -16.8995  -63.0267   43.6297 H         1 MOL         0.0536
     38 H10       -16.2726  -61.6155   45.3646 H         1 MOL         0.0375
     39 H11       -15.6802  -62.4738   46.8271 H         1 MOL         0.0375
     40 H12       -17.3150  -61.7294   46.8230 H         1 MOL         0.0375
     41 H13       -17.8821  -65.1561   48.3672 H         1 MOL         0.2456
     42 H14       -18.4919  -66.4776   46.7462 H         1 MOL         0.0541
     43 H15       -18.9712  -68.1543   38.0442 H         1 MOL         0.0475
     44 H16       -18.3340  -66.6533   34.7806 H         1 MOL         0.0572
     45 H17       -18.7669  -65.7860   36.2929 H         1 MOL         0.0572
     46 H18       -19.1345  -67.5362   36.1246 H         1 MOL         0.0572
     47 H19       -13.3698  -66.2681   36.3338 H         1 MOL         0.0571
     48 H20       -14.8074  -67.3031   36.0361 H         1 MOL         0.0571
     49 H21       -13.6361  -67.7420   37.3254 H         1 MOL         0.0571
@<TRIPOS>BOND
     1    1    2 1  
     2    2    3 1  
     3    3    4 ar 
     4    3   26 ar 
     5    4    5 ar 
     6    5    6 1  
     7    5   22 ar 
     8    6    7 2  
     9    6    8 1  
    10    8    9 ar 
    11    8   21 ar 
    12    9   10 ar 
    13   10   11 ar 
    14   11   12 ar 
    15   12   13 1  
    16   12   21 ar 
    17   13   14 ar 
    18   13   20 ar 
    19   14   15 ar 
    20   15   16 ar 
    21   16   17 1  
    22   16   18 ar 
    23   18   19 1  
    24   18   20 ar 
    25   22   23 ar 
    26   23   24 1  
    27   23   26 ar 
    28   24   25 1  
    29   26   27 1  
    30   27   28 1  
    31    1   29 1  
    32    1   30 1  
    33    1   31 1  
    34    4   32 1  
    35    9   33 1  
    36   10   34 1  
    37   11   35 1  
    38   14   36 1  
    39   15   37 1  
    40   17   38 1  
    41   17   39 1  
    42   17   40 1  
    43   19   41 1  
    44   20   42 1  
    45   22   43 1  
    46   25   44 1  
    47   25   45 1  
    48   25   46 1  
    49   28   47 1  
    50   28   48 1  
    51   28   49 1  
@<TRIPOS>SUBSTRUCTURE
     1 MOL         1

