### 
### Created by X-TOOL on Mon Aug  2 16:11:54 2021
### 

@<TRIPOS>MOLECULE
6agt_ligand
   40    42     1     0     0
SMALL
GAST_HUCK


@<TRIPOS>ATOM
      1 C10        -5.6650   -2.5510   32.2060 C.ar      1 MOL         0.1476
      2 C16        -3.3980    0.2960   27.6430 C.3       1 MOL        -0.0208
      3 C15        -4.9000    0.0530   27.5710 C.3       1 MOL         0.0337
      4 C21        -2.6500   -1.0070   27.7480 C.3       1 MOL        -0.0484
      5 C20        -1.2040   -0.7520   27.9360 C.3       1 MOL        -0.0527
      6 C19        -0.7010    0.0290   26.7680 C.3       1 MOL        -0.0530
      7 C18        -1.5240    1.3110   26.6940 C.3       1 MOL        -0.0527
      8 C17        -2.9350    0.9930   26.4620 C.3       1 MOL        -0.0484
      9 N14        -5.2040   -0.7480   28.6930 N.am      1 MOL        -0.2798
     10 C01        -5.7340   -1.9350   28.6800 C.2       1 MOL         0.2573
     11 O13        -6.0270   -2.4630   27.6510 O.2       1 MOL        -0.3700
     12 C02        -5.9660   -2.5760   29.9070 C.2       1 MOL         0.2162
     13 O11        -5.5700   -1.9830   31.0340 O.3       1 MOL        -0.2236
     14 C09        -5.2270   -1.8740   33.3120 C.ar      1 MOL        -0.0188
     15 C08        -5.3200   -2.4430   34.5410 C.ar      1 MOL        -0.0637
     16 C07        -5.8890   -3.6840   34.6440 C.ar      1 MOL        -0.0654
     17 C06        -6.3410   -4.3400   33.5330 C.ar      1 MOL        -0.0501
     18 C05        -6.2420   -3.7800   32.3010 C.ar      1 MOL         0.0629
     19 C04        -6.6630   -4.4450   31.1840 C.2       1 MOL         0.1235
     20 O12        -7.1340   -5.5520   31.2570 O.2       1 MOL        -0.4078
     21 C03        -6.5180   -3.8290   29.9700 C.2       1 MOL         0.0325
     22 H1         -3.1825    0.9082   28.5311 H         1 MOL         0.0320
     23 H2         -5.1607   -0.4729   26.6407 H         1 MOL         0.0522
     24 H3         -5.4469    1.0062   27.6191 H         1 MOL         0.0522
     25 H4         -2.7998   -1.5874   26.8257 H         1 MOL         0.0269
     26 H5         -3.0330   -1.5778   28.6068 H         1 MOL         0.0269
     27 H6         -0.6648   -1.7085   28.0018 H         1 MOL         0.0265
     28 H7         -1.0464   -0.1778   28.8609 H         1 MOL         0.0265
     29 H8         -0.8265   -0.5532   25.8432 H         1 MOL         0.0265
     30 H9          0.3628    0.2717   26.9070 H         1 MOL         0.0265
     31 H10        -1.1515    1.9349   25.8682 H         1 MOL         0.0265
     32 H11        -1.4265    1.8608   27.6417 H         1 MOL         0.0265
     33 H12        -3.5136    1.9168   26.3145 H         1 MOL         0.0269
     34 H13        -3.0389    0.3498   25.5757 H         1 MOL         0.0269
     35 H14        -4.9895   -0.3625   29.5905 H         1 MOL         0.1850
     36 H15        -4.8049   -0.8812   33.2063 H         1 MOL         0.0577
     37 H16        -4.9523   -1.9268   35.4204 H         1 MOL         0.0629
     38 H17        -5.9822   -4.1517   35.6175 H         1 MOL         0.0552
     39 H18        -6.7855   -5.3231   33.6379 H         1 MOL         0.0641
     40 H19        -6.8395   -4.3319   29.0592 H         1 MOL         0.0537
@<TRIPOS>BOND
     1   13    1 1  
     2    1   14 ar 
     3    1   18 ar 
     4    3    2 1  
     5    2    4 1  
     6    2    8 1  
     7    9    3 1  
     8    4    5 1  
     9    5    6 1  
    10    7    6 1  
    11    8    7 1  
    12   10    9 am 
    13   10   11 2  
    14   12   10 1  
    15   12   13 1  
    16   12   21 2  
    17   14   15 ar 
    18   15   16 ar 
    19   16   17 ar 
    20   17   18 ar 
    21   18   19 1  
    22   19   20 2  
    23   19   21 1  
    24    2   22 1  
    25    3   23 1  
    26    3   24 1  
    27    4   25 1  
    28    4   26 1  
    29    5   27 1  
    30    5   28 1  
    31    6   29 1  
    32    6   30 1  
    33    7   31 1  
    34    7   32 1  
    35    8   33 1  
    36    8   34 1  
    37    9   35 1  
    38   14   36 1  
    39   15   37 1  
    40   16   38 1  
    41   17   39 1  
    42   21   40 1  
@<TRIPOS>SUBSTRUCTURE
     1 MOL         1

