### 
### Created by X-TOOL on Mon Aug  2 16:12:36 2021
### 

@<TRIPOS>MOLECULE
6ahi_ligand
   20    19     1     0     0
SMALL
GAST_HUCK


@<TRIPOS>ATOM
      1 N           3.7640  -17.0580    3.8420 N.4       1 MET         0.2327
      2 CA          4.3280  -17.0670    2.4650 C.3       1 MET         0.0291
      3 C           5.3980  -15.9760    2.3500 C.2       1 MET         0.0844
      4 O           5.6260  -15.5150    1.2220 O.co2     1 MET        -0.5643
      5 CB          3.2330  -16.8160    1.4240 C.3       1 MET         0.0114
      6 CG          1.8310  -17.0540    1.9520 C.3       1 MET         0.0001
      7 SD          1.5770  -16.3400    3.5970 S.3       1 MET        -0.1638
      8 CE          1.0860  -17.7980    4.5170 C.3       1 MET        -0.0181
      9 OXT         5.9800  -15.6060    3.3700 O.co2     1 MET        -0.5643
     10 H1          3.0596  -17.7747    3.9212 H         1 MET         0.2010
     11 H2          3.3504  -16.1582    4.0298 H         1 MET         0.2010
     12 H3          4.4999  -17.2352    4.5077 H         1 MET         0.2010
     13 H4          4.7866  -18.0481    2.2722 H         1 MET         0.1024
     14 H5          3.4027  -17.4891    0.5707 H         1 MET         0.0347
     15 H6          3.3056  -15.7714    1.0871 H         1 MET         0.0347
     16 H7          1.6545  -18.1383    2.0074 H         1 MET         0.0379
     17 H8          1.1104  -16.6003    1.2557 H         1 MET         0.0379
     18 H9          0.8908  -17.5224    5.5639 H         1 MET         0.0340
     19 H10         1.8928  -18.5447    4.4788 H         1 MET         0.0340
     20 H11         0.1731  -18.2216    4.0730 H         1 MET         0.0340
@<TRIPOS>BOND
     1    1    2 1  
     2    2    3 1  
     3    2    5 1  
     4    3    4 ar 
     5    3    9 ar 
     6    5    6 1  
     7    6    7 1  
     8    7    8 1  
     9    1   10 1  
    10    1   11 1  
    11    1   12 1  
    12    2   13 1  
    13    5   14 1  
    14    5   15 1  
    15    6   16 1  
    16    6   17 1  
    17    8   18 1  
    18    8   19 1  
    19    8   20 1  
@<TRIPOS>SUBSTRUCTURE
     1 MET         1

