### 
### Created by X-TOOL on Mon Aug  2 16:10:33 2021
### 

@<TRIPOS>MOLECULE
6ajg_ligand
   64    66     1     0     0
SMALL
GAST_HUCK


@<TRIPOS>ATOM
      1 CAA       106.2340   24.9300   34.6280 C.3       1 MOL        -0.0406
      2 CAB       104.8870   23.8040   36.5340 C.3       1 MOL        -0.0406
      3 CAC       100.9330   20.4680   35.0520 C.3       1 MOL        -0.0401
      4 CAD       104.1530   23.7120   34.1700 C.2       1 MOL        -0.1074
      5 CAE       102.1110   19.9670   32.9380 C.2       1 MOL        -0.0647
      6 CAF       102.9370   22.8970   34.5450 C.3       1 MOL        -0.0388
      7 CAG       100.9470   19.1230   32.4860 C.3       1 MOL        -0.0267
      8 CAH       101.6140   17.0910   33.5790 C.3       1 MOL         0.0081
      9 CAI       100.8990   15.7500   33.5320 C.3       1 MOL         0.0077
     10 CAJ       103.3040   21.4180   34.5140 C.3       1 MOL        -0.0252
     11 CAK       101.1020   11.5410   29.7600 C.3       1 MOL        -0.0473
     12 CAL       100.6720   13.9840   29.5820 C.3       1 MOL        -0.0422
     13 CAM        98.9170   12.4790   30.4830 C.3       1 MOL        -0.0422
     14 CAN       102.2800   13.1210   31.2750 C.3       1 MOL        -0.0422
     15 CAO       100.5270   11.6180   32.1770 C.3       1 MOL        -0.0422
     16 NAP       101.4060   17.7430   32.2770 N.4       1 MOL         0.2370
     17 NAQ       100.6860   15.4080   32.1170 N.4       1 MOL         0.2333
     18 CAR       105.0510   24.1260   35.0770 C.2       1 MOL        -0.0870
     19 CAS       102.1060   20.5890   34.1240 C.2       1 MOL        -0.0780
     20 CAT       101.7360   12.9260   29.8620 C.3       1 MOL        -0.0399
     21 CAU        99.9670   11.4100   30.7720 C.3       1 MOL        -0.0399
     22 CAV        99.5440   13.8630   30.6010 C.3       1 MOL         0.0028
     23 CAW       101.1440   13.0070   32.2870 C.3       1 MOL         0.0028
     24 CAX       100.0880   14.0670   32.0080 C.3       1 MOL        -0.0167
     25 H1        106.8587   25.1804   35.4981 H         1 MOL         0.0375
     26 H2        105.8866   25.8564   34.1473 H         1 MOL         0.0375
     27 H3        106.8247   24.3432   33.9092 H         1 MOL         0.0375
     28 H4        103.9710   23.2122   36.6778 H         1 MOL         0.0375
     29 H5        104.8142   24.7382   37.1101 H         1 MOL         0.0375
     30 H6        105.7556   23.2255   36.8817 H         1 MOL         0.0375
     31 H7        100.1665   19.8268   34.5923 H         1 MOL         0.0375
     32 H8        100.5108   21.4659   35.2414 H         1 MOL         0.0375
     33 H9        101.2618   20.0225   36.0025 H         1 MOL         0.0375
     34 H10       104.3063   23.9732   33.1240 H         1 MOL         0.0244
     35 H11       102.9761   20.0735   32.2851 H         1 MOL         0.0294
     36 H12       102.1267   23.0913   33.8269 H         1 MOL         0.0361
     37 H13       102.6048   23.1737   35.5565 H         1 MOL         0.0361
     38 H14       100.5451   19.5241   31.5439 H         1 MOL         0.0887
     39 H15       100.1610   19.1371   33.2555 H         1 MOL         0.0887
     40 H16       102.6889   16.9386   33.7563 H         1 MOL         0.0867
     41 H17       101.1944   17.7135   34.3830 H         1 MOL         0.0867
     42 H18        99.9313   15.8227   34.0499 H         1 MOL         0.0867
     43 H19       101.5166   14.9786   34.0153 H         1 MOL         0.0867
     44 H20       103.6497   21.1090   35.5115 H         1 MOL         0.0425
     45 H21       104.1090   21.2592   33.7814 H         1 MOL         0.0425
     46 H22       101.8643   10.7754   29.9667 H         1 MOL         0.0271
     47 H23       100.7033   11.3968   28.7450 H         1 MOL         0.0271
     48 H24       100.2674   13.8364   28.5699 H         1 MOL         0.0273
     49 H25       101.1236   14.9844   29.6540 H         1 MOL         0.0273
     50 H26        98.0941   12.3879   31.2072 H         1 MOL         0.0273
     51 H27        98.5259   12.3409   29.4642 H         1 MOL         0.0273
     52 H28       102.7412   14.1165   31.3545 H         1 MOL         0.0273
     53 H29       103.0350   12.3492   31.4853 H         1 MOL         0.0273
     54 H30       101.2974   10.8593   32.3790 H         1 MOL         0.0273
     55 H31        99.7145   11.5202   32.9120 H         1 MOL         0.0273
     56 H32       102.2734   17.7518   31.7637 H         1 MOL         0.2023
     57 H33       100.7111   17.2337   31.7538 H         1 MOL         0.2023
     58 H34       101.5706   15.4193   31.6339 H         1 MOL         0.2018
     59 H35       100.0665   16.0847   31.6995 H         1 MOL         0.2018
     60 H36       102.5536   13.0173   29.1318 H         1 MOL         0.0301
     61 H37        99.5123   10.4112   30.6964 H         1 MOL         0.0301
     62 H38        98.7816   14.6284   30.3939 H         1 MOL         0.0356
     63 H39       101.5423   13.1517   33.3021 H         1 MOL         0.0356
     64 H40        99.2697   13.9716   32.7369 H         1 MOL         0.0856
@<TRIPOS>BOND
     1   18    1 1  
     2   18    2 1  
     3   19    3 1  
     4    6    4 1  
     5    4   18 2  
     6    7    5 1  
     7    5   19 2  
     8   10    6 1  
     9   16    7 1  
    10    9    8 1  
    11    8   16 1  
    12   17    9 1  
    13   19   10 1  
    14   20   11 1  
    15   21   11 1  
    16   12   20 1  
    17   22   12 1  
    18   13   21 1  
    19   22   13 1  
    20   20   14 1  
    21   14   23 1  
    22   21   15 1  
    23   15   23 1  
    24   24   17 1  
    25   22   24 1  
    26   23   24 1  
    27    1   25 1  
    28    1   26 1  
    29    1   27 1  
    30    2   28 1  
    31    2   29 1  
    32    2   30 1  
    33    3   31 1  
    34    3   32 1  
    35    3   33 1  
    36    4   34 1  
    37    5   35 1  
    38    6   36 1  
    39    6   37 1  
    40    7   38 1  
    41    7   39 1  
    42    8   40 1  
    43    8   41 1  
    44    9   42 1  
    45    9   43 1  
    46   10   44 1  
    47   10   45 1  
    48   11   46 1  
    49   11   47 1  
    50   12   48 1  
    51   12   49 1  
    52   13   50 1  
    53   13   51 1  
    54   14   52 1  
    55   14   53 1  
    56   15   54 1  
    57   15   55 1  
    58   16   56 1  
    59   16   57 1  
    60   17   58 1  
    61   17   59 1  
    62   20   60 1  
    63   21   61 1  
    64   22   62 1  
    65   23   63 1  
    66   24   64 1  
@<TRIPOS>SUBSTRUCTURE
     1 MOL         1

