### 
### Created by X-TOOL on Mon Aug  2 16:10:34 2021
### 

@<TRIPOS>MOLECULE
6ajh_ligand
   42    45     1     0     0
SMALL
GAST_HUCK


@<TRIPOS>ATOM
      1 C10        34.4020    3.8660  -21.5540 C.3       1 MOL         0.0485
      2 C16        36.6060    2.6570  -15.8170 C.ar      1 MOL         0.1822
      3 C17        36.6590    1.8210  -14.7020 C.ar      1 MOL         0.1849
      4 C15        35.8420    2.3060  -16.9290 C.ar      1 MOL         0.0949
      5 C12        35.0620    3.0280  -19.2880 C.2       1 MOL         0.2854
      6 C18        35.9480    0.6270  -14.6920 C.ar      1 MOL         0.1470
      7 C20        35.1320    1.1040  -16.9090 C.ar      1 MOL        -0.0482
      8 C19        35.1820    0.2680  -15.7980 C.ar      1 MOL        -0.0473
      9 C01        34.9990    5.6740  -24.3700 C.3       1 MOL        -0.0473
     10 C02        35.7980    5.7740  -23.0380 C.3       1 MOL        -0.0401
     11 C03        36.3390    4.4150  -22.5500 C.3       1 MOL        -0.0453
     12 C04        35.2820    3.2900  -22.6380 C.3       1 MOL        -0.0174
     13 C05        34.6370    3.2140  -23.9720 C.3       1 MOL        -0.0453
     14 C06        34.0070    4.4850  -24.3720 C.3       1 MOL        -0.0401
     15 C07        33.1010    5.1010  -23.3260 C.3       1 MOL        -0.0453
     16 C08        33.7760    5.2080  -21.9850 C.3       1 MOL        -0.0174
     17 C09        34.8070    6.1600  -21.9930 C.3       1 MOL        -0.0453
     18 N11        35.1580    4.0330  -20.3210 N.am      1 MOL        -0.2646
     19 O13        34.3420    2.0630  -19.4860 O.2       1 MOL        -0.3912
     20 N14        35.8200    3.2040  -18.0570 N.am      1 MOL        -0.2220
     21 F21        36.0000   -0.1790  -13.6160 F         1 MOL        -0.1981
     22 F22        37.3990    2.1710  -13.6360 F         1 MOL        -0.1894
     23 F23        37.2960    3.8090  -15.8170 F         1 MOL        -0.1961
     24 H1         33.5852    3.1541  -21.3642 H         1 MOL         0.0559
     25 H2         34.5355    0.8191  -17.7681 H         1 MOL         0.0448
     26 H3         34.6251   -0.6620  -15.7934 H         1 MOL         0.0523
     27 H4         35.7093    5.5435  -25.1997 H         1 MOL         0.0271
     28 H5         34.4338    6.6065  -24.5144 H         1 MOL         0.0271
     29 H6         36.6122    6.5075  -23.1332 H         1 MOL         0.0301
     30 H7         36.6579    4.5180  -21.5023 H         1 MOL         0.0271
     31 H8         37.2033    4.1361  -23.1706 H         1 MOL         0.0271
     32 H9         35.6846    2.3007  -22.3751 H         1 MOL         0.0323
     33 H10        33.8645    2.4314  -23.9454 H         1 MOL         0.0271
     34 H11        35.4011    2.9499  -24.7179 H         1 MOL         0.0271
     35 H12        33.5027    4.3463  -25.3397 H         1 MOL         0.0301
     36 H13        32.2025    4.4751  -23.2219 H         1 MOL         0.0271
     37 H14        32.8097    6.1085  -23.6579 H         1 MOL         0.0271
     38 H15        33.0193    5.5056  -21.2442 H         1 MOL         0.0323
     39 H16        34.3934    7.1531  -22.2224 H         1 MOL         0.0271
     40 H17        35.2966    6.1852  -21.0083 H         1 MOL         0.0271
     41 H18        35.7387    4.8366  -20.1904 H         1 MOL         0.1855
     42 H19        36.3806    4.0291  -17.9871 H         1 MOL         0.2230
@<TRIPOS>BOND
     1   12    1 1  
     2    1   16 1  
     3    1   18 1  
     4    2    3 ar 
     5    4    2 ar 
     6    2   23 1  
     7    3    6 ar 
     8    3   22 1  
     9    4    7 ar 
    10   20    4 1  
    11   18    5 am 
    12    5   19 2  
    13    5   20 am 
    14    8    6 ar 
    15    6   21 1  
    16    7    8 ar 
    17   10    9 1  
    18    9   14 1  
    19   11   10 1  
    20   10   17 1  
    21   11   12 1  
    22   12   13 1  
    23   13   14 1  
    24   14   15 1  
    25   15   16 1  
    26   16   17 1  
    27    1   24 1  
    28    7   25 1  
    29    8   26 1  
    30    9   27 1  
    31    9   28 1  
    32   10   29 1  
    33   11   30 1  
    34   11   31 1  
    35   12   32 1  
    36   13   33 1  
    37   13   34 1  
    38   14   35 1  
    39   15   36 1  
    40   15   37 1  
    41   16   38 1  
    42   17   39 1  
    43   17   40 1  
    44   18   41 1  
    45   20   42 1  
@<TRIPOS>SUBSTRUCTURE
     1 MOL         1

