### 
### Created by X-TOOL on Mon Aug  2 16:10:35 2021
### 

@<TRIPOS>MOLECULE
6aji_ligand
   52    55     1     0     0
SMALL
GAST_HUCK


@<TRIPOS>ATOM
      1 N          35.7420    1.0540  -14.5280 N.pl3     1 AY6        -0.1548
      2 C          38.6230    3.1270  -13.4050 C.3       1 AY6        -0.0386
      3 O          37.4710    5.2280  -15.5510 O.2       1 AY6        -0.3822
      4 C1         37.3980    2.4880  -14.0470 C.2       1 AY6         0.0011
      5 C10        34.8310   -0.0380  -14.5590 C.ar      1 AY6         0.1259
      6 C11        33.5780    0.1000  -14.0310 C.ar      1 AY6         0.0767
      7 C12        32.6750   -0.9550  -14.0490 C.ar      1 AY6        -0.0375
      8 C13        33.0510   -2.1580  -14.6130 C.ar      1 AY6         0.0339
      9 C14        34.3030   -2.3040  -15.1460 C.ar      1 AY6        -0.0514
     10 C15        35.2130   -1.2520  -15.1330 C.ar      1 AY6        -0.0240
     11 C16        37.1840    0.2210  -12.6470 C.ar      1 AY6         0.0052
     12 C17        36.2890   -0.4180  -11.7730 C.ar      1 AY6        -0.0550
     13 C18        36.7570   -1.3130  -10.8380 C.ar      1 AY6        -0.0503
     14 C19        38.1470   -1.6070  -10.7660 C.ar      1 AY6         0.0376
     15 C2         36.7390    1.2060  -13.7100 C.2       1 AY6         0.1113
     16 C20        39.0200   -0.9960  -11.6250 C.ar      1 AY6        -0.0503
     17 C21        38.5410   -0.0860  -12.5720 C.ar      1 AY6        -0.0550
     18 C3         36.6070    2.9870  -15.1100 C.2       1 AY6         0.1232
     19 C4         36.7810    4.2960  -15.9400 C.2       1 AY6         0.2465
     20 C5         36.5020    4.6440  -19.2590 C.3       1 AY6        -0.0078
     21 C6         36.3930    5.6110  -20.4390 C.3       1 AY6        -0.0116
     22 C7         35.1460    6.2800  -20.4810 C.3       1 AY6        -0.0434
     23 C8         34.8250    6.8790  -19.2230 C.3       1 AY6        -0.0116
     24 C9         34.8730    5.8700  -18.0970 C.3       1 AY6        -0.0078
     25 N1         35.6580    2.1020  -15.3550 N.2       1 AY6        -0.1780
     26 N2         36.1000    4.3070  -17.2350 N.am      1 AY6        -0.2528
     27 N3         36.1450    5.2180  -18.0210 N.4       1 AY6         0.3706
     28 CL         31.9170   -3.4670  -14.6260 Cl        1 AY6        -0.0768
     29 CL1        33.0730    1.6020  -13.3070 Cl        1 AY6        -0.0736
     30 CL2        38.7580   -2.7300   -9.6180 Cl        1 AY6        -0.0728
     31 H1         38.9995    2.4742  -12.6037 H         1 AY6         0.0345
     32 H2         38.3477    4.1046  -12.9826 H         1 AY6         0.0345
     33 H3         39.4063    3.2634  -14.1652 H         1 AY6         0.0345
     34 H4         31.6848   -0.8352  -13.6245 H         1 AY6         0.0613
     35 H5         34.5896   -3.2530  -15.5846 H         1 AY6         0.0608
     36 H6         36.2016   -1.3727  -15.5611 H         1 AY6         0.0589
     37 H7         35.2278   -0.2058  -11.8351 H         1 AY6         0.0599
     38 H8         36.0657   -1.7944  -10.1558 H         1 AY6         0.0615
     39 H9         40.0799   -1.2171  -11.5712 H         1 AY6         0.0615
     40 H10        39.2348    0.3873  -13.2573 H         1 AY6         0.0599
     41 H11        37.5425    4.2935  -19.1921 H         1 AY6         0.0821
     42 H12        35.8381    3.7878  -19.4491 H         1 AY6         0.0821
     43 H13        36.5199    5.0434  -21.3726 H         1 AY6         0.0317
     44 H14        37.1927    6.3615  -20.3546 H         1 AY6         0.0317
     45 H15        34.3609    5.5548  -20.7412 H         1 AY6         0.0269
     46 H16        35.1887    7.0659  -21.2495 H         1 AY6         0.0269
     47 H17        33.8120    7.3042  -19.2782 H         1 AY6         0.0317
     48 H18        35.5484    7.6810  -19.0146 H         1 AY6         0.0317
     49 H19        34.0939    5.1119  -18.2648 H         1 AY6         0.0821
     50 H20        34.6814    6.3884  -17.1460 H         1 AY6         0.0821
     51 H21        35.5603    3.5029  -17.4843 H         1 AY6         0.2375
     52 H22        36.8431    5.8878  -17.7378 H         1 AY6         0.2297
@<TRIPOS>BOND
     1    1    5 1  
     2    1   15 1  
     3   25    1 1  
     4    4    2 1  
     5   19    3 2  
     6    4   15 2  
     7   18    4 1  
     8    5    6 ar 
     9    5   10 ar 
    10    6    7 ar 
    11    6   29 1  
    12    7    8 ar 
    13    9    8 ar 
    14    8   28 1  
    15   10    9 ar 
    16   11   12 ar 
    17   15   11 1  
    18   11   17 ar 
    19   12   13 ar 
    20   13   14 ar 
    21   16   14 ar 
    22   14   30 1  
    23   17   16 ar 
    24   19   18 1  
    25   18   25 2  
    26   26   19 am 
    27   20   21 1  
    28   27   20 1  
    29   21   22 1  
    30   23   22 1  
    31   24   23 1  
    32   27   24 1  
    33   26   27 1  
    34    2   31 1  
    35    2   32 1  
    36    2   33 1  
    37    7   34 1  
    38    9   35 1  
    39   10   36 1  
    40   12   37 1  
    41   13   38 1  
    42   16   39 1  
    43   17   40 1  
    44   20   41 1  
    45   20   42 1  
    46   21   43 1  
    47   21   44 1  
    48   22   45 1  
    49   22   46 1  
    50   23   47 1  
    51   23   48 1  
    52   24   49 1  
    53   24   50 1  
    54   26   51 1  
    55   27   52 1  
@<TRIPOS>SUBSTRUCTURE
     1 AY6         1

