### 
### Created by X-TOOL on Mon Aug  2 16:10:36 2021
### 

@<TRIPOS>MOLECULE
6ajj_ligand
   49    52     1     0     0
SMALL
GAST_HUCK


@<TRIPOS>ATOM
      1 C02         8.0030    5.1200   17.2780 C.2       1 J9E         0.2241
      2 C04         8.0780    6.4320   19.3090 C.3       1 J9E         0.0413
      3 C05         7.6730    7.8300   19.6950 C.3       1 J9E        -0.0295
      4 C06         8.3110    8.1000   21.0270 C.3       1 J9E        -0.0453
      5 C07         7.4940    7.3450   22.0260 C.3       1 J9E        -0.0291
      6 C08         6.2330    8.1180   22.2870 C.3       1 J9E        -0.0474
      7 C09         5.7000    7.6990   23.6420 C.3       1 J9E        -0.0526
      8 C10         6.7550    7.9090   24.7120 C.3       1 J9E        -0.0530
      9 C11         8.0620    7.2240   24.3700 C.3       1 J9E        -0.0526
     10 C12         8.5590    7.6980   23.0270 C.3       1 J9E        -0.0474
     11 C13         7.2920    5.8870   21.6790 C.3       1 J9E        -0.0453
     12 C14         7.9700    5.4080   20.4110 C.3       1 J9E        -0.0295
     13 C15         7.3370    4.6410   16.0060 C.2       1 J9E         0.1284
     14 C16         6.2680    5.2160   15.3700 C.2       1 J9E        -0.0406
     15 C17         5.9990    4.4570   14.2310 C.ar      1 J9E         0.0148
     16 C18         5.0440    4.5200   13.2050 C.ar      1 J9E         0.1252
     17 C20         5.0410    3.5990   12.2020 C.ar      1 J9E        -0.0081
     18 C21         5.9910    2.6100   12.2180 C.ar      1 J9E         0.1183
     19 C23         6.9360    2.5240   13.2100 C.ar      1 J9E        -0.0121
     20 C24         6.9160    3.4810   14.2300 C.ar      1 J9E         0.0642
     21 F19         4.1080    5.4730   13.1510 F         1 J9E        -0.1877
     22 F22         5.9800    1.7020   11.2270 F         1 J9E        -0.1907
     23 N03         7.3140    6.0240   18.1600 N.am      1 J9E        -0.2825
     24 N25         7.7210    3.6080   15.3050 N.pl3     1 J9E        -0.2707
     25 O01         9.0820    4.7580   17.5360 O.2       1 J9E        -0.3859
     26 H1          9.1374    6.4717   19.0155 H         1 J9E         0.0555
     27 H2          6.5783    7.9011   19.7755 H         1 J9E         0.0287
     28 H3          8.0332    8.5514   18.9468 H         1 J9E         0.0287
     29 H4          8.2915    9.1768   21.2506 H         1 J9E         0.0271
     30 H5          9.3514    7.7429   21.0337 H         1 J9E         0.0271
     31 H6          5.4896    7.8940   21.5078 H         1 J9E         0.0271
     32 H7          6.4495    9.1965   22.2881 H         1 J9E         0.0271
     33 H8          5.4232    6.6349   23.6096 H         1 J9E         0.0265
     34 H9          4.8124    8.3016   23.8847 H         1 J9E         0.0265
     35 H10         6.3806    7.5026   25.6631 H         1 J9E         0.0265
     36 H11         6.9387    8.9880   24.8212 H         1 J9E         0.0265
     37 H12         7.9047    6.1358   24.3364 H         1 J9E         0.0265
     38 H13         8.8104    7.4628   25.1399 H         1 J9E         0.0265
     39 H14         8.7184    8.7862   23.0438 H         1 J9E         0.0271
     40 H15         9.5023    7.1931   22.7716 H         1 J9E         0.0271
     41 H16         6.2114    5.7132   21.5695 H         1 J9E         0.0271
     42 H17         7.6774    5.2851   22.5151 H         1 J9E         0.0271
     43 H18         8.9876    5.0822   20.6725 H         1 J9E         0.0287
     44 H19         7.3989    4.5514   20.0236 H         1 J9E         0.0287
     45 H20         5.7271    6.1037   15.6946 H         1 J9E         0.0395
     46 H21         4.3040    3.6465   11.4085 H         1 J9E         0.0498
     47 H22         7.6788    1.7345   13.2031 H         1 J9E         0.0488
     48 H23         6.3816    6.3423   17.9887 H         1 J9E         0.1844
     49 H24         8.5116    2.9896   15.5359 H         1 J9E         0.2246
@<TRIPOS>BOND
     1    1   13 1  
     2   23    1 am 
     3    1   25 2  
     4    2    3 1  
     5    2   12 1  
     6    2   23 1  
     7    3    4 1  
     8    4    5 1  
     9    5    6 1  
    10    5   10 1  
    11    5   11 1  
    12    6    7 1  
    13    7    8 1  
    14    8    9 1  
    15    9   10 1  
    16   11   12 1  
    17   13   14 2  
    18   13   24 1  
    19   14   15 1  
    20   15   16 ar 
    21   15   20 ar 
    22   16   17 ar 
    23   16   21 1  
    24   17   18 ar 
    25   18   19 ar 
    26   18   22 1  
    27   19   20 ar 
    28   20   24 1  
    29    2   26 1  
    30    3   27 1  
    31    3   28 1  
    32    4   29 1  
    33    4   30 1  
    34    6   31 1  
    35    6   32 1  
    36    7   33 1  
    37    7   34 1  
    38    8   35 1  
    39    8   36 1  
    40    9   37 1  
    41    9   38 1  
    42   10   39 1  
    43   10   40 1  
    44   11   41 1  
    45   11   42 1  
    46   12   43 1  
    47   12   44 1  
    48   14   45 1  
    49   17   46 1  
    50   19   47 1  
    51   23   48 1  
    52   24   49 1  
@<TRIPOS>SUBSTRUCTURE
     1 J9E         1

