### 
### Created by X-TOOL on Mon Aug  2 16:12:37 2021
### 

@<TRIPOS>MOLECULE
6ajr_ligand
   12    12     1     0     0
SMALL
GAST_HUCK


@<TRIPOS>ATOM
      1 N1         -9.6220   -6.3950   -5.2290 N.am      1 URA        -0.2031
      2 C2        -10.4090   -6.5120   -6.4710 C.2       1 URA         0.3281
      3 O2        -11.4580   -5.9910   -6.6390 O.2       1 URA        -0.3816
      4 N3         -9.9260   -7.3080   -7.5840 N.am      1 URA        -0.1867
      5 C4         -8.6650   -7.9700   -7.5270 C.2       1 URA         0.1822
      6 O4         -8.3440   -8.5890   -8.4770 O.2       1 URA        -0.4124
      7 C5         -7.8770   -7.8580   -6.2690 C.2       1 URA         0.0059
      8 C6         -8.3510   -7.0800   -5.1630 C.2       1 URA         0.0533
      9 H1         -9.9579   -5.8576   -4.4555 H         1 URA         0.2452
     10 H2        -10.4884   -7.3937   -8.4064 H         1 URA         0.2259
     11 H3         -6.9230   -8.3768   -6.1878 H         1 URA         0.0258
     12 H4         -7.7457   -7.0038   -4.2609 H         1 URA         0.1175
@<TRIPOS>BOND
     1    1    2 am 
     2    1    8 1  
     3    2    3 2  
     4    2    4 am 
     5    4    5 am 
     6    5    6 2  
     7    5    7 1  
     8    7    8 2  
     9    1    9 1  
    10    4   10 1  
    11    7   11 1  
    12    8   12 1  
@<TRIPOS>SUBSTRUCTURE
     1 URA         1

