### 
### Created by X-TOOL on Mon Aug  2 16:12:37 2021
### 

@<TRIPOS>MOLECULE
6ajv_ligand
   33    34     1     0     0
SMALL
GAST_HUCK


@<TRIPOS>ATOM
      1 C1         -5.4600    8.6560    3.6450 C.ar      1 HCC         0.0850
      2 C2         -5.2660    8.1830    2.3440 C.ar      1 HCC        -0.0375
      3 C3         -6.3480    7.7840    1.5580 C.ar      1 HCC        -0.0592
      4 C4         -7.6350    7.8480    2.0860 C.ar      1 HCC         0.0501
      5 C5         -7.8120    8.3390    3.3830 C.ar      1 HCC         0.0999
      6 C6         -6.7440    8.7390    4.1700 C.ar      1 HCC         0.0011
      7 C7         -8.7510    7.4960    1.3310 C.2       1 HCC         0.1212
      8 C8         -8.5550    7.3110   -0.1710 C.3       1 HCC         0.0269
      9 C9         -9.8820    7.0570   -0.8880 C.3       1 HCC        -0.0094
     10 O10        -9.0870    8.4010    3.8420 O.3       1 HCC        -0.3301
     11 C11        -9.8720    6.8690   -2.2700 C.ar      1 HCC        -0.0516
     12 C12       -11.0430    7.1350   -2.9720 C.ar      1 HCC        -0.0686
     13 C13       -11.0830    6.9580   -4.3540 C.ar      1 HCC        -0.0398
     14 C14        -9.9510    6.5140   -5.0330 C.ar      1 HCC         0.0805
     15 C15        -8.7800    6.2450   -4.3330 C.ar      1 HCC        -0.0398
     16 C16        -8.7400    6.4320   -2.9530 C.ar      1 HCC        -0.0686
     17 O17        -9.8800    7.4480    1.8200 O.2       1 HCC        -0.3903
     18 O18        -9.9890    6.3380   -6.3830 O.3       1 HCC        -0.3376
     19 O19        -4.4070    9.0430    4.4130 O.3       1 HCC        -0.3322
     20 H1         -4.2617    8.1253    1.9402 H         1 HCC         0.0471
     21 H2         -6.1882    7.4279    0.5467 H         1 HCC         0.0619
     22 H3         -6.9069    9.1095    5.1756 H         1 HCC         0.0476
     23 H4         -7.8884    6.4526   -0.3404 H         1 HCC         0.0500
     24 H5         -8.0946    8.2201   -0.5850 H         1 HCC         0.0500
     25 H6        -10.5309    7.9214   -0.6837 H         1 HCC         0.0429
     26 H7        -10.3233    6.1536   -0.4417 H         1 HCC         0.0429
     27 H8         -9.6802    8.0879    3.1692 H         1 HCC         0.2508
     28 H9        -11.9247    7.4800   -2.4442 H         1 HCC         0.0530
     29 H10       -11.9957    7.1660   -4.9006 H         1 HCC         0.0525
     30 H11        -7.9010    5.8909   -4.8594 H         1 HCC         0.0525
     31 H12        -7.8234    6.2364   -2.4084 H         1 HCC         0.0530
     32 H13       -10.8533    6.5635   -6.7064 H         1 HCC         0.2458
     33 H14        -3.6009    8.9301    3.9232 H         1 HCC         0.2499
@<TRIPOS>BOND
     1    1    2 ar 
     2    1    6 ar 
     3    1   19 1  
     4    2    3 ar 
     5    3    4 ar 
     6    4    5 ar 
     7    4    7 1  
     8    5    6 ar 
     9    5   10 1  
    10    7    8 1  
    11    7   17 2  
    12    8    9 1  
    13    9   11 1  
    14   11   12 ar 
    15   11   16 ar 
    16   12   13 ar 
    17   13   14 ar 
    18   14   15 ar 
    19   14   18 1  
    20   15   16 ar 
    21    2   20 1  
    22    3   21 1  
    23    6   22 1  
    24    8   23 1  
    25    8   24 1  
    26    9   25 1  
    27    9   26 1  
    28   10   27 1  
    29   12   28 1  
    30   13   29 1  
    31   15   30 1  
    32   16   31 1  
    33   18   32 1  
    34   19   33 1  
@<TRIPOS>SUBSTRUCTURE
     1 HCC         1

