### 
### Created by X-TOOL on Mon Aug  2 16:12:37 2021
### 

@<TRIPOS>MOLECULE
6ajx_ligand
   33    34     1     0     0
SMALL
GAST_HUCK


@<TRIPOS>ATOM
      1 C1        -10.2020   11.4550   -3.8330 C.ar      1 HCC         0.0850
      2 C2        -11.2510   10.7610   -3.2320 C.ar      1 HCC        -0.0375
      3 C3        -11.0050    9.6670   -2.4050 C.ar      1 HCC        -0.0592
      4 C4         -9.7000    9.2490   -2.1740 C.ar      1 HCC         0.0501
      5 C5         -8.6510    9.9460   -2.7750 C.ar      1 HCC         0.0999
      6 C6         -8.8920   11.0380   -3.6030 C.ar      1 HCC         0.0011
      7 C7         -9.4590    8.1540   -1.3410 C.2       1 HCC         0.1212
      8 C8        -10.6890    7.4680   -0.7280 C.3       1 HCC         0.0269
      9 C9        -10.3200    6.2970    0.1740 C.3       1 HCC        -0.0094
     10 O10        -7.3880    9.5070   -2.5190 O.3       1 HCC        -0.3301
     11 C11       -11.3540    5.5900    0.7910 C.ar      1 HCC        -0.0516
     12 C12       -11.0210    4.6220    1.7280 C.ar      1 HCC        -0.0686
     13 C13       -12.0090    3.8760    2.3820 C.ar      1 HCC        -0.0398
     14 C14       -13.3500    4.1220    2.0830 C.ar      1 HCC         0.0805
     15 C15       -13.6870    5.0930    1.1380 C.ar      1 HCC        -0.0398
     16 C16       -12.6940    5.8380    0.4920 C.ar      1 HCC        -0.0686
     17 O17        -8.3210    7.7520   -1.0940 O.2       1 HCC        -0.3903
     18 O18       -14.3330    3.4260    2.7290 O.3       1 HCC        -0.3376
     19 O19       -10.4610   12.5280   -4.6380 O.3       1 HCC        -0.3322
     20 H1        -12.2725   11.0769   -3.4106 H         1 HCC         0.0471
     21 H2        -11.8321    9.1416   -1.9415 H         1 HCC         0.0619
     22 H3         -8.0645   11.5622   -4.0672 H         1 HCC         0.0476
     23 H4        -11.3278    7.0968   -1.5430 H         1 HCC         0.0500
     24 H5        -11.2453    8.2081   -0.1341 H         1 HCC         0.0500
     25 H6         -9.6724    6.6905    0.9714 H         1 HCC         0.0429
     26 H7         -9.7536    5.5794   -0.4378 H         1 HCC         0.0429
     27 H8         -7.4265    8.7572   -1.9370 H         1 HCC         0.2508
     28 H9         -9.9773    4.4402    1.9577 H         1 HCC         0.0530
     29 H10       -11.7368    3.1194    3.1090 H         1 HCC         0.0525
     30 H11       -14.7298    5.2718    0.9020 H         1 HCC         0.0525
     31 H12       -12.9627    6.5987   -0.2320 H         1 HCC         0.0530
     32 H13       -13.9376    2.8093    3.3339 H         1 HCC         0.2458
     33 H14       -10.0395   13.3003   -4.2797 H         1 HCC         0.2499
@<TRIPOS>BOND
     1    1    2 ar 
     2    1    6 ar 
     3    1   19 1  
     4    2    3 ar 
     5    3    4 ar 
     6    4    5 ar 
     7    4    7 1  
     8    5    6 ar 
     9    5   10 1  
    10    7    8 1  
    11    7   17 2  
    12    8    9 1  
    13    9   11 1  
    14   11   12 ar 
    15   11   16 ar 
    16   12   13 ar 
    17   13   14 ar 
    18   14   15 ar 
    19   14   18 1  
    20   15   16 ar 
    21    2   20 1  
    22    3   21 1  
    23    6   22 1  
    24    8   23 1  
    25    8   24 1  
    26    9   25 1  
    27    9   26 1  
    28   10   27 1  
    29   12   28 1  
    30   13   29 1  
    31   15   30 1  
    32   16   31 1  
    33   18   32 1  
    34   19   33 1  
@<TRIPOS>SUBSTRUCTURE
     1 HCC         1

