### 
### Created by X-TOOL on Mon Aug  2 16:12:37 2021
### 

@<TRIPOS>MOLECULE
6ajy_ligand
   36    37     1     0     0
SMALL
GAST_HUCK


@<TRIPOS>ATOM
      1 CAT       -13.0890    8.3030   -3.5280 C.3       1 A0R         0.0577
      2 OAS       -12.0270    7.8340   -2.6810 O.3       1 A0R        -0.3250
      3 CAN       -10.9970    7.2900   -3.4000 C.ar      1 A0R         0.0925
      4 CAL       -11.0170    7.1900   -4.7910 C.ar      1 A0R        -0.0396
      5 CAM        -9.9360    6.6260   -5.4620 C.ar      1 A0R        -0.0776
      6 CAO        -8.8400    6.1640   -4.7390 C.ar      1 A0R        -0.0797
      7 CAP        -8.8240    6.2670   -3.3490 C.ar      1 A0R        -0.0687
      8 CAK        -9.8980    6.8380   -2.6680 C.ar      1 A0R        -0.0115
      9 CAI        -9.9010    6.9240   -1.2740 C.3       1 A0R        -0.0061
     10 CAH        -8.6130    7.3300   -0.5500 C.3       1 A0R         0.0268
     11 CAG        -8.7820    7.3240    0.9770 C.2       1 A0R         0.1211
     12 OAJ        -9.8610    7.0100    1.4750 O.2       1 A0R        -0.3903
     13 CAA        -7.7140    7.7550    1.7710 C.ar      1 A0R         0.0501
     14 CAB        -6.4110    7.7820    1.2810 C.ar      1 A0R        -0.0592
     15 CAD        -5.3740    8.2280    2.1000 C.ar      1 A0R        -0.0375
     16 CAF        -5.6280    8.6580    3.4070 C.ar      1 A0R         0.0850
     17 OAR        -4.6140    9.0930    4.2020 O.3       1 A0R        -0.3322
     18 CAE        -6.9250    8.6450    3.9040 C.ar      1 A0R         0.0011
     19 CAC        -7.9490    8.1960    3.0820 C.ar      1 A0R         0.0999
     20 OAQ        -9.2280    8.1680    3.5330 O.3       1 A0R        -0.3301
     21 H1        -13.8910    8.7301   -2.9080 H         1 A0R         0.0574
     22 H2        -13.4877    7.4628   -4.1155 H         1 A0R         0.0574
     23 H3        -12.7013    9.0751   -4.2088 H         1 A0R         0.0574
     24 H4        -11.8735    7.5511   -5.3488 H         1 A0R         0.0521
     25 H5         -9.9475    6.5468   -6.5430 H         1 A0R         0.0531
     26 H6         -7.9968    5.7230   -5.2582 H         1 A0R         0.0505
     27 H7         -7.9690    5.8999   -2.7928 H         1 A0R         0.0526
     28 H8        -10.1870    5.9333   -0.8909 H         1 A0R         0.0427
     29 H9        -10.6708    7.6599   -0.9985 H         1 A0R         0.0427
     30 H10        -8.3296    8.3431   -0.8715 H         1 A0R         0.0500
     31 H11        -7.8155    6.6227   -0.8213 H         1 A0R         0.0500
     32 H12        -6.2035    7.4579    0.2676 H         1 A0R         0.0619
     33 H13        -4.3591    8.2417    1.7194 H         1 A0R         0.0471
     34 H14        -4.9628    9.3444    5.0491 H         1 A0R         0.2499
     35 H15        -7.1332    8.9790    4.9140 H         1 A0R         0.0476
     36 H16        -9.7969    7.8363    2.8482 H         1 A0R         0.2508
@<TRIPOS>BOND
     1    1    2 1  
     2    2    3 1  
     3    3    4 ar 
     4    3    8 ar 
     5    4    5 ar 
     6    5    6 ar 
     7    6    7 ar 
     8    7    8 ar 
     9    8    9 1  
    10    9   10 1  
    11   10   11 1  
    12   11   12 2  
    13   11   13 1  
    14   13   14 ar 
    15   13   19 ar 
    16   14   15 ar 
    17   15   16 ar 
    18   16   17 1  
    19   16   18 ar 
    20   18   19 ar 
    21   19   20 1  
    22    1   21 1  
    23    1   22 1  
    24    1   23 1  
    25    4   24 1  
    26    5   25 1  
    27    6   26 1  
    28    7   27 1  
    29    9   28 1  
    30    9   29 1  
    31   10   30 1  
    32   10   31 1  
    33   14   32 1  
    34   15   33 1  
    35   17   34 1  
    36   18   35 1  
    37   20   36 1  
@<TRIPOS>SUBSTRUCTURE
     1 A0R         1

