### 
### Created by X-TOOL on Mon Aug  2 16:12:37 2021
### 

@<TRIPOS>MOLECULE
6ajz_ligand
   54    56     1     0     0
SMALL
GAST_HUCK


@<TRIPOS>ATOM
      1 O4        -14.6340    7.2240   -5.5380 O.2       1 LOC        -0.3972
      2 C12       -15.7780    7.5660   -5.2500 C.2       1 LOC         0.1753
      3 C13       -16.9530    7.2120   -6.1450 C.3       1 LOC         0.0258
      4 N1        -16.0620    7.9970   -4.0530 N.am      1 LOC        -0.2705
      5 C11       -15.0160    8.5940   -3.1660 C.3       1 LOC         0.0828
      6 C14       -14.5840    7.8180   -2.0070 C.2       1 LOC        -0.0038
      7 C15       -15.5330    6.9060   -1.5230 C.2       1 LOC        -0.0143
      8 C10       -15.4480    9.9670   -2.8200 C.3       1 LOC        -0.0094
      9 C9        -14.4020   10.6550   -1.9450 C.3       1 LOC        -0.0226
     10 C8        -13.0820   10.3700   -2.3830 C.ar      1 LOC        -0.0580
     11 C7        -12.3690   11.3950   -3.0280 C.ar      1 LOC        -0.0473
     12 C5        -11.0620   11.1260   -3.4830 C.ar      1 LOC         0.1074
     13 C3        -10.4930    9.8960   -3.2650 C.ar      1 LOC         0.1422
     14 C1        -11.2020    8.8870   -2.6170 C.ar      1 LOC         0.1169
     15 O1        -10.5840    7.6770   -2.4330 O.3       1 LOC        -0.3270
     16 C2        -10.6660    6.8500   -3.5790 C.3       1 LOC         0.0572
     17 O2         -9.2130    9.6360   -3.7080 O.3       1 LOC        -0.3339
     18 C4         -8.2000   10.0430   -2.8280 C.3       1 LOC         0.0526
     19 O3        -10.2390   12.0440   -4.1280 O.3       1 LOC        -0.3280
     20 C6        -10.8880   13.2880   -4.3850 C.3       1 LOC         0.0570
     21 C22       -12.5130    9.1030   -2.1620 C.ar      1 LOC        -0.0006
     22 C21       -13.2860    8.0600   -1.5230 C.2       1 LOC        -0.0155
     23 C20       -12.6250    7.4250   -0.4750 C.2       1 LOC        -0.0540
     24 C19       -13.0980    6.3710    0.3160 C.2       1 LOC        -0.0134
     25 C17       -14.3390    5.7070    0.3390 C.2       1 LOC         0.1536
     26 C16       -15.4710    6.0010   -0.4490 C.2       1 LOC         0.1391
     27 O5        -16.5040    5.3610   -0.1530 O.2       1 LOC        -0.4348
     28 O6        -14.5530    4.6550    1.1920 O.3       1 LOC        -0.3002
     29 C18       -13.4750    4.0300    1.8940 C.3       1 LOC         0.0662
     30 H1        -17.8803    7.6102   -5.7073 H         1 LOC         0.0467
     31 H2        -17.0297    6.1183   -6.2340 H         1 LOC         0.0467
     32 H3        -16.8000    7.6512   -7.1418 H         1 LOC         0.0467
     33 H4        -17.0022    7.9268   -3.7196 H         1 LOC         0.1885
     34 H5        -14.1151    8.6930   -3.7893 H         1 LOC         0.0753
     35 H6        -16.4746    6.8974   -2.0701 H         1 LOC         0.0486
     36 H7        -16.4015    9.9191   -2.2736 H         1 LOC         0.0335
     37 H8        -15.5839   10.5471   -3.7447 H         1 LOC         0.0335
     38 H9        -14.5173   10.3042   -0.9088 H         1 LOC         0.0413
     39 H10       -14.5637   11.7423   -1.9842 H         1 LOC         0.0413
     40 H11       -12.8148   12.3724   -3.1727 H         1 LOC         0.0376
     41 H12       -10.1569    5.8955   -3.3795 H         1 LOC         0.0575
     42 H13       -10.1823    7.3528   -4.4294 H         1 LOC         0.0575
     43 H14       -11.7225    6.6590   -3.8185 H         1 LOC         0.0575
     44 H15        -7.2186    9.7976   -3.2600 H         1 LOC         0.0565
     45 H16        -8.3181    9.5216   -1.8667 H         1 LOC         0.0565
     46 H17        -8.2686   11.1290   -2.6670 H         1 LOC         0.0565
     47 H18       -10.1890   13.9679   -4.8940 H         1 LOC         0.0574
     48 H19       -11.2094   13.7373   -3.4338 H         1 LOC         0.0574
     49 H20       -11.7660   13.1181   -5.0254 H         1 LOC         0.0574
     50 H21       -11.6253    7.7900   -0.2440 H         1 LOC         0.0649
     51 H22       -12.3776    5.9986    1.0428 H         1 LOC         0.0579
     52 H23       -13.8682    3.2143    2.5186 H         1 LOC         0.0593
     53 H24       -12.9742    4.7723    2.5329 H         1 LOC         0.0593
     54 H25       -12.7535    3.6226    1.1705 H         1 LOC         0.0593
@<TRIPOS>BOND
     1    1    2 2  
     2    2    3 1  
     3    2    4 am 
     4    4    5 1  
     5    5    6 1  
     6    5    8 1  
     7    6    7 2  
     8    6   22 1  
     9    7   26 1  
    10    8    9 1  
    11    9   10 1  
    12   10   11 ar 
    13   10   21 ar 
    14   11   12 ar 
    15   12   13 ar 
    16   12   19 1  
    17   13   14 ar 
    18   13   17 1  
    19   14   15 1  
    20   14   21 ar 
    21   15   16 1  
    22   17   18 1  
    23   19   20 1  
    24   21   22 1  
    25   22   23 2  
    26   23   24 1  
    27   24   25 2  
    28   25   26 1  
    29   25   28 1  
    30   26   27 2  
    31   28   29 1  
    32    3   30 1  
    33    3   31 1  
    34    3   32 1  
    35    4   33 1  
    36    5   34 1  
    37    7   35 1  
    38    8   36 1  
    39    8   37 1  
    40    9   38 1  
    41    9   39 1  
    42   11   40 1  
    43   16   41 1  
    44   16   42 1  
    45   16   43 1  
    46   18   44 1  
    47   18   45 1  
    48   18   46 1  
    49   20   47 1  
    50   20   48 1  
    51   20   49 1  
    52   23   50 1  
    53   24   51 1  
    54   29   52 1  
    55   29   53 1  
    56   29   54 1  
@<TRIPOS>SUBSTRUCTURE
     1 LOC         1

