### 
### Created by X-TOOL on Mon Aug  2 16:12:37 2021
### 

@<TRIPOS>MOLECULE
6ak4_ligand
   37    37     1     0     0
SMALL
GAST_HUCK


@<TRIPOS>ATOM
      1 C4         28.9370    6.8100  -27.2290 C.ar      1 PD9         0.2518
      2 C5         29.9150    7.2800  -28.1200 C.ar      1 PD9         0.0959
      3 C6         27.5690    6.8310  -27.5650 C.ar      1 PD9         0.3350
      4 C10        28.1690    7.8060  -29.6880 C.ar      1 PD9         0.0940
      5 C11        29.5520    7.8010  -29.3600 C.ar      1 PD9         0.1282
      6 C12        30.5970    8.2480  -30.2960 C.2       1 PD9         0.1283
      7 C14        30.3180    6.6380  -31.7800 C.1       1 PD9         0.2147
      8 N15        29.7930    5.8630  -31.9900 N.1       1 PD9        -0.2481
      9 C16        32.0200    8.1680  -32.4400 C.2       1 PD9         0.3154
     10 O17        32.6070    9.1980  -32.0620 O.2       1 PD9        -0.3255
     11 C19        31.7820    6.3500  -34.2300 C.3       1 PD9         0.0319
     12 C20        33.4410    8.1390  -34.5140 C.3       1 PD9         0.0319
     13 C21        30.3660    6.4790  -34.7820 C.3       1 PD9        -0.0447
     14 O21        28.7190    5.2190  -25.4210 O.2       1 PD9        -0.4859
     15 N20        29.3710    6.2740  -25.9310 N.2       1 PD9        -0.1853
     16 O22        30.3510    6.8150  -25.3230 O.2       1 PD9        -0.4859
     17 O7         26.6150    6.3840  -26.7400 O.3       1 PD9        -0.2092
     18 C8         27.2090    7.3490  -28.8320 C.ar      1 PD9         0.2853
     19 O9         25.8880    7.3780  -29.1660 O.3       1 PD9        -0.2600
     20 C13        30.9230    7.6550  -31.4800 C.2       1 PD9         0.2844
     21 N18        32.3760    7.5960  -33.6480 N.am      1 PD9        -0.2564
     22 C22        34.5480    7.1120  -34.7290 C.3       1 PD9        -0.0447
     23 H1         30.9615    7.2371  -27.8407 H         1 PD9         0.1404
     24 H2         27.8647    8.1877  -30.6559 H         1 PD9         0.0876
     25 H3         31.1627    9.1356  -30.0165 H         1 PD9         0.1458
     26 H4         32.4344    6.0180  -35.0511 H         1 PD9         0.0519
     27 H5         31.7671    5.5839  -33.4408 H         1 PD9         0.0519
     28 H6         33.8686    9.0346  -34.0397 H         1 PD9         0.0519
     29 H7         33.0087    8.4110  -35.4882 H         1 PD9         0.0519
     30 H8         30.0377    5.5075  -35.1799 H         1 PD9         0.0249
     31 H9         30.3532    7.2283  -35.5873 H         1 PD9         0.0249
     32 H10        29.6859    6.7942  -33.9770 H         1 PD9         0.0249
     33 H11        25.7662    6.4866  -27.1541 H         1 PD9         0.3288
     34 H12        25.3739    7.0216  -28.4511 H         1 PD9         0.2895
     35 H13        35.3265    7.5421  -35.3763 H         1 PD9         0.0249
     36 H14        34.1280    6.2148  -35.2072 H         1 PD9         0.0249
     37 H15        34.9879    6.8385  -33.7586 H         1 PD9         0.0249
@<TRIPOS>BOND
     1    2    1 ar 
     2    1    3 ar 
     3    1   15 1  
     4    5    2 ar 
     5    3   17 1  
     6   18    3 ar 
     7    5    4 ar 
     8    4   18 ar 
     9    6    5 1  
    10   20    6 2  
    11    7    8 3  
    12   20    7 1  
    13    9   10 2  
    14    9   20 1  
    15   21    9 am 
    16   11   13 1  
    17   11   21 1  
    18   21   12 1  
    19   12   22 1  
    20   15   14 2  
    21   15   16 2  
    22   18   19 1  
    23    2   23 1  
    24    4   24 1  
    25    6   25 1  
    26   11   26 1  
    27   11   27 1  
    28   12   28 1  
    29   12   29 1  
    30   13   30 1  
    31   13   31 1  
    32   13   32 1  
    33   17   33 1  
    34   19   34 1  
    35   22   35 1  
    36   22   36 1  
    37   22   37 1  
@<TRIPOS>SUBSTRUCTURE
     1 PD9         1

