### 
### Created by X-TOOL on Mon Aug  2 16:11:54 2021
### 

@<TRIPOS>MOLECULE
6akw_ligand
   38    40     1     0     0
SMALL
GAST_HUCK


@<TRIPOS>ATOM
      1 C10        29.4680   -8.2570  -29.3920 C.ar      1 MOL        -0.0597
      2 C11        30.6460   -8.4670  -30.1030 C.ar      1 MOL         0.0565
      3 C13        31.2750   -7.4080  -30.7460 C.ar      1 MOL         0.0823
      4 C15        32.5270   -8.1670  -32.6530 C.ar      1 MOL         0.0726
      5 C16        31.5070   -8.9610  -33.1690 C.ar      1 MOL        -0.0360
      6 C17        31.6450   -9.5570  -34.4170 C.ar      1 MOL        -0.0697
      7 C18        32.8040   -9.3580  -35.1570 C.ar      1 MOL        -0.0705
      8 C19        33.8240   -8.5660  -34.6440 C.ar      1 MOL        -0.0580
      9 C20        33.6830   -7.9760  -33.3940 C.ar      1 MOL         0.0317
     10 C21        34.7890   -7.1200  -32.8510 C.2       1 MOL         0.0568
     11 O23        34.5250   -6.2910  -31.9540 O.co2     1 MOL        -0.5647
     12 O22        35.9440   -7.2570  -33.3090 O.co2     1 MOL        -0.5647
     13 N14        32.4280   -7.5800  -31.4360 N.pl3     1 MOL        -0.2738
     14 C02        30.7280   -6.1390  -30.6580 C.ar      1 MOL         0.0565
     15 CL1        31.5240   -4.7490  -31.4670 Cl        1 MOL        -0.0812
     16 CL2        31.3310  -10.1260  -30.1860 Cl        1 MOL        -0.0812
     17 C04        28.9090   -6.9860  -29.3130 C.ar      1 MOL        -0.0491
     18 C03        29.5570   -5.9310  -29.9440 C.ar      1 MOL        -0.0597
     19 C05        27.6460   -6.7650  -28.5360 C.2       1 MOL         0.0130
     20 C09        27.2550   -7.4310  -27.2690 C.2       1 MOL         0.1423
     21 C24        27.8520   -8.4580  -26.3430 C.3       1 MOL         0.0113
     22 O08        26.0460   -6.9220  -26.9340 O.3       1 MOL        -0.1762
     23 N07        25.6230   -6.0230  -27.8280 N.2       1 MOL        -0.1688
     24 C06        26.5670   -5.9050  -28.8090 C.2       1 MOL         0.0211
     25 C25        26.4240   -4.9760  -29.9880 C.3       1 MOL        -0.0274
     26 H1         28.9828   -9.0900  -28.8963 H         1 MOL         0.0538
     27 H2         30.6006   -9.1153  -32.5948 H         1 MOL         0.0536
     28 H3         30.8487  -10.1769  -34.8129 H         1 MOL         0.0606
     29 H4         32.9122   -9.8194  -36.1319 H         1 MOL         0.0520
     30 H5         34.7294   -8.4085  -35.2188 H         1 MOL         0.0619
     31 H6         33.2970   -7.2379  -31.0016 H         1 MOL         0.2092
     32 H7         29.1418   -4.9319  -29.8774 H         1 MOL         0.0538
     33 H8         27.1649   -8.6377  -25.5030 H         1 MOL         0.0462
     34 H9         28.8138   -8.0890  -25.9574 H         1 MOL         0.0462
     35 H10        28.0132   -9.3973  -26.8922 H         1 MOL         0.0462
     36 H11        25.4676   -4.4373  -29.9164 H         1 MOL         0.0378
     37 H12        26.4470   -5.5600  -30.9199 H         1 MOL         0.0378
     38 H13        27.2529   -4.2529  -29.9878 H         1 MOL         0.0378
@<TRIPOS>BOND
     1    2    1 ar 
     2    1   17 ar 
     3    3    2 ar 
     4    2   16 1  
     5   13    3 1  
     6    3   14 ar 
     7    4    5 ar 
     8    4    9 ar 
     9    4   13 1  
    10    5    6 ar 
    11    6    7 ar 
    12    7    8 ar 
    13    8    9 ar 
    14    9   10 1  
    15   10   11 ar 
    16   10   12 ar 
    17   14   15 1  
    18   14   18 ar 
    19   17   18 ar 
    20   17   19 1  
    21   19   20 2  
    22   19   24 1  
    23   20   21 1  
    24   20   22 1  
    25   22   23 1  
    26   23   24 2  
    27   24   25 1  
    28    1   26 1  
    29    5   27 1  
    30    6   28 1  
    31    7   29 1  
    32    8   30 1  
    33   13   31 1  
    34   18   32 1  
    35   21   33 1  
    36   21   34 1  
    37   21   35 1  
    38   25   36 1  
    39   25   37 1  
    40   25   38 1  
@<TRIPOS>SUBSTRUCTURE
     1 MOL         1

