### 
### Created by X-TOOL on Mon Aug  2 16:12:38 2021
### 

@<TRIPOS>MOLECULE
6alc_ligand
   47    51     1     0     0
SMALL
GAST_HUCK


@<TRIPOS>ATOM
      1 C14        -8.3090   17.3210   13.8490 C.3       1 BKD        -0.0472
      2 C5         -4.9370   15.7870   17.3650 C.3       1 BKD         0.0465
      3 C6         -5.3130   16.9500   16.4340 C.3       1 BKD         0.0251
      4 C7         -6.3740   17.7580   17.1380 C.2       1 BKD         0.0705
      5 C8         -6.7180   17.6330   18.4510 C.2       1 BKD        -0.0038
      6 C9         -7.7280   18.5780   18.6490 C.2       1 BKD         0.0239
      7 C12        -7.1490   19.2080   15.2180 C.3       1 BKD         0.0701
      8 C13        -8.4030   18.6850   14.5060 C.3       1 BKD        -0.0120
      9 C1         -3.4020   16.8690   20.7420 C.3       1 BKD         0.0259
     10 C15        -8.3540   18.5830   12.9750 C.3       1 BKD        -0.0472
     11 C16        -8.5070   18.8640   19.8820 C.ar      1 BKD        -0.0312
     12 C17        -9.0090   17.8320   20.6640 C.ar      1 BKD        -0.0726
     13 C18        -9.8180   18.0420   21.8050 C.ar      1 BKD        -0.0767
     14 C19       -10.1930   19.3420   22.1560 C.ar      1 BKD        -0.0441
     15 C2         -3.5740   16.4410   19.2860 C.2       1 BKD         0.1765
     16 C20        -9.7390   20.3970   21.3450 C.ar      1 BKD         0.0630
     17 C21        -8.8990   20.1860   20.1920 C.ar      1 BKD        -0.0214
     18 C22        -8.6280   21.4930   19.6110 C.2       1 BKD        -0.0636
     19 C23        -9.2820   22.4250   20.3830 C.2       1 BKD         0.0214
     20 C26        -6.0590   16.6460   19.3970 C.3       1 BKD         0.0505
     21 N10        -7.9650   19.2370   17.5440 N.2       1 BKD        -0.2310
     22 N11        -7.1610   18.7120   16.5840 N.pl3     1 BKD        -0.2130
     23 N24        -9.9200   21.7710   21.3980 N.pl3     1 BKD        -0.2802
     24 N4         -4.7810   16.2500   18.7480 N.am      1 BKD        -0.2673
     25 O3         -2.5830   16.1510   18.6040 O.2       1 BKD        -0.3971
     26 H1         -9.1719   16.6392   13.8735 H         1 BKD         0.0269
     27 H2         -7.3790   16.7383   13.9243 H         1 BKD         0.0269
     28 H3         -3.9888   15.3456   17.0244 H         1 BKD         0.0547
     29 H4         -5.7301   15.0257   17.3279 H         1 BKD         0.0547
     30 H5         -5.7050   16.5602   15.4830 H         1 BKD         0.0468
     31 H6         -4.4304   17.5764   16.2376 H         1 BKD         0.0468
     32 H7         -7.1544   20.3080   15.2214 H         1 BKD         0.0633
     33 H8         -6.2487   18.8474   14.6991 H         1 BKD         0.0633
     34 H9         -9.3170   19.0061   15.0270 H         1 BKD         0.0329
     35 H10        -2.3306   16.9664   20.9714 H         1 BKD         0.0467
     36 H11        -3.8509   16.1123   21.4021 H         1 BKD         0.0467
     37 H12        -3.9005   17.8366   20.9011 H         1 BKD         0.0467
     38 H13        -9.2495   18.8093   12.3776 H         1 BKD         0.0269
     39 H14        -7.4566   18.9084   12.4284 H         1 BKD         0.0269
     40 H15        -8.7683   16.8124   20.3854 H         1 BKD         0.0510
     41 H16       -10.1453   17.1997   22.4038 H         1 BKD         0.0530
     42 H17       -10.8133   19.5305   23.0247 H         1 BKD         0.0538
     43 H18        -8.0209   21.6951   18.7298 H         1 BKD         0.0290
     44 H19        -9.2897   23.5007   20.2137 H         1 BKD         0.0931
     45 H20        -6.7032   15.7662   19.5416 H         1 BKD         0.0591
     46 H21        -5.8630   17.1209   20.3697 H         1 BKD         0.0591
     47 H22       -10.4751   22.2464   22.1238 H         1 BKD         0.2269
@<TRIPOS>BOND
     1    8    1 1  
     2   10    1 1  
     3    2    3 1  
     4   24    2 1  
     5    3    4 1  
     6    4    5 2  
     7    4   22 1  
     8    5    6 1  
     9    5   20 1  
    10    6   11 1  
    11    6   21 2  
    12    7    8 1  
    13   22    7 1  
    14    8   10 1  
    15   15    9 1  
    16   11   12 ar 
    17   11   17 ar 
    18   12   13 ar 
    19   13   14 ar 
    20   14   16 ar 
    21   15   24 am 
    22   15   25 2  
    23   16   17 ar 
    24   16   23 1  
    25   17   18 1  
    26   18   19 2  
    27   19   23 1  
    28   20   24 1  
    29   21   22 1  
    30    1   26 1  
    31    1   27 1  
    32    2   28 1  
    33    2   29 1  
    34    3   30 1  
    35    3   31 1  
    36    7   32 1  
    37    7   33 1  
    38    8   34 1  
    39    9   35 1  
    40    9   36 1  
    41    9   37 1  
    42   10   38 1  
    43   10   39 1  
    44   12   40 1  
    45   13   41 1  
    46   14   42 1  
    47   18   43 1  
    48   19   44 1  
    49   20   45 1  
    50   20   46 1  
    51   23   47 1  
@<TRIPOS>SUBSTRUCTURE
     1 BKD         1

