### 
### Created by X-TOOL on Wed Jan  1 15:39:37 2020
### 

@<TRIPOS>MOLECULE
6am8_ligand
   27    28     1     0     0
SMALL
GAST_HUCK


@<TRIPOS>ATOM
      1 N           7.5710  -39.0940   12.3930 N.4       1 TRP         0.2336
      2 CA          6.4210  -39.1180   13.3600 C.3       1 TRP         0.0324
      3 C           6.3500  -40.3690   14.2310 C.2       1 TRP         0.0858
      4 O           6.9320  -41.3960   13.9040 O.co2     1 TRP        -0.5642
      5 CB          5.0980  -38.9600   12.6190 C.3       1 TRP         0.0190
      6 CG          4.9250  -39.8310   11.4480 C.2       1 TRP        -0.0392
      7 CD1         4.7520  -41.1790   11.4480 C.2       1 TRP         0.0167
      8 CD2         4.8740  -39.4130   10.0850 C.ar      1 TRP        -0.0213
      9 NE1         4.6100  -41.6330   10.1620 N.pl3     1 TRP        -0.2890
     10 CE2         4.6780  -40.5670    9.3040 C.ar      1 TRP         0.0603
     11 CE3         4.9830  -38.1720    9.4460 C.ar      1 TRP        -0.0747
     12 CZ2         4.5870  -40.5220    7.9120 C.ar      1 TRP        -0.0443
     13 CZ3         4.8930  -38.1260    8.0610 C.ar      1 TRP        -0.0792
     14 CH2         4.6970  -39.2950    7.3100 C.ar      1 TRP        -0.0768
     15 OXT         5.6920  -40.3820   15.2720 O.co2     1 TRP        -0.5642
     16 H1          7.5440  -38.2388   11.8601 H         1 TRP         0.2011
     17 H2          7.5010  -39.8817   11.7680 H         1 TRP         0.2011
     18 H3          8.4394  -39.1453   12.9023 H         1 TRP         0.2011
     19 H4          6.5449  -38.2556   14.0315 H         1 TRP         0.1040
     20 H5          5.0210  -37.9163   12.2803 H         1 TRP         0.0423
     21 H6          4.2843  -39.1769   13.3267 H         1 TRP         0.0423
     22 H7          4.7295  -41.8061   12.3381 H         1 TRP         0.0795
     23 H8          4.4742  -42.6160    9.8858 H         1 TRP         0.2216
     24 H9          5.1346  -37.2655   10.0207 H         1 TRP         0.0540
     25 H10         4.4351  -41.4231    7.3288 H         1 TRP         0.0541
     26 H11         4.9754  -37.1724    7.5522 H         1 TRP         0.0510
     27 H12         4.6311  -39.2265    6.2302 H         1 TRP         0.0530
@<TRIPOS>BOND
     1    1    2 1  
     2    2    3 1  
     3    2    5 1  
     4    3    4 ar 
     5    3   15 ar 
     6    5    6 1  
     7    6    7 2  
     8    6    8 1  
     9    7    9 1  
    10    8   10 ar 
    11    8   11 ar 
    12    9   10 1  
    13   10   12 ar 
    14   11   13 ar 
    15   12   14 ar 
    16   13   14 ar 
    17    1   16 1  
    18    1   17 1  
    19    1   18 1  
    20    2   19 1  
    21    5   20 1  
    22    5   21 1  
    23    7   22 1  
    24    9   23 1  
    25   11   24 1  
    26   12   25 1  
    27   13   26 1  
    28   14   27 1  
@<TRIPOS>SUBSTRUCTURE
     1 TRP         1

