### 
### Created by X-TOOL on Wed Jan  1 15:39:38 2020
### 

@<TRIPOS>MOLECULE
6ami_ligand
   27    28     1     0     0
SMALL
GAST_HUCK


@<TRIPOS>ATOM
      1 N          77.8200   17.4010  193.2730 N.4       1 TRP         0.2336
      2 CA         78.9350   17.5970  194.2620 C.3       1 TRP         0.0324
      3 C          78.7950   18.8620  195.1150 C.2       1 TRP         0.0858
      4 O          78.1220   19.8250  194.7500 O.co2     1 TRP        -0.5642
      5 CB         80.2920   17.5900  193.5470 C.3       1 TRP         0.0190
      6 CG         80.4050   18.5520  192.4140 C.2       1 TRP        -0.0392
      7 CD1        80.4540   19.9140  192.4810 C.2       1 TRP         0.0167
      8 CD2        80.4950   18.2120  191.0320 C.ar      1 TRP        -0.0213
      9 NE1        80.5590   20.4450  191.2180 N.pl3     1 TRP        -0.2890
     10 CE2        80.5900   19.4210  190.3080 C.ar      1 TRP         0.0603
     11 CE3        80.5060   16.9980  190.3330 C.ar      1 TRP        -0.0747
     12 CZ2        80.6920   19.4530  188.9100 C.ar      1 TRP        -0.0443
     13 CZ3        80.6070   17.0260  188.9480 C.ar      1 TRP        -0.0792
     14 CH2        80.6990   18.2480  188.2500 C.ar      1 TRP        -0.0768
     15 OXT        79.3660   18.9590  196.2030 O.co2     1 TRP        -0.5642
     16 H1         77.9791   16.5536  192.7509 H         1 TRP         0.2011
     17 H2         77.7905   18.1850  192.6402 H         1 TRP         0.2011
     18 H3         76.9427   17.3329  193.7648 H         1 TRP         0.2011
     19 H4         78.9119   16.7385  194.9493 H         1 TRP         0.1040
     20 H5         80.4674   16.5773  193.1551 H         1 TRP         0.0423
     21 H6         81.0693   17.8373  194.2850 H         1 TRP         0.0423
     22 H7         80.4155   20.4953  193.4011 H         1 TRP         0.0795
     23 H8         80.6066   21.4488  190.9922 H         1 TRP         0.2216
     24 H9         80.4370   16.0548  190.8629 H         1 TRP         0.0540
     25 H10        80.7625   20.3911  188.3714 H         1 TRP         0.0541
     26 H11        80.6152   16.0938  188.3948 H         1 TRP         0.0510
     27 H12        80.7770   18.2363  187.1689 H         1 TRP         0.0530
@<TRIPOS>BOND
     1    1    2 1  
     2    2    3 1  
     3    2    5 1  
     4    3    4 ar 
     5    3   15 ar 
     6    5    6 1  
     7    6    7 2  
     8    6    8 1  
     9    7    9 1  
    10    8   10 ar 
    11    8   11 ar 
    12    9   10 1  
    13   10   12 ar 
    14   11   13 ar 
    15   12   14 ar 
    16   13   14 ar 
    17    1   16 1  
    18    1   17 1  
    19    1   18 1  
    20    2   19 1  
    21    5   20 1  
    22    5   21 1  
    23    7   22 1  
    24    9   23 1  
    25   11   24 1  
    26   12   25 1  
    27   13   26 1  
    28   14   27 1  
@<TRIPOS>SUBSTRUCTURE
     1 TRP         1

