### 
### Created by X-TOOL on Wed Jan  1 15:39:38 2020
### 

@<TRIPOS>MOLECULE
6an1_ligand
   44    47     1     0     0
SMALL
GAST_HUCK


@<TRIPOS>ATOM
      1 C1          9.7840   18.6340    9.9000 C.ar      1 BKY         0.0032
      2 C2         11.0490   18.1310    9.6130 C.ar      1 BKY        -0.0542
      3 C3         12.1260   18.9870    9.4880 C.ar      1 BKY        -0.0540
      4 C4         11.9830   20.3600    9.6390 C.ar      1 BKY        -0.0094
      5 C5         10.7130   20.8520    9.9130 C.ar      1 BKY        -0.0540
      6 C6          9.6260   20.0080   10.0420 C.ar      1 BKY        -0.0542
      7 C7         13.1640   21.2690    9.5140 C.3       1 BKY         0.1088
      8 C8         15.5450   21.0540    9.2670 C.ar      1 BKY         0.1158
      9 C9         15.6560   22.1760    8.4600 C.ar      1 BKY        -0.0235
     10 C10        16.9100   22.6810    8.1620 C.ar      1 BKY        -0.0639
     11 C11        18.0430   22.0740    8.6600 C.ar      1 BKY        -0.0650
     12 C12        17.9380   20.9570    9.4690 C.ar      1 BKY        -0.0525
     13 C13        16.6830   20.4320    9.7970 C.ar      1 BKY         0.0279
     14 C           8.6270   17.7120   10.0810 C.2       1 BKY         0.0584
     15 O           8.9100   16.4460    9.9440 O.co2     1 BKY        -0.5625
     16 C14        16.5010   19.3130   10.7240 C.2       1 BKY        -0.0217
     17 C15        17.3160   18.5450   11.4740 C.2       1 BKY         0.0827
     18 C16        18.7500   18.4160   11.8090 C.2       1 BKY         0.1600
     19 C17        18.8500   17.3720   12.8570 C.ar      1 BKY         0.0468
     20 C18        17.5880   16.8760   13.1390 C.ar      1 BKY         0.0468
     21 C19        16.5840   17.5570   12.2920 C.2       1 BKY         0.1600
     22 C20        17.4130   15.9130   14.1290 C.ar      1 BKY        -0.0394
     23 C21        18.5200   15.4620   14.8300 C.ar      1 BKY        -0.0523
     24 C22        19.7850   15.9550   14.5450 C.ar      1 BKY        -0.0523
     25 C23        19.9610   16.9100   13.5550 C.ar      1 BKY        -0.0394
     26 O1          7.5070   18.1270   10.3490 O.co2     1 BKY        -0.5625
     27 O2         14.3490   20.4640    9.5770 O.3       1 BKY        -0.2961
     28 O3         19.6960   19.0310   11.3200 O.2       1 BKY        -0.3724
     29 O4         15.3800   17.3170   12.2810 O.2       1 BKY        -0.3724
     30 H1         11.1900   17.0636    9.4870 H         1 BKY         0.0634
     31 H2         13.1051   18.5776    9.2670 H         1 BKY         0.0565
     32 H3         10.5715   21.9206   10.0281 H         1 BKY         0.0565
     33 H4          8.6459   20.4192   10.2548 H         1 BKY         0.0634
     34 H5         13.1633   21.9980   10.3378 H         1 BKY         0.0792
     35 H6         13.1251   21.8021    8.5526 H         1 BKY         0.0792
     36 H7         14.7670   22.6544    8.0652 H         1 BKY         0.0560
     37 H8         17.0015   23.5592    7.5331 H         1 BKY         0.0642
     38 H9         19.0207   22.4739    8.4165 H         1 BKY         0.0546
     39 H10        18.8352   20.4844    9.8521 H         1 BKY         0.0647
     40 H11        15.4541   19.0340   10.8339 H         1 BKY         0.0849
     41 H12        16.4260   15.5220   14.3481 H         1 BKY         0.0680
     42 H13        18.3964   14.7173   15.6080 H         1 BKY         0.0663
     43 H14        20.6420   15.5911   15.1001 H         1 BKY         0.0663
     44 H15        20.9502   17.2910   13.3283 H         1 BKY         0.0680
@<TRIPOS>BOND
     1    2    1 ar 
     2    6    1 ar 
     3    1   14 1  
     4    3    2 ar 
     5    4    3 ar 
     6    4    5 ar 
     7    7    4 1  
     8    5    6 ar 
     9   27    7 1  
    10    8    9 ar 
    11    8   13 ar 
    12    8   27 1  
    13    9   10 ar 
    14   10   11 ar 
    15   11   12 ar 
    16   12   13 ar 
    17   13   16 1  
    18   14   15 ar 
    19   14   26 ar 
    20   16   17 2  
    21   17   18 1  
    22   17   21 1  
    23   18   19 1  
    24   18   28 2  
    25   19   20 ar 
    26   19   25 ar 
    27   20   21 1  
    28   20   22 ar 
    29   21   29 2  
    30   22   23 ar 
    31   23   24 ar 
    32   24   25 ar 
    33    2   30 1  
    34    3   31 1  
    35    5   32 1  
    36    6   33 1  
    37    7   34 1  
    38    7   35 1  
    39    9   36 1  
    40   10   37 1  
    41   11   38 1  
    42   12   39 1  
    43   16   40 1  
    44   22   41 1  
    45   23   42 1  
    46   24   43 1  
    47   25   44 1  
@<TRIPOS>SUBSTRUCTURE
     1 BKY         1

