### 
### Created by X-TOOL on Wed Jan  1 15:39:37 2020
### 

@<TRIPOS>MOLECULE
6anl_ligand
   50    53     1     0     0
SMALL
GAST_HUCK


@<TRIPOS>ATOM
      1 O24        12.7990    4.8520   -4.3540 O.2       1 T75        -0.3709
      2 C22        12.8860    5.0040   -5.5660 C.2       1 T75         0.2362
      3 C23        11.6440    5.0330   -6.3870 C.ar      1 T75         0.0568
      4 C29        11.6050    5.7290   -7.6130 C.ar      1 T75        -0.0414
      5 C28        10.4420    5.7480   -8.3770 C.ar      1 T75        -0.0562
      6 C27         9.3050    5.0800   -7.9280 C.ar      1 T75        -0.0575
      7 C26         9.3270    4.3850   -6.7190 C.ar      1 T75        -0.0562
      8 C25        10.4850    4.3570   -5.9490 C.ar      1 T75        -0.0414
      9 N19        14.0890    5.1460   -6.1910 N.am      1 T75        -0.2190
     10 C8         15.3770    5.1360   -5.6380 C.ar      1 T75         0.1320
     11 C7         15.6260    5.2140   -4.2640 C.ar      1 T75        -0.0122
     12 N9         16.4010    5.0380   -6.4860 N.ar      1 T75        -0.2925
     13 C10        17.6660    5.0120   -6.0820 C.ar      1 T75        -0.0124
     14 C11        17.9890    5.0750   -4.7350 C.ar      1 T75        -0.0478
     15 C6         16.9510    5.2000   -3.7860 C.ar      1 T75        -0.0085
     16 C5         17.1950    5.2460   -2.3270 C.2       1 T75         0.0639
     17 S4         16.0180    4.5810   -1.2000 S.3       1 T75         0.0098
     18 C3         17.0060    4.9760    0.1340 C.2       1 T75         0.0988
     19 C20        16.6740    4.7120    1.5870 C.3       1 T75         0.0184
     20 C21        15.3110    4.0260    1.7290 C.3       1 T75        -0.0474
     21 N2         18.0880    5.5380   -0.2710 N.2       1 T75        -0.3041
     22 C1         18.2630    5.7100   -1.5740 C.2       1 T75         0.0322
     23 C12        19.4850    6.3920   -2.0650 C.ar      1 T75        -0.0225
     24 C17        19.3490    7.5820   -2.8060 C.ar      1 T75        -0.0624
     25 C16        20.4690    8.2620   -3.2650 C.ar      1 T75        -0.0691
     26 C15        21.7330    7.7620   -2.9780 C.ar      1 T75        -0.0617
     27 C14        21.8740    6.5860   -2.2420 C.ar      1 T75        -0.0472
     28 C18        23.2530    6.0690   -1.9480 C.3       1 T75        -0.0315
     29 C13        20.7670    5.8970   -1.7750 C.ar      1 T75        -0.0550
     30 H1         12.4872    6.2529   -7.9627 H         1 T75         0.0669
     31 H2         10.4209    6.2819   -9.3202 H         1 T75         0.0629
     32 H3          8.3982    5.1005   -8.5215 H         1 T75         0.0653
     33 H4          8.4389    3.8651   -6.3784 H         1 T75         0.0629
     34 H5         10.4974    3.8148   -5.0104 H         1 T75         0.0669
     35 H6         14.0468    5.2753   -7.1817 H         1 T75         0.2301
     36 H7         14.7991    5.2853   -3.5667 H         1 T75         0.0557
     37 H8         18.4591    4.9403   -6.8175 H         1 T75         0.0755
     38 H9         19.0237    5.0289   -4.4151 H         1 T75         0.0556
     39 H10        16.6522    5.6687    2.1295 H         1 T75         0.0533
     40 H11        17.4492    4.0625    2.0198 H         1 T75         0.0533
     41 H12        15.0992    3.8482    2.7937 H         1 T75         0.0262
     42 H13        15.3262    3.0657    1.1928 H         1 T75         0.0262
     43 H14        14.5293    4.6718    1.3026 H         1 T75         0.0262
     44 H15        18.3600    7.9708   -3.0201 H         1 T75         0.0555
     45 H16        20.3584    9.1735   -3.8412 H         1 T75         0.0597
     46 H17        22.6137    8.2884   -3.3278 H         1 T75         0.0548
     47 H18        23.1794    5.1405   -1.3628 H         1 T75         0.0390
     48 H19        23.8119    6.8217   -1.3726 H         1 T75         0.0390
     49 H20        23.7777    5.8660   -2.8932 H         1 T75         0.0390
     50 H21        20.8882    4.9896   -1.1945 H         1 T75         0.0546
@<TRIPOS>BOND
     1    1    2 2  
     2    2    3 1  
     3    2    9 am 
     4    3    4 ar 
     5    3    8 ar 
     6    4    5 ar 
     7    5    6 ar 
     8    6    7 ar 
     9    7    8 ar 
    10    9   10 1  
    11   10   11 ar 
    12   10   12 ar 
    13   11   15 ar 
    14   12   13 ar 
    15   13   14 ar 
    16   14   15 ar 
    17   15   16 1  
    18   16   17 1  
    19   16   22 2  
    20   17   18 1  
    21   18   19 1  
    22   18   21 2  
    23   19   20 1  
    24   21   22 1  
    25   22   23 1  
    26   23   24 ar 
    27   23   29 ar 
    28   24   25 ar 
    29   25   26 ar 
    30   26   27 ar 
    31   27   28 1  
    32   27   29 ar 
    33    4   30 1  
    34    5   31 1  
    35    6   32 1  
    36    7   33 1  
    37    8   34 1  
    38    9   35 1  
    39   11   36 1  
    40   13   37 1  
    41   14   38 1  
    42   19   39 1  
    43   19   40 1  
    44   20   41 1  
    45   20   42 1  
    46   20   43 1  
    47   24   44 1  
    48   25   45 1  
    49   26   46 1  
    50   28   47 1  
    51   28   48 1  
    52   28   49 1  
    53   29   50 1  
@<TRIPOS>SUBSTRUCTURE
     1 T75         1

