### 
### Created by X-TOOL on Mon Sep 10 21:13:33 2018
### 

@<TRIPOS>MOLECULE
6aol_ligand
   49    51     1     0     0
SMALL
GAST_HUCK


@<TRIPOS>ATOM
      1 O01      -120.6450  122.9650   60.1230 O.3       1 VC1        -0.3314
      2 C02      -120.8460  124.2110   59.6150 C.ar      1 VC1         0.0967
      3 C03      -121.2300  124.3600   58.2670 C.ar      1 VC1        -0.0048
      4 C04      -121.4420  125.6410   57.7390 C.ar      1 VC1         0.0927
      5 O05      -121.8170  125.8140   56.4120 O.3       1 VC1        -0.3331
      6 C06      -121.2540  126.7320   58.6130 C.ar      1 VC1         0.0633
      7 CL7      -121.5210  128.3560   57.9790 Cl        1 VC1        -0.0937
      8 C08      -120.8940  126.6190   59.9570 C.ar      1 VC1        -0.0212
      9 C09      -120.7180  127.9050   60.7310 C.3       1 VC1        -0.0105
     10 C10      -119.4120  128.6570   60.4050 C.3       1 VC1        -0.0109
     11 C11      -118.8420  129.6030   61.3860 C.ar      1 VC1        -0.0370
     12 C12      -118.6600  130.9780   61.1220 C.ar      1 VC1        -0.0303
     13 C13      -119.0780  131.6690   59.7780 C.3       1 VC1         0.0097
     14 C14      -119.1960  133.1450   59.8920 C.ar      1 VC1        -0.0369
     15 C15      -118.0560  133.9490   59.8360 C.ar      1 VC1        -0.0602
     16 C16      -118.0710  135.3160   59.9850 C.ar      1 VC1        -0.0346
     17 C17      -119.3070  135.9390   60.2220 C.ar      1 VC1         0.1251
     18 F18      -119.3540  137.2040   60.3630 F         1 VC1        -0.1891
     19 C19      -120.4800  135.1640   60.3110 C.ar      1 VC1        -0.0346
     20 C20      -120.4010  133.7970   60.1530 C.ar      1 VC1        -0.0602
     21 C21      -118.0880  131.7670   62.1620 C.ar      1 VC1        -0.0649
     22 C22      -117.6860  131.2310   63.3970 C.ar      1 VC1        -0.0751
     23 C23      -117.8590  129.8670   63.6340 C.ar      1 VC1        -0.0753
     24 C24      -118.4310  129.0700   62.6290 C.ar      1 VC1        -0.0663
     25 C25      -120.6630  125.3080   60.4830 C.ar      1 VC1         0.0814
     26 C26      -120.2480  125.0980   61.9540 C.2       1 VC1         0.2442
     27 O27      -119.4030  126.0030   62.6020 O.3       1 VC1        -0.2852
     28 C28      -118.3060  125.4970   63.3690 C.3       1 VC1         0.0640
     29 O29      -120.6160  124.1630   62.6310 O.2       1 VC1        -0.3727
     30 H1       -120.3928  123.0335   61.0364 H         1 VC1         0.2508
     31 H2       -121.3611  123.4856   57.6399 H         1 VC1         0.0423
     32 H3       -122.6428  125.3706   56.2571 H         1 VC1         0.2502
     33 H4       -120.7212  127.6662   61.8047 H         1 VC1         0.0460
     34 H5       -121.5656  128.5670   60.5000 H         1 VC1         0.0460
     35 H6       -119.5954  129.2276   59.4826 H         1 VC1         0.0436
     36 H7       -118.6436  127.8928   60.2168 H         1 VC1         0.0436
     37 H8       -120.0512  131.2636   59.4642 H         1 VC1         0.0562
     38 H9       -118.3206  131.4366   59.0149 H         1 VC1         0.0562
     39 H10      -117.1007  133.4662   59.6646 H         1 VC1         0.0551
     40 H11      -117.1567  135.8949   59.9215 H         1 VC1         0.0587
     41 H12      -121.4359  135.6383   60.5020 H         1 VC1         0.0587
     42 H13      -121.3073  133.2079   60.2345 H         1 VC1         0.0551
     43 H14      -117.9571  132.8296   61.9924 H         1 VC1         0.0541
     44 H15      -117.2472  131.8689   64.1557 H         1 VC1         0.0542
     45 H16      -117.5568  129.4295   64.5786 H         1 VC1         0.0543
     46 H17      -118.5618  128.0097   62.8128 H         1 VC1         0.0538
     47 H18      -117.7474  126.3367   63.8081 H         1 VC1         0.0574
     48 H19      -117.6394  124.9149   62.7157 H         1 VC1         0.0574
     49 H20      -118.6879  124.8505   64.1729 H         1 VC1         0.0574
@<TRIPOS>BOND
     1    1    2 1  
     2    2    3 ar 
     3    2   25 ar 
     4    3    4 ar 
     5    4    5 1  
     6    4    6 ar 
     7    6    7 1  
     8    6    8 ar 
     9    8    9 1  
    10    8   25 ar 
    11    9   10 1  
    12   10   11 1  
    13   11   12 ar 
    14   11   24 ar 
    15   12   13 1  
    16   12   21 ar 
    17   13   14 1  
    18   14   15 ar 
    19   14   20 ar 
    20   15   16 ar 
    21   16   17 ar 
    22   17   18 1  
    23   17   19 ar 
    24   19   20 ar 
    25   21   22 ar 
    26   22   23 ar 
    27   23   24 ar 
    28   25   26 1  
    29   26   27 1  
    30   26   29 2  
    31   27   28 1  
    32    1   30 1  
    33    3   31 1  
    34    5   32 1  
    35    9   33 1  
    36    9   34 1  
    37   10   35 1  
    38   10   36 1  
    39   13   37 1  
    40   13   38 1  
    41   15   39 1  
    42   16   40 1  
    43   19   41 1  
    44   20   42 1  
    45   21   43 1  
    46   22   44 1  
    47   23   45 1  
    48   24   46 1  
    49   28   47 1  
    50   28   48 1  
    51   28   49 1  
@<TRIPOS>SUBSTRUCTURE
     1 VC1         1

