### 
### Created by X-TOOL on Mon Sep 10 21:13:33 2018
### 

@<TRIPOS>MOLECULE
6aom_ligand
   49    51     1     0     0
SMALL
GAST_HUCK


@<TRIPOS>ATOM
      1 O01      -120.2510    4.5830   95.4510 O.3       1 VC5        -0.3314
      2 C02      -120.4770    5.0410   96.6780 C.ar      1 VC5         0.0967
      3 C03      -120.8400    6.3780   96.8540 C.ar      1 VC5        -0.0048
      4 C04      -121.0750    6.8430   98.1380 C.ar      1 VC5         0.0927
      5 O05      -121.4280    8.1200   98.3280 O.3       1 VC5        -0.3331
      6 C06      -120.9450    5.9630   99.2110 C.ar      1 VC5         0.0633
      7 CL7      -121.2550    6.6200  100.7500 Cl        1 VC5        -0.0937
      8 C08      -120.5900    4.6310   99.0820 C.ar      1 VC5        -0.0212
      9 C09      -120.4640    3.7760  100.3320 C.3       1 VC5        -0.0105
     10 C10      -119.0140    3.4240  100.7410 C.3       1 VC5        -0.0109
     11 C11      -118.5960    3.3050  102.2030 C.ar      1 VC5        -0.0369
     12 C12      -117.4980    2.4790  102.6190 C.ar      1 VC5        -0.0297
     13 C13      -116.6680    1.5860  101.6380 C.3       1 VC5         0.0116
     14 C14      -115.6790    2.1770  100.5680 C.ar      1 VC5        -0.0331
     15 C15      -116.0120    3.1160   99.5610 C.ar      1 VC5        -0.0585
     16 C16      -115.0830    3.5800   98.6230 C.ar      1 VC5        -0.0683
     17 C17      -113.7770    3.1120   98.6410 C.ar      1 VC5        -0.0686
     18 C18      -113.4200    2.1820   99.6080 C.ar      1 VC5        -0.0683
     19 C19      -114.3540    1.7260  100.5350 C.ar      1 VC5        -0.0585
     20 C20      -117.1990    2.4370  104.0000 C.ar      1 VC5        -0.0648
     21 C21      -117.9000    3.1850  104.9520 C.ar      1 VC5        -0.0751
     22 C22      -118.9500    4.0030  104.5380 C.ar      1 VC5        -0.0752
     23 C23      -119.2820    4.0550  103.1760 C.ar      1 VC5        -0.0663
     24 C24      -120.3480    4.1640   97.7870 C.ar      1 VC5         0.0814
     25 C25      -119.9400    2.7480   97.3990 C.2       1 VC5         0.2442
     26 O26      -118.6570    2.3340   97.8720 O.3       1 VC5        -0.2852
     27 C27      -118.2930    0.9810   97.6270 C.3       1 VC5         0.0640
     28 O28      -120.5920    2.0310   96.7420 O.2       1 VC5        -0.3727
     29 H1       -120.0158    3.6637   95.4957 H         1 VC5         0.2508
     30 H2       -120.9362    7.0403   96.0013 H         1 VC5         0.0423
     31 H3       -121.5511    8.2785   99.2565 H         1 VC5         0.2502
     32 H4       -121.0071    2.8354  100.1581 H         1 VC5         0.0460
     33 H5       -120.9310    4.3203  101.1660 H         1 VC5         0.0460
     34 H6       -118.3717    4.1997  100.2987 H         1 VC5         0.0436
     35 H7       -118.7893    2.4528  100.2759 H         1 VC5         0.0436
     36 H8       -117.4025    0.9911  101.0753 H         1 VC5         0.0569
     37 H9       -116.0649    0.9196  102.2721 H         1 VC5         0.0569
     38 H10      -117.0282    3.4905   99.5151 H         1 VC5         0.0560
     39 H11      -115.3851    4.3083   97.8791 H         1 VC5         0.0600
     40 H12      -113.0518    3.4645   97.9165 H         1 VC5         0.0560
     41 H13      -112.4036    1.8068   99.6419 H         1 VC5         0.0600
     42 H14      -114.0407    0.9880  101.2645 H         1 VC5         0.0560
     43 H15      -116.3911    1.7971  104.3361 H         1 VC5         0.0541
     44 H16      -117.6295    3.1291  106.0002 H         1 VC5         0.0542
     45 H17      -119.5036    4.5921  105.2601 H         1 VC5         0.0543
     46 H18      -120.0971    4.6967  102.8615 H         1 VC5         0.0538
     47 H19      -117.2904    0.7910   98.0376 H         1 VC5         0.0574
     48 H20      -118.2869    0.7934   96.5431 H         1 VC5         0.0574
     49 H21      -119.0201    0.3123   98.1108 H         1 VC5         0.0574
@<TRIPOS>BOND
     1    1    2 1  
     2    2    3 ar 
     3    2   24 ar 
     4    3    4 ar 
     5    4    5 1  
     6    4    6 ar 
     7    6    7 1  
     8    6    8 ar 
     9    8    9 1  
    10    8   24 ar 
    11    9   10 1  
    12   10   11 1  
    13   11   12 ar 
    14   11   23 ar 
    15   12   13 1  
    16   12   20 ar 
    17   13   14 1  
    18   14   15 ar 
    19   14   19 ar 
    20   15   16 ar 
    21   16   17 ar 
    22   17   18 ar 
    23   18   19 ar 
    24   20   21 ar 
    25   21   22 ar 
    26   22   23 ar 
    27   24   25 1  
    28   25   26 1  
    29   25   28 2  
    30   26   27 1  
    31    1   29 1  
    32    3   30 1  
    33    5   31 1  
    34    9   32 1  
    35    9   33 1  
    36   10   34 1  
    37   10   35 1  
    38   13   36 1  
    39   13   37 1  
    40   15   38 1  
    41   16   39 1  
    42   17   40 1  
    43   18   41 1  
    44   19   42 1  
    45   20   43 1  
    46   21   44 1  
    47   22   45 1  
    48   23   46 1  
    49   27   47 1  
    50   27   48 1  
    51   27   49 1  
@<TRIPOS>SUBSTRUCTURE
     1 VC5         1

