### 
### Created by X-TOOL on Mon Aug  2 16:12:38 2021
### 

@<TRIPOS>MOLECULE
6aox_ligand
   51    52     1     0     0
SMALL
GAST_HUCK


@<TRIPOS>ATOM
      1 C17        -5.6870    3.2590  -12.5370 C.3       1 TF0         0.1341
      2 C20        -6.4780    5.4350  -14.1650 C.3       1 TF0         0.1130
      3 C21        -7.5520    6.2880  -14.8110 C.3       1 TF0         0.0730
      4 C01        -3.6470    1.3010   -8.9760 C.3       1 TF0         0.0257
      5 C02        -4.5350    2.5180   -8.7930 C.2       1 TF0         0.1733
      6 O03        -5.7310    2.3720   -8.6650 O.2       1 TF0        -0.3974
      7 N04        -3.9800    3.8240   -8.7750 N.am      1 TF0        -0.2766
      8 C05        -4.8020    4.9740   -8.6080 C.3       1 TF0         0.1211
      9 C06        -5.0780    5.5860   -9.9670 C.3       1 TF0         0.1176
     10 C07        -5.7790    6.9120   -9.7950 C.3       1 TF0         0.1120
     11 C08        -4.9450    7.8090   -8.9090 C.3       1 TF0         0.1130
     12 C09        -5.6420    9.1380   -8.7180 C.3       1 TF0         0.0730
     13 O10        -4.8330    9.9910   -7.9360 O.3       1 TF0        -0.3924
     14 O11        -4.7650    7.1890   -7.6590 O.3       1 TF0        -0.3410
     15 C12        -4.0790    5.9590   -7.7130 C.3       1 TF0         0.1823
     16 O13        -2.7790    6.1580   -8.2120 O.3       1 TF0        -0.3651
     17 O14        -7.0350    6.6930   -9.2000 O.3       1 TF0        -0.3865
     18 O15        -5.9180    4.7150  -10.6940 O.3       1 TF0        -0.3403
     19 C16        -5.6540    4.6970  -12.0800 C.3       1 TF0         0.1884
     20 C18        -5.5070    3.1890  -14.0350 C.3       1 TF0         0.1141
     21 C19        -6.5840    4.0210  -14.6880 C.3       1 TF0         0.1119
     22 O22        -8.8210    5.9010  -14.3330 O.3       1 TF0        -0.3924
     23 O23        -6.6350    5.4370  -12.7630 O.3       1 TF0        -0.3405
     24 O24        -7.8480    3.4990  -14.3650 O.3       1 TF0        -0.3865
     25 O25        -5.5980    1.8510  -14.4660 O.3       1 TF0        -0.3864
     26 O26        -4.6410    2.5600  -11.9120 O.3       1 TF0        -0.3841
     27 H1         -6.6514    2.8072  -12.2619 H         1 TF0         0.0671
     28 H2         -5.4887    5.8439  -14.4181 H         1 TF0         0.0647
     29 H3         -7.5167    6.1550  -15.9023 H         1 TF0         0.0584
     30 H4         -7.3759    7.3455  -14.5646 H         1 TF0         0.0584
     31 H5         -2.5998    1.6228   -9.0752 H         1 TF0         0.0467
     32 H6         -3.9512    0.7581   -9.8831 H         1 TF0         0.0467
     33 H7         -3.7462    0.6400   -8.1024 H         1 TF0         0.0467
     34 H8         -2.9923    3.9386   -8.8817 H         1 TF0         0.1857
     35 H9         -5.7541    4.6852   -8.1390 H         1 TF0         0.0633
     36 H10        -4.1318    5.7332  -10.5083 H         1 TF0         0.0649
     37 H11        -5.9145    7.3888  -10.7770 H         1 TF0         0.0647
     38 H12        -3.9648    7.9766   -9.3792 H         1 TF0         0.0647
     39 H13        -6.6033    8.9769   -8.2081 H         1 TF0         0.0584
     40 H14        -5.8206    9.6017   -9.6993 H         1 TF0         0.0584
     41 H15        -4.6793    9.5905   -7.0884 H         1 TF0         0.2095
     42 H16        -4.0174    5.5420   -6.6970 H         1 TF0         0.0932
     43 H17        -2.8295    6.5281   -9.0855 H         1 TF0         0.2126
     44 H18        -7.5555    6.1290   -9.7600 H         1 TF0         0.2100
     45 H19        -4.6627    5.1306  -12.2782 H         1 TF0         0.0938
     46 H20        -4.5192    3.5900  -14.3059 H         1 TF0         0.0648
     47 H21        -6.4496    4.0146  -15.7797 H         1 TF0         0.0647
     48 H22        -8.9736    4.9879  -14.5464 H         1 TF0         0.2095
     49 H23        -8.5220    4.0259  -14.7782 H         1 TF0         0.2100
     50 H24        -5.4904    1.8153  -15.4092 H         1 TF0         0.2100
     51 H25        -4.7520    2.6026  -10.9694 H         1 TF0         0.2101
@<TRIPOS>BOND
     1   19    1 1  
     2    1   20 1  
     3    1   26 1  
     4    2    3 1  
     5    2   21 1  
     6   23    2 1  
     7    3   22 1  
     8    5    4 1  
     9    5    6 2  
    10    7    5 am 
    11    8    7 1  
    12    9    8 1  
    13    8   15 1  
    14    9   10 1  
    15   18    9 1  
    16   10   11 1  
    17   10   17 1  
    18   11   12 1  
    19   11   14 1  
    20   12   13 1  
    21   15   14 1  
    22   15   16 1  
    23   19   18 1  
    24   19   23 1  
    25   20   21 1  
    26   20   25 1  
    27   21   24 1  
    28    1   27 1  
    29    2   28 1  
    30    3   29 1  
    31    3   30 1  
    32    4   31 1  
    33    4   32 1  
    34    4   33 1  
    35    7   34 1  
    36    8   35 1  
    37    9   36 1  
    38   10   37 1  
    39   11   38 1  
    40   12   39 1  
    41   12   40 1  
    42   13   41 1  
    43   15   42 1  
    44   16   43 1  
    45   17   44 1  
    46   19   45 1  
    47   20   46 1  
    48   21   47 1  
    49   22   48 1  
    50   24   49 1  
    51   25   50 1  
    52   26   51 1  
@<TRIPOS>SUBSTRUCTURE
     1 TF0         1

