### 
### Created by X-TOOL on Mon Aug  2 16:12:38 2021
### 

@<TRIPOS>MOLECULE
6aoy_ligand
   36    37     1     0     0
SMALL
GAST_HUCK


@<TRIPOS>ATOM
      1 C1         32.6900  -35.8190   12.1690 C.3       1 MOL         0.2116
      2 C2         32.0400  -34.4780   11.9900 C.3       1 MOL         0.1389
      3 O2         30.7780  -34.6920   12.4860 O.3       1 MOL        -0.3837
      4 C3         31.9040  -34.2160   10.5520 C.3       1 MOL         0.1145
      5 O3         31.2230  -33.0140   10.4200 O.3       1 MOL        -0.3864
      6 C4         33.2310  -34.2330    9.8790 C.3       1 MOL         0.1119
      7 O4         34.0310  -33.2750   10.4610 O.3       1 MOL        -0.3865
      8 C5         33.8750  -35.5670   10.1370 C.3       1 MOL         0.1134
      9 C6         35.2730  -35.6070    9.5760 C.3       1 MOL         0.0730
     10 O6         36.2480  -35.4230   10.5250 O.3       1 MOL        -0.3924
     11 O5         33.9390  -35.8100   11.5250 O.3       1 MOL        -0.3366
     12 O1'        32.6400  -35.8930   13.5490 O.3       1 MOL        -0.2767
     13 C1'        33.3940  -36.7300   14.3530 C.ar      1 MOL         0.1398
     14 C2'        33.8410  -36.2130   15.5640 C.ar      1 MOL         0.2281
     15 C3'        34.5720  -36.9840   16.4000 C.ar      1 MOL        -0.0269
     16 C4'        34.8110  -38.2860   16.0440 C.ar      1 MOL        -0.0645
     17 C5'        34.3410  -38.7970   14.8660 C.ar      1 MOL        -0.0650
     18 C6'        33.6120  -38.0230   14.0130 C.ar      1 MOL        -0.0237
     19 N1'        33.6290  -34.8670   15.9190 N.2       1 MOL         0.3090
     20 O2'        33.3510  -33.9300   14.9990 O.2       1 MOL         0.1723
     21 O3'        33.7420  -34.4800   17.0400 O.2       1 MOL         0.1723
     22 H1         32.0899  -36.6301   11.7309 H         1 MOL         0.0997
     23 H2         32.5770  -33.6689   12.5067 H         1 MOL         0.0676
     24 H3         30.8374  -34.9551   13.3969 H         1 MOL         0.2101
     25 H4         31.2927  -35.0114   10.1008 H         1 MOL         0.0648
     26 H5         31.1162  -32.8114    9.4980 H         1 MOL         0.2100
     27 H6         33.1218  -34.0507    8.7997 H         1 MOL         0.0647
     28 H7         34.8823  -33.2761   10.0393 H         1 MOL         0.2100
     29 H8         33.2717  -36.3520    9.6576 H         1 MOL         0.0647
     30 H9         35.3681  -34.8133    8.8204 H         1 MOL         0.0584
     31 H10        35.4299  -36.5865    9.1007 H         1 MOL         0.0584
     32 H11        36.1837  -36.1077   11.1803 H         1 MOL         0.2095
     33 H12        34.9597  -36.5824   17.3292 H         1 MOL         0.0663
     34 H13        35.3834  -38.9226   16.7090 H         1 MOL         0.0540
     35 H14        34.5504  -39.8287   14.6077 H         1 MOL         0.0633
     36 H15        33.2180  -38.4305   13.0890 H         1 MOL         0.0558
@<TRIPOS>BOND
     1    1    2 1  
     2    1   11 1  
     3    1   12 1  
     4    2    3 1  
     5    2    4 1  
     6    4    5 1  
     7    4    6 1  
     8    6    7 1  
     9    6    8 1  
    10    8    9 1  
    11    8   11 1  
    12    9   10 1  
    13   12   13 1  
    14   13   14 ar 
    15   13   18 ar 
    16   14   15 ar 
    17   14   19 1  
    18   15   16 ar 
    19   16   17 ar 
    20   17   18 ar 
    21   19   20 2  
    22   19   21 2  
    23    1   22 1  
    24    2   23 1  
    25    3   24 1  
    26    4   25 1  
    27    5   26 1  
    28    6   27 1  
    29    7   28 1  
    30    8   29 1  
    31    9   30 1  
    32    9   31 1  
    33   10   32 1  
    34   15   33 1  
    35   16   34 1  
    36   17   35 1  
    37   18   36 1  
@<TRIPOS>SUBSTRUCTURE
     1 MOL         1

