### 
### Created by X-TOOL on Wed Jan  1 15:39:35 2020
### 

@<TRIPOS>MOLECULE
6ap6_ligand
   29    30     1     0     0
SMALL
GAST_HUCK


@<TRIPOS>ATOM
      1 C4        -18.5380   48.8310   -9.3250 C.ar      1 TLF        -0.0785
      2 C5        -18.3570   49.6420  -10.4530 C.ar      1 TLF        -0.0457
      3 C6        -17.9350   49.0920  -11.6820 C.ar      1 TLF         0.0620
      4 C8        -18.6070   50.8540  -13.2550 C.ar      1 TLF         0.0716
      5 C9        -19.7230   51.4190  -12.6000 C.ar      1 TLF        -0.0363
      6 C10       -20.3540   52.5420  -13.0770 C.ar      1 TLF        -0.0698
      7 C11       -19.9500   53.1350  -14.2580 C.ar      1 TLF        -0.0706
      8 C12       -18.8810   52.6020  -14.9800 C.ar      1 TLF        -0.0581
      9 C13       -18.1850   51.4880  -14.5340 C.ar      1 TLF         0.0314
     10 C14       -16.9970   50.9640  -15.3280 C.2       1 TLF         0.0567
     11 O16       -16.4010   49.9480  -14.9800 O.co2     1 TLF        -0.5647
     12 O15       -16.6190   51.6760  -16.3850 O.co2     1 TLF        -0.5647
     13 N7        -17.8650   49.8080  -12.8390 N.pl3     1 TLF        -0.2755
     14 C1        -17.6830   47.6550  -11.7490 C.ar      1 TLF        -0.0087
     15 C17       -17.2040   46.9140  -12.9940 C.3       1 TLF        -0.0332
     16 C2        -17.8840   46.8610  -10.5220 C.ar      1 TLF         0.0313
     17 CL        -17.5640   45.1280  -10.5880 Cl        1 TLF        -0.0808
     18 C3        -18.3100   47.4770   -9.3550 C.ar      1 TLF        -0.0668
     19 H1        -18.8686   49.2869   -8.3988 H         1 TLF         0.0529
     20 H2        -18.5438   50.7073  -10.3806 H         1 TLF         0.0511
     21 H3        -20.0927   50.9527  -11.6939 H         1 TLF         0.0535
     22 H4        -21.1799   52.9688  -12.5195 H         1 TLF         0.0606
     23 H5        -20.4644   54.0160  -14.6245 H         1 TLF         0.0519
     24 H6        -18.5873   53.0702  -15.9125 H         1 TLF         0.0618
     25 H7        -17.1331   49.5035  -13.4967 H         1 TLF         0.2076
     26 H8        -17.0984   47.6255  -13.8262 H         1 TLF         0.0369
     27 H9        -17.9368   46.1396  -13.2645 H         1 TLF         0.0369
     28 H10       -16.2314   46.4429  -12.7888 H         1 TLF         0.0369
     29 H11       -18.4642   46.8855   -8.4598 H         1 TLF         0.0502
@<TRIPOS>BOND
     1    2    1 ar 
     2    1   18 ar 
     3    3    2 ar 
     4   13    3 1  
     5    3   14 ar 
     6    4    5 ar 
     7    4    9 ar 
     8    4   13 1  
     9    5    6 ar 
    10    6    7 ar 
    11    7    8 ar 
    12    8    9 ar 
    13    9   10 1  
    14   10   11 ar 
    15   10   12 ar 
    16   14   15 1  
    17   14   16 ar 
    18   16   17 1  
    19   16   18 ar 
    20    1   19 1  
    21    2   20 1  
    22    5   21 1  
    23    6   22 1  
    24    7   23 1  
    25    8   24 1  
    26   13   25 1  
    27   15   26 1  
    28   15   27 1  
    29   15   28 1  
    30   18   29 1  
@<TRIPOS>SUBSTRUCTURE
     1 TLF         1

