### 
### Created by X-TOOL on Wed Jan  1 15:39:35 2020
### 

@<TRIPOS>MOLECULE
6ap7_ligand
   31    32     1     0     0
SMALL
GAST_HUCK


@<TRIPOS>ATOM
      1 O1        -12.4230  -45.3360  -31.6550 O.co2     1 BNY        -0.5524
      2 C2        -13.6460  -39.9290  -32.1450 C.ar      1 BNY         0.2553
      3 C4        -15.4610  -41.9640  -33.4620 C.ar      1 BNY         0.0559
      4 C5        -16.0940  -42.9740  -34.1140 C.ar      1 BNY        -0.0001
      5 C6        -15.7270  -44.2850  -33.9790 C.ar      1 BNY        -0.0055
      6 C7        -14.6040  -44.5850  -33.1990 C.ar      1 BNY         0.0117
      7 C11       -14.3070  -37.8430  -33.2100 C.ar      1 BNY         0.0142
      8 C13       -13.5260  -37.8330  -30.9140 C.ar      1 BNY         0.1660
      9 O3        -12.2350  -37.3510  -28.8900 O.2       1 BNY        -0.4911
     10 N1        -13.2390  -37.0260  -29.7810 N.2       1 BNY        -0.2046
     11 O2        -13.9150  -35.8460  -29.5480 O.2       1 BNY        -0.4911
     12 C1        -13.3730  -39.2270  -30.9450 C.ar      1 BNY         0.1398
     13 C         -12.8550  -40.0510  -29.7640 C.3       1 BNY         0.0205
     14 C12       -14.0000  -37.1570  -32.0350 C.ar      1 BNY         0.0341
     15 C10       -14.1360  -39.2250  -33.2440 C.ar      1 BNY         0.0723
     16 N         -13.5670  -41.2900  -32.1030 N.pl3     1 BNY        -0.1426
     17 C3        -14.3070  -42.2440  -32.7020 C.ar      1 BNY         0.2290
     18 C8        -13.8920  -43.5830  -32.5600 C.ar      1 BNY         0.1243
     19 C9        -12.7110  -44.0520  -31.7170 C.2       1 BNY         0.0956
     20 O         -12.0820  -43.1870  -31.1260 O.co2     1 BNY        -0.5524
     21 H1        -15.8404  -40.9505  -33.5257 H         1 BNY         0.1018
     22 H2        -16.9238  -42.7311  -34.7679 H         1 BNY         0.0809
     23 H3        -16.2922  -45.0725  -34.4643 H         1 BNY         0.1079
     24 H4        -14.2869  -45.6162  -33.0935 H         1 BNY         0.0826
     25 H5        -14.6720  -37.3104  -34.0808 H         1 BNY         0.0877
     26 H6        -12.8291  -41.1148  -30.0425 H         1 BNY         0.0610
     27 H7        -13.5226  -39.9142  -28.9006 H         1 BNY         0.0610
     28 H8        -11.8409  -39.7163  -29.5001 H         1 BNY         0.0610
     29 H9        -14.1324  -36.0819  -31.9940 H         1 BNY         0.1231
     30 H10       -14.3904  -39.7667  -34.1478 H         1 BNY         0.1031
     31 H11       -12.8079  -41.6527  -31.5087 H         1 BNY         0.3512
@<TRIPOS>BOND
     1   19    1 ar 
     2    2   12 ar 
     3    2   15 ar 
     4   16    2 1  
     5    3    4 ar 
     6   17    3 ar 
     7    5    4 ar 
     8    6    5 ar 
     9   18    6 ar 
    10    7   14 ar 
    11   15    7 ar 
    12    8   10 1  
    13   12    8 ar 
    14    8   14 ar 
    15   10    9 2  
    16   10   11 2  
    17   12   13 1  
    18   17   16 1  
    19   18   17 ar 
    20   18   19 1  
    21   19   20 ar 
    22    3   21 1  
    23    4   22 1  
    24    5   23 1  
    25    6   24 1  
    26    7   25 1  
    27   13   26 1  
    28   13   27 1  
    29   13   28 1  
    30   14   29 1  
    31   15   30 1  
    32   16   31 1  
@<TRIPOS>SUBSTRUCTURE
     1 BNY         1

