### 
### Created by X-TOOL on Wed Jan  1 15:39:34 2020
### 

@<TRIPOS>MOLECULE
6ap8_ligand
   31    32     1     0     0
SMALL
GAST_HUCK


@<TRIPOS>ATOM
      1 O1        -26.9280   14.9030  -20.8480 O.co2     1 BNY        -0.5524
      2 C2        -30.0640   14.7410  -18.7960 C.ar      1 BNY         0.2553
      3 C4        -28.0430   15.7650  -16.8070 C.ar      1 BNY         0.0559
      4 C5        -27.0140   16.0510  -15.9450 C.ar      1 BNY        -0.0001
      5 C6        -25.7100   16.0570  -16.3960 C.ar      1 BNY        -0.0055
      6 C7        -25.4410   15.8050  -17.7160 C.ar      1 BNY         0.0117
      7 C11       -31.7800   13.7120  -17.4630 C.ar      1 BNY         0.0142
      8 C13       -32.2840   14.7770  -19.6090 C.ar      1 BNY         0.1660
      9 O3        -34.5150   15.5060  -20.3780 O.2       1 BNY        -0.4911
     10 N1        -33.2330   15.1290  -20.6130 N.2       1 BNY        -0.2046
     11 O2        -32.8840   14.8930  -21.9290 O.2       1 BNY        -0.4911
     12 C1        -30.9810   15.1280  -19.7420 C.ar      1 BNY         0.1398
     13 C         -30.4560   15.8800  -20.9480 C.3       1 BNY         0.0205
     14 C12       -32.6680   14.0860  -18.4670 C.ar      1 BNY         0.0341
     15 C10       -30.4490   14.0170  -17.6900 C.ar      1 BNY         0.0723
     16 N         -28.7650   15.0940  -18.9860 N.pl3     1 BNY        -0.1426
     17 C3        -27.7680   15.4330  -18.1230 C.ar      1 BNY         0.2290
     18 C8        -26.4570   15.4680  -18.6020 C.ar      1 BNY         0.1243
     19 C9        -26.0870   15.1080  -19.9820 C.2       1 BNY         0.0956
     20 O         -24.8280   14.9080  -20.2510 O.co2     1 BNY        -0.5524
     21 H1        -29.0689   15.7989  -16.4584 H         1 BNY         0.1018
     22 H2        -27.2266   16.2731  -14.9055 H         1 BNY         0.0809
     23 H3        -24.8987   16.2609  -15.7066 H         1 BNY         0.1079
     24 H4        -24.4200   15.8696  -18.0744 H         1 BNY         0.0826
     25 H5        -32.1101   13.2128  -16.5592 H         1 BNY         0.0877
     26 H6        -29.3756   16.0510  -20.8317 H         1 BNY         0.0610
     27 H7        -30.9734   16.8472  -21.0309 H         1 BNY         0.0610
     28 H8        -30.6377   15.2878  -21.8570 H         1 BNY         0.0610
     29 H9        -33.7137   13.8245  -18.3518 H         1 BNY         0.1231
     30 H10       -29.6973   13.6802  -16.9853 H         1 BNY         0.1031
     31 H11       -28.4794   15.1077  -19.9755 H         1 BNY         0.3512
@<TRIPOS>BOND
     1   19    1 ar 
     2    2   12 ar 
     3    2   15 ar 
     4   16    2 1  
     5    3    4 ar 
     6   17    3 ar 
     7    5    4 ar 
     8    6    5 ar 
     9   18    6 ar 
    10    7   14 ar 
    11   15    7 ar 
    12    8   10 1  
    13   12    8 ar 
    14    8   14 ar 
    15   10    9 2  
    16   10   11 2  
    17   12   13 1  
    18   17   16 1  
    19   18   17 ar 
    20   18   19 1  
    21   19   20 ar 
    22    3   21 1  
    23    4   22 1  
    24    5   23 1  
    25    6   24 1  
    26    7   25 1  
    27   13   26 1  
    28   13   27 1  
    29   13   28 1  
    30   14   29 1  
    31   15   30 1  
    32   16   31 1  
@<TRIPOS>SUBSTRUCTURE
     1 BNY         1

