### 
### Created by X-TOOL on Wed Jan  1 15:39:36 2020
### 

@<TRIPOS>MOLECULE
6apz_ligand
   24    24     1     0     0
SMALL
GAST_HUCK


@<TRIPOS>ATOM
      1 C10        32.9190   78.0070   61.7970 C.ar      1 BQ4        -0.0541
      2 C13        33.5800   75.9660   63.5690 C.ar      1 BQ4         0.0932
      3 C15        34.4230   77.0860   63.4480 C.ar      1 BQ4        -0.0148
      4 C02        37.8630   80.8130   64.4730 C.2       1 BQ4         0.0656
      5 C04        36.6590   80.8410   63.5060 C.3       1 BQ4         0.1221
      6 C06        35.6470   79.9420   63.5540 C.3       1 BQ4         0.0602
      7 C07        35.0220   79.3150   62.4280 C.2       1 BQ4         0.1345
      8 C09        34.0960   78.1280   62.5660 C.ar      1 BQ4         0.0240
      9 C11        32.0690   76.8750   61.9220 C.ar      1 BQ4        -0.0647
     10 C12        32.3920   75.8440   62.8130 C.ar      1 BQ4        -0.0287
     11 O01        38.9690   81.0290   63.9430 O.co2     1 BQ4        -0.5662
     12 O03        37.6190   80.5760   65.6730 O.co2     1 BQ4        -0.5662
     13 O05        36.8170   81.5220   62.3510 O.3       1 BQ4        -0.3754
     14 O08        35.2530   79.6990   61.2670 O.2       1 BQ4        -0.3782
     15 O14        33.9380   74.9590   64.4640 O.3       1 BQ4        -0.3320
     16 H1         32.6582   78.7928   61.0973 H         1 BQ4         0.0578
     17 H2         35.3298   77.1446   64.0390 H         1 BQ4         0.0594
     18 H3         36.1164   81.6324   64.0438 H         1 BQ4         0.0789
     19 H4         34.8324   80.4535   64.0876 H         1 BQ4         0.0529
     20 H5         36.0263   79.1140   64.1708 H         1 BQ4         0.0529
     21 H6         31.1666   76.8093   61.3250 H         1 BQ4         0.0601
     22 H7         31.7495   74.9775   62.9198 H         1 BQ4         0.0580
     23 H8         36.9837   80.9098   61.6440 H         1 BQ4         0.2126
     24 H9         34.0460   74.1414   63.9924 H         1 BQ4         0.2481
@<TRIPOS>BOND
     1    8    1 ar 
     2    1    9 ar 
     3    3    2 ar 
     4    2   10 ar 
     5    2   15 1  
     6    8    3 ar 
     7    5    4 1  
     8    4   11 ar 
     9    4   12 ar 
    10    6    5 1  
    11    5   13 1  
    12    7    6 1  
    13    7    8 1  
    14    7   14 2  
    15    9   10 ar 
    16    1   16 1  
    17    3   17 1  
    18    5   18 1  
    19    6   19 1  
    20    6   20 1  
    21    9   21 1  
    22   10   22 1  
    23   13   23 1  
    24   15   24 1  
@<TRIPOS>SUBSTRUCTURE
     1 BQ4         1

