### 
### Created by X-TOOL on Wed Jan  1 15:39:38 2020
### 

@<TRIPOS>MOLECULE
6aqf_ligand
   41    44     1     0     0
SMALL
GAST_HUCK


@<TRIPOS>ATOM
      1 C1         19.7430  167.9200   15.7390 C.ar      1 ZMA        -0.0687
      2 C2         19.4190  166.5670   15.8640 C.ar      1 ZMA        -0.0398
      3 C3         20.2520  165.5990   15.2830 C.ar      1 ZMA         0.0805
      4 O4         19.9370  164.2760   15.3980 O.3       1 ZMA        -0.3376
      5 C5         21.4100  165.9740   14.5860 C.ar      1 ZMA        -0.0398
      6 C6         21.7330  167.3270   14.4540 C.ar      1 ZMA        -0.0687
      7 C7         20.8990  168.2940   15.0360 C.ar      1 ZMA        -0.0516
      8 C8         21.2570  169.7540   14.9010 C.3       1 ZMA        -0.0023
      9 C9         22.1390  170.1780   16.0700 C.3       1 ZMA         0.0445
     10 N10        22.3360  171.6100   16.0950 N.pl3     1 ZMA        -0.2786
     11 C11        21.5060  172.4380   16.7740 C.ar      1 ZMA         0.1927
     12 N12        21.8820  173.7360   16.9500 N.ar      1 ZMA        -0.2077
     13 N13        20.3160  171.9920   17.2780 N.ar      1 ZMA        -0.2135
     14 C14        19.4870  172.8220   17.9570 C.ar      1 ZMA         0.2184
     15 N15        18.3160  172.3430   18.4400 N.pl3     1 ZMA        -0.2874
     16 N16        19.8640  174.1050   18.1270 N.ar      1 ZMA        -0.1571
     17 N17        19.1450  175.0960   18.7950 N.2       1 ZMA        -0.1422
     18 C18        21.0300  174.5370   17.6330 C.ar      1 ZMA         0.2435
     19 N19        21.1640  175.8490   17.9410 N.pl3     1 ZMA        -0.1921
     20 C20        20.0200  176.1150   18.6240 C.2       1 ZMA         0.2664
     21 C21        19.7310  177.4590   19.1660 C.2       1 ZMA         0.2490
     22 C22        20.6850  178.4360   19.3120 C.2       1 ZMA         0.0235
     23 C23        19.9490  179.5090   19.7880 C.2       1 ZMA         0.0130
     24 C24        18.6050  179.1540   19.8720 C.2       1 ZMA         0.1505
     25 O25        18.4600  177.8430   19.4530 O.3       1 ZMA        -0.1861
     26 H1         19.1056  168.6766   16.1822 H         1 ZMA         0.0530
     27 H2         18.5297  166.2669   16.4064 H         1 ZMA         0.0525
     28 H3         20.5956  163.7550   14.9538 H         1 ZMA         0.2458
     29 H4         22.0522  165.2167   14.1512 H         1 ZMA         0.0525
     30 H5         22.6196  167.6269   13.9071 H         1 ZMA         0.0530
     31 H6         20.3372  170.3573   14.8996 H         1 ZMA         0.0426
     32 H7         21.8002  169.9114   13.9575 H         1 ZMA         0.0426
     33 H8         23.1176  169.6845   15.9764 H         1 ZMA         0.0561
     34 H9         21.6599  169.8670   17.0101 H         1 ZMA         0.0561
     35 H10        23.1321  172.0133   15.5806 H         1 ZMA         0.1971
     36 H11        18.0622  171.3561   18.2900 H         1 ZMA         0.1966
     37 H12        17.6791  172.9656   18.9574 H         1 ZMA         0.1966
     38 H13        21.9403  176.4867   17.7139 H         1 ZMA         0.2437
     39 H14        21.7528  178.3811   19.1053 H         1 ZMA         0.0819
     40 H15        20.3590  180.4817   20.0557 H         1 ZMA         0.0636
     41 H16        17.7991  179.8026   20.2121 H         1 ZMA         0.1574
@<TRIPOS>BOND
     1    1    2 ar 
     2    1    7 ar 
     3    2    3 ar 
     4    3    4 1  
     5    3    5 ar 
     6    5    6 ar 
     7    6    7 ar 
     8    7    8 1  
     9    8    9 1  
    10    9   10 1  
    11   10   11 1  
    12   11   12 ar 
    13   11   13 ar 
    14   12   18 ar 
    15   13   14 ar 
    16   14   15 1  
    17   14   16 ar 
    18   16   17 1  
    19   16   18 ar 
    20   17   20 2  
    21   18   19 1  
    22   19   20 1  
    23   20   21 1  
    24   21   22 2  
    25   21   25 1  
    26   22   23 1  
    27   23   24 2  
    28   24   25 1  
    29    1   26 1  
    30    2   27 1  
    31    4   28 1  
    32    5   29 1  
    33    6   30 1  
    34    8   31 1  
    35    8   32 1  
    36    9   33 1  
    37    9   34 1  
    38   10   35 1  
    39   15   36 1  
    40   15   37 1  
    41   19   38 1  
    42   22   39 1  
    43   23   40 1  
    44   24   41 1  
@<TRIPOS>SUBSTRUCTURE
     1 ZMA         1

