### 
### Created by X-TOOL on Wed Jan  1 15:39:38 2020
### 

@<TRIPOS>MOLECULE
6aqq_ligand
   51    54     1     0     0
SMALL
GAST_HUCK


@<TRIPOS>ATOM
      1 C02        13.9190  -49.3250   25.5470 C.2       1 BVY         0.2580
      2 C04        14.4280  -47.0910   24.8540 C.3       1 BVY         0.0750
      3 C05        15.7260  -46.3100   25.1810 C.3       1 BVY         0.0190
      4 C07        15.8610  -47.6280   23.1330 C.3       1 BVY         0.0302
      5 C08        16.3330  -48.8020   22.2870 C.3       1 BVY        -0.0390
      6 C09        17.8240  -48.6810   21.8520 C.3       1 BVY        -0.0519
      7 C10        18.1660  -49.8670   20.9230 C.3       1 BVY        -0.0517
      8 C11        19.6480  -49.7530   20.4870 C.3       1 BVY        -0.0462
      9 C12        20.4960  -50.8210   21.2210 C.3       1 BVY        -0.0185
     10 C13        20.3070  -52.1630   20.5390 C.2       1 BVY         0.0372
     11 C14        21.0980  -52.6880   19.5310 C.2       1 BVY         0.0717
     12 C16        21.1680  -54.7460   18.1880 C.3       1 BVY         0.1080
     13 C17        20.8180  -56.2550   18.2940 C.ar      1 BVY        -0.0120
     14 C18        20.6970  -56.9080   19.5260 C.ar      1 BVY        -0.0615
     15 C19        20.3890  -58.2720   19.5700 C.ar      1 BVY        -0.0703
     16 C20        20.2140  -58.9930   18.3790 C.ar      1 BVY        -0.0352
     17 C21        20.3450  -58.3490   17.1560 C.ar      1 BVY         0.1259
     18 C23        20.6510  -56.9810   17.1160 C.ar      1 BVY        -0.0242
     19 C26        14.6040  -48.0280   23.8580 C.3       1 BVY         0.0775
     20 F22        20.1770  -59.0390   16.0000 F         1 BVY        -0.1853
     21 N03        13.9880  -47.8410   26.0390 N.am      1 BVY        -0.2671
     22 N15        20.6110  -53.9020   19.1960 N.pl3     1 BVY        -0.1700
     23 N24        19.5130  -54.1360   19.9740 N.2       1 BVY        -0.0999
     24 N25        19.3350  -53.0540   20.8050 N.2       1 BVY        -0.2263
     25 N27        14.3280  -49.2850   24.1050 N.am      1 BVY        -0.2668
     26 O01        13.5940  -50.3070   26.1920 O.2       1 BVY        -0.4008
     27 S06        17.0540  -47.2660   24.3850 S.3       1 BVY        -0.1527
     28 H1         13.6512  -46.3739   24.5501 H         1 BVY         0.0584
     29 H2         15.8839  -46.2580   26.2684 H         1 BVY         0.0399
     30 H3         15.6803  -45.2915   24.7680 H         1 BVY         0.0399
     31 H4         15.6855  -46.7480   22.4967 H         1 BVY         0.0435
     32 H5         15.7080  -48.8562   21.3834 H         1 BVY         0.0277
     33 H6         16.2128  -49.7258   22.8719 H         1 BVY         0.0277
     34 H7         18.4722  -48.7076   22.7403 H         1 BVY         0.0266
     35 H8         17.9772  -47.7336   21.3145 H         1 BVY         0.0266
     36 H9         17.5170  -49.8396   20.0353 H         1 BVY         0.0266
     37 H10        18.0114  -50.8138   21.4611 H         1 BVY         0.0266
     38 H11        20.0262  -48.7511   20.7381 H         1 BVY         0.0281
     39 H12        19.7221  -49.9114   19.4010 H         1 BVY         0.0281
     40 H13        20.1709  -50.8921   22.2694 H         1 BVY         0.0380
     41 H14        21.5579  -50.5363   21.1848 H         1 BVY         0.0380
     42 H15        21.9653  -52.2041   19.0844 H         1 BVY         0.0900
     43 H16        20.8109  -54.3854   17.2121 H         1 BVY         0.0812
     44 H17        22.2628  -54.6502   18.2361 H         1 BVY         0.0812
     45 H18        20.8422  -56.3560   20.4476 H         1 BVY         0.0523
     46 H19        20.2854  -58.7727   20.5258 H         1 BVY         0.0589
     47 H20        19.9771  -60.0502   18.4137 H         1 BVY         0.0546
     48 H21        20.7587  -56.4831   16.1591 H         1 BVY         0.0543
     49 H22        13.8117  -47.7858   23.1344 H         1 BVY         0.0587
     50 H23        13.7805  -47.4849   26.9501 H         1 BVY         0.1849
     51 H24        14.3792  -50.0538   23.4676 H         1 BVY         0.1849
@<TRIPOS>BOND
     1   21    1 am 
     2    1   25 am 
     3    1   26 2  
     4    3    2 1  
     5   19    2 1  
     6    2   21 1  
     7   27    3 1  
     8    5    4 1  
     9    4   19 1  
    10    4   27 1  
    11    6    5 1  
    12    7    6 1  
    13    8    7 1  
    14    9    8 1  
    15   10    9 1  
    16   11   10 2  
    17   10   24 1  
    18   22   11 1  
    19   12   13 1  
    20   12   22 1  
    21   13   14 ar 
    22   13   18 ar 
    23   14   15 ar 
    24   15   16 ar 
    25   16   17 ar 
    26   17   18 ar 
    27   17   20 1  
    28   19   25 1  
    29   22   23 1  
    30   23   24 2  
    31    2   28 1  
    32    3   29 1  
    33    3   30 1  
    34    4   31 1  
    35    5   32 1  
    36    5   33 1  
    37    6   34 1  
    38    6   35 1  
    39    7   36 1  
    40    7   37 1  
    41    8   38 1  
    42    8   39 1  
    43    9   40 1  
    44    9   41 1  
    45   11   42 1  
    46   12   43 1  
    47   12   44 1  
    48   14   45 1  
    49   15   46 1  
    50   16   47 1  
    51   18   48 1  
    52   19   49 1  
    53   21   50 1  
    54   25   51 1  
@<TRIPOS>SUBSTRUCTURE
     1 BVY         1

