### 
### Created by X-TOOL on Wed Jan  1 15:39:36 2020
### 

@<TRIPOS>MOLECULE
6aqs_ligand
   39    41     1     0     0
SMALL
GAST_HUCK


@<TRIPOS>ATOM
      1 N1         -5.5450   33.6540   10.6530 N.am      1 IM5        -0.2471
      2 C2         -5.3220   33.5130   11.9900 C.cat     1 IM5         0.1780
      3 N2         -5.1340   34.6430   12.7380 N.pl3     1 IM5        -0.3388
      4 N3         -5.2910   32.2880   12.5990 N.pl3     1 IM5        -0.2603
      5 C4         -5.4650   31.1720   11.8380 C.2       1 IM5         0.1889
      6 C5         -5.7100   31.2410   10.3910 C.2       1 IM5         0.2677
      7 C6         -5.7380   32.6080    9.8240 C.2       1 IM5         0.2962
      8 O6         -5.9390   32.7850    8.6100 O.2       1 IM5        -0.3417
      9 N7         -5.8520   29.9820    9.9290 N.pl3     1 IM5        -0.1827
     10 C8         -5.7300   29.0820   10.9440 C.2       1 IM5         0.1195
     11 C9         -5.5070   29.7280   12.1670 C.2       1 IM5         0.1187
     12 N1'        -6.3570   28.8340   14.4680 N.4       1 IM5         0.2484
     13 C10        -5.2850   29.0190   13.4740 C.3       1 IM5         0.0121
     14 C2'        -6.5490   30.0230   15.3230 C.3       1 IM5        -0.0035
     15 C3'        -7.9890   29.9020   15.8240 C.3       1 IM5         0.1046
     16 O3'        -8.0530   29.2220   17.0850 O.3       1 IM5        -0.3860
     17 C4'        -8.7260   29.1390   14.7330 C.3       1 IM5         0.0531
     18 C5'        -9.5430   30.0540   13.8320 C.3       1 IM5         0.0544
     19 O5'       -10.0670   29.2970   12.7270 O.3       1 IM5        -0.3944
     20 C6'        -7.6610   28.4040   13.9150 C.3       1 IM5        -0.0230
     21 H1         -5.5665   34.5768   10.2684 H         1 IM5         0.1817
     22 H2         -4.9634   34.5676   13.7510 H         1 IM5         0.1747
     23 H3         -5.1631   35.5691   12.2882 H         1 IM5         0.1747
     24 H4         -5.1388   32.2113   13.6148 H         1 IM5         0.2181
     25 H5         -6.0283   29.7352    8.9447 H         1 IM5         0.2608
     26 H6         -5.7970   28.0020   10.8210 H         1 IM5         0.1599
     27 H7         -6.0454   28.0885   15.0706 H         1 IM5         0.2047
     28 H8         -4.4840   29.5704   13.9881 H         1 IM5         0.0960
     29 H9         -4.9294   28.0102   13.2174 H         1 IM5         0.0960
     30 H10        -6.4157   30.9468   14.7409 H         1 IM5         0.0840
     31 H11        -5.8418   30.0151   16.1654 H         1 IM5         0.0840
     32 H12        -8.4295   30.9029   15.9426 H         1 IM5         0.0652
     33 H13        -7.5499   29.7051   17.7299 H         1 IM5         0.2100
     34 H14        -9.4052   28.4090   15.1976 H         1 IM5         0.0402
     35 H15        -8.9009   30.8619   13.4511 H         1 IM5         0.0562
     36 H16       -10.3749   30.4869   14.4069 H         1 IM5         0.0562
     37 H17       -10.5766   29.8695   12.1657 H         1 IM5         0.2094
     38 H18        -7.7812   27.3157   14.0203 H         1 IM5         0.0819
     39 H19        -7.7361   28.6802   12.8529 H         1 IM5         0.0819
@<TRIPOS>BOND
     1    1    2 ar 
     2    1    7 am 
     3    2    3 ar 
     4    2    4 ar 
     5    4    5 1  
     6    5    6 2  
     7    5   11 1  
     8    6    7 1  
     9    6    9 1  
    10    7    8 2  
    11    9   10 1  
    12   10   11 2  
    13   11   13 1  
    14   13   12 1  
    15   12   14 1  
    16   12   20 1  
    17   14   15 1  
    18   15   16 1  
    19   15   17 1  
    20   17   18 1  
    21   17   20 1  
    22   18   19 1  
    23    1   21 1  
    24    3   22 1  
    25    3   23 1  
    26    4   24 1  
    27    9   25 1  
    28   10   26 1  
    29   12   27 1  
    30   13   28 1  
    31   13   29 1  
    32   14   30 1  
    33   14   31 1  
    34   15   32 1  
    35   16   33 1  
    36   17   34 1  
    37   18   35 1  
    38   18   36 1  
    39   19   37 1  
    40   20   38 1  
    41   20   39 1  
@<TRIPOS>SUBSTRUCTURE
     1 IM5         1

