### 
### Created by X-TOOL on Wed Jan  1 15:39:35 2020
### 

@<TRIPOS>MOLECULE
6ar4_ligand
   63    66     1     0     0
SMALL
GAST_HUCK


@<TRIPOS>ATOM
      1 N1        -13.9910    5.6500    6.9410 N.4       1 BQA         0.2514
      2 C2        -16.7930    9.6700    2.2680 C.3       1 BQA        -0.0150
      3 C4        -17.6440    8.4980    0.2170 C.3       1 BQA        -0.0498
      4 C7        -14.4900    6.0210    4.0440 C.3       1 BQA         0.0543
      5 C6        -16.3810   10.4300    4.4300 C.2       1 BQA         0.0602
      6 C9        -15.7940    4.3970    2.3920 C.ar      1 BQA        -0.0374
      7 C10       -15.9680    3.8190    1.1430 C.ar      1 BQA        -0.0234
      8 C11       -14.9920    4.1360    0.2330 C.ar      1 BQA         0.0420
      9 F2        -16.8560    7.4550   11.1100 F         1 BQA        -0.2263
     10 C23       -15.8910    7.1550   10.2290 C.3       1 BQA         0.3707
     11 F         -16.1760    7.5800    8.9930 F         1 BQA        -0.2263
     12 F1        -14.7720    7.7440   10.6870 F         1 BQA        -0.2263
     13 C22       -15.6340    5.6630   10.2540 C.ar      1 BQA         0.0541
     14 C21       -16.3980    4.9160   11.1460 C.ar      1 BQA        -0.0378
     15 C20       -16.2140    3.5520   11.2470 C.ar      1 BQA        -0.0392
     16 C19       -15.2430    2.9000   10.5140 C.ar      1 BQA        -0.0404
     17 C18       -14.4350    3.5930    9.6230 C.ar      1 BQA        -0.0241
     18 C17       -14.7300    4.9140    9.2790 C.ar      1 BQA         0.0356
     19 C16       -13.6800    5.5740    8.3850 C.3       1 BQA         0.0169
     20 C15       -15.3690    5.9630    6.4900 C.3       1 BQA        -0.0370
     21 C14       -15.5220    5.4710    5.0620 C.3       1 BQA        -0.0211
     22 C24       -12.8730    5.9970    6.0490 C.3       1 BQA        -0.0370
     23 C25       -13.1310    5.5490    4.6150 C.3       1 BQA        -0.0211
     24 C8        -14.7120    5.3120    2.7360 C.ar      1 BQA        -0.0357
     25 C13       -13.8300    5.5870    1.6880 C.ar      1 BQA        -0.0374
     26 C12       -13.9700    4.9890    0.5350 C.ar      1 BQA        -0.0234
     27 BR        -14.8570    3.5200   -1.5140 Br        1 BQA        -0.0232
     28 C         -14.5220    7.5160    3.8270 C.2       1 BQA         0.1696
     29 O         -13.4690    8.1310    3.5470 O.2       1 BQA        -0.3650
     30 N         -15.7030    8.1850    3.8700 N.am      1 BQA        -0.2778
     31 C1        -15.8320    9.5320    3.4100 C.3       1 BQA         0.0939
     32 O2        -16.2530   11.6810    4.2740 O.co2     1 BQA        -0.5666
     33 O1        -16.9730    9.8150    5.4860 O.co2     1 BQA        -0.5666
     34 C3        -16.4330    8.8260    1.0230 C.3       1 BQA        -0.0374
     35 C5        -16.9570    7.4250    1.0190 C.3       1 BQA        -0.0498
     36 H1        -14.0171    4.6594    6.7565 H         1 BQA         0.2055
     37 H2        -16.8223   10.7282    1.9692 H         1 BQA         0.0308
     38 H3        -17.7889    9.3599    2.6173 H         1 BQA         0.0308
     39 H4        -17.5872    8.4854   -0.8814 H         1 BQA         0.0268
     40 H5        -18.6305    8.8716    0.5289 H         1 BQA         0.0268
     41 H6        -16.5122    4.1514    3.1659 H         1 BQA         0.0852
     42 H7        -16.8046    3.1716    0.9062 H         1 BQA         0.0720
     43 H8        -17.1406    5.4077   11.7639 H         1 BQA         0.0820
     44 H9        -16.8460    2.9800   11.9167 H         1 BQA         0.0648
     45 H10       -15.1094    1.8312   10.6359 H         1 BQA         0.0834
     46 H11       -13.5687    3.1052    9.1910 H         1 BQA         0.0638
     47 H12       -13.5309    6.6014    8.7485 H         1 BQA         0.1062
     48 H13       -12.7441    5.0066    8.4951 H         1 BQA         0.1062
     49 H14       -15.5364    7.0494    6.5298 H         1 BQA         0.0806
     50 H15       -16.0979    5.4556    7.1391 H         1 BQA         0.0806
     51 H16       -15.4348    4.3745    5.0718 H         1 BQA         0.0222
     52 H17       -16.5254    5.7560    4.7127 H         1 BQA         0.0222
     53 H18       -11.9595    5.5064    6.4161 H         1 BQA         0.0806
     54 H19       -12.7335    7.0880    6.0612 H         1 BQA         0.0806
     55 H20       -12.3295    5.9505    3.9775 H         1 BQA         0.0222
     56 H21       -13.1065    4.4497    4.5862 H         1 BQA         0.0222
     57 H22       -13.0260    6.2997    1.8322 H         1 BQA         0.0852
     58 H23       -13.2274    5.1825   -0.2306 H         1 BQA         0.0720
     59 H24       -16.5091    7.7197    4.2356 H         1 BQA         0.1872
     60 H25       -14.8357    9.8822    3.1023 H         1 BQA         0.0727
     61 H26       -15.4606    9.0921    0.5829 H         1 BQA         0.0303
     62 H27       -16.3965    6.6284    0.5078 H         1 BQA         0.0268
     63 H28       -17.4398    7.0146    1.9181 H         1 BQA         0.0268
@<TRIPOS>BOND
     1    1   19 1  
     2   20    1 1  
     3   22    1 1  
     4   31    2 1  
     5    2   34 1  
     6   34    3 1  
     7    3   35 1  
     8    4   21 1  
     9    4   23 1  
    10    4   24 1  
    11   28    4 1  
    12   31    5 1  
    13    5   32 ar 
    14    5   33 ar 
    15    6    7 ar 
    16   24    6 ar 
    17    7    8 ar 
    18   26    8 ar 
    19    8   27 1  
    20   10    9 1  
    21   10   11 1  
    22   10   12 1  
    23   13   10 1  
    24   13   14 ar 
    25   18   13 ar 
    26   14   15 ar 
    27   16   15 ar 
    28   17   16 ar 
    29   18   17 ar 
    30   19   18 1  
    31   21   20 1  
    32   23   22 1  
    33   24   25 ar 
    34   25   26 ar 
    35   28   29 2  
    36   30   28 am 
    37   30   31 1  
    38   34   35 1  
    39    1   36 1  
    40    2   37 1  
    41    2   38 1  
    42    3   39 1  
    43    3   40 1  
    44    6   41 1  
    45    7   42 1  
    46   14   43 1  
    47   15   44 1  
    48   16   45 1  
    49   17   46 1  
    50   19   47 1  
    51   19   48 1  
    52   20   49 1  
    53   20   50 1  
    54   21   51 1  
    55   21   52 1  
    56   22   53 1  
    57   22   54 1  
    58   23   55 1  
    59   23   56 1  
    60   25   57 1  
    61   26   58 1  
    62   30   59 1  
    63   31   60 1  
    64   34   61 1  
    65   35   62 1  
    66   35   63 1  
@<TRIPOS>SUBSTRUCTURE
     1 BQA         1

