### 
### Created by X-TOOL on Wed Jan  1 15:39:35 2020
### 

@<TRIPOS>MOLECULE
6arj_ligand
   79    83     1     0     0
SMALL
GAST_HUCK


@<TRIPOS>ATOM
      1 C2         -7.7590   20.9190   24.4420 C.ar      1 BW4         0.0879
      2 C4         -7.0260   23.0720   23.7350 C.ar      1 BW4         0.0322
      3 C5         -5.6920   22.6580   23.8690 C.ar      1 BW4         0.0172
      4 C6         -5.4480   21.3330   24.2840 C.ar      1 BW4         0.1214
      5 CBD         0.7140   16.7630   23.6410 C.3       1 BW4         0.0663
      6 OBC         0.8270   16.0650   24.8980 O.3       1 BW4        -0.2671
      7 CBA         0.2140   16.7240   25.9230 C.2       1 BW4         0.3218
      8 OBB         0.6060   16.5410   27.0760 O.2       1 BW4        -0.3774
      9 NAX        -0.8040   17.5680   25.6710 N.am      1 BW4        -0.2489
     10 CAY        -1.4810   18.2970   26.7750 C.3       1 BW4         0.0364
     11 CAZ        -1.7510   19.7500   26.4100 C.3       1 BW4        -0.0231
     12 CAW        -1.2480   17.7580   24.2640 C.3       1 BW4         0.0364
     13 CAV        -1.5270   19.2280   23.9280 C.3       1 BW4        -0.0231
     14 CAT        -2.3820   19.8520   25.0160 C.3       1 BW4         0.0148
     15 CAU        -2.8170   21.2730   24.6640 C.3       1 BW4         0.0379
     16 CAS        -3.8260   19.4210   24.9420 C.3       1 BW4         0.0379
     17 NAR        -4.2280   20.7910   24.4940 N.pl3     1 BW4        -0.2916
     18 N1         -6.4880   20.5190   24.5550 N.ar      1 BW4        -0.2681
     19 CBF        -4.6130   23.5240   23.5790 C.3       1 BW4        -0.0274
     20 CBI        -7.3940   24.3220   23.3510 C.2       1 BW4         0.0387
     21 CBJ        -7.1400   25.4840   23.9890 C.2       1 BW4         0.1530
     22 CBK        -6.3430   25.6970   25.2810 C.3       1 BW4         0.0158
     23 OBL        -7.6940   26.5150   23.3170 O.3       1 BW4        -0.1694
     24 NBM        -8.3450   25.9150   22.1580 N.2       1 BW4        -0.1648
     25 CBN        -8.1250   24.6030   22.2640 C.2       1 BW4         0.0272
     26 CBO        -8.6360   23.5960   21.2470 C.3       1 BW4        -0.0262
     27 N3         -8.0150   22.1820   24.0240 N.ar      1 BW4        -0.2980
     28 CAM        -8.7810   19.9820   24.7200 C.ar      1 BW4         0.0154
     29 CAN        -9.7480   19.7290   23.7480 C.ar      1 BW4        -0.0196
     30 CAK        -8.8430   19.2610   25.9200 C.ar      1 BW4         0.0424
     31 CLAL       -7.7240   19.4660   27.1900 Cl        1 BW4        -0.0766
     32 CAJ        -9.8530   18.3290   26.1540 C.ar      1 BW4        -0.0527
     33 CAI       -10.8190   18.0920   25.1940 C.ar      1 BW4        -0.0296
     34 CAH       -10.7570   18.7890   23.9990 C.ar      1 BW4         0.0948
     35 OAG       -11.7290   18.5190   23.1220 O.3       1 BW4        -0.3145
     36 CAF       -11.7320   19.2000   21.8520 C.3       1 BW4         0.1014
     37 CAD       -12.9820   18.7300   21.0930 C.3       1 BW4         0.1222
     38 OAE       -12.8040   17.3630   20.7250 O.3       1 BW4        -0.3838
     39 CAC       -13.2190   19.5900   19.8300 C.3       1 BW4        -0.0047
     40 NAB       -13.8060   20.8960   20.2230 N.4       1 BW4         0.2267
     41 CAA       -14.1900   21.6450   19.0290 C.3       1 BW4        -0.0448
     42 H1          1.2245   16.1874   22.8548 H         1 BW4         0.0575
     43 H2          1.1797   17.7556   23.7296 H         1 BW4         0.0575
     44 H3         -0.3483   16.8783   23.3798 H         1 BW4         0.0575
     45 H4         -0.8390   18.2674   27.6677 H         1 BW4         0.0522
     46 H5         -2.4380   17.8013   26.9950 H         1 BW4         0.0522
     47 H6         -0.8021   20.3064   26.4181 H         1 BW4         0.0291
     48 H7         -2.4382   20.1862   27.1499 H         1 BW4         0.0291
     49 H8         -2.1694   17.1789   24.1039 H         1 BW4         0.0522
     50 H9         -0.4600   17.3864   23.5925 H         1 BW4         0.0522
     51 H10        -2.0584   19.2882   22.9668 H         1 BW4         0.0291
     52 H11        -0.5743   19.7729   23.8551 H         1 BW4         0.0291
     53 H12        -2.3623   21.6680   23.7436 H         1 BW4         0.0527
     54 H13        -2.6846   21.9994   25.4794 H         1 BW4         0.0527
     55 H14        -4.2539   19.1244   25.9109 H         1 BW4         0.0527
     56 H15        -4.0196   18.6333   24.1990 H         1 BW4         0.0527
     57 H16        -5.0030   24.5064   23.2745 H         1 BW4         0.0378
     58 H17        -4.0112   23.0992   22.7621 H         1 BW4         0.0378
     59 H18        -3.9852   23.6404   24.4747 H         1 BW4         0.0378
     60 H19        -6.3262   26.7686   25.5290 H         1 BW4         0.0480
     61 H20        -5.3132   25.3371   25.1401 H         1 BW4         0.0480
     62 H21        -6.8178   25.1384   26.1010 H         1 BW4         0.0480
     63 H22        -9.2054   24.1207   20.4657 H         1 BW4         0.0382
     64 H23        -9.2887   22.8668   21.7491 H         1 BW4         0.0382
     65 H24        -7.7838   23.0717   20.7900 H         1 BW4         0.0382
     66 H25        -9.7196   20.2572   22.8018 H         1 BW4         0.0571
     67 H26        -9.8810   17.7878   27.0928 H         1 BW4         0.0604
     68 H27       -11.6107   17.3736   25.3734 H         1 BW4         0.0567
     69 H28       -10.8261   18.9430   21.2835 H         1 BW4         0.0642
     70 H29       -11.7713   20.2883   22.0070 H         1 BW4         0.0642
     71 H30       -13.8581   18.8182   21.7523 H         1 BW4         0.0674
     72 H31       -13.5717   17.0604   20.2542 H         1 BW4         0.2101
     73 H32       -13.9106   19.0658   19.1540 H         1 BW4         0.0840
     74 H33       -12.2611   19.7584   19.3161 H         1 BW4         0.0840
     75 H34       -13.1255   21.4251   20.7455 H         1 BW4         0.2012
     76 H35       -14.6206   20.7382   20.7954 H         1 BW4         0.2012
     77 H36       -14.6240   22.6111   19.3261 H         1 BW4         0.0777
     78 H37       -14.9333   21.0692   18.4582 H         1 BW4         0.0777
     79 H38       -13.3018   21.8188   18.4037 H         1 BW4         0.0777
@<TRIPOS>BOND
     1   18    1 ar 
     2    1   27 ar 
     3    1   28 1  
     4    3    2 ar 
     5    2   20 1  
     6    2   27 ar 
     7    4    3 ar 
     8    3   19 1  
     9   17    4 1  
    10    4   18 ar 
    11    6    5 1  
    12    7    6 1  
    13    7    8 2  
    14    9    7 am 
    15   10    9 1  
    16   12    9 1  
    17   11   10 1  
    18   14   11 1  
    19   13   12 1  
    20   14   13 1  
    21   15   14 1  
    22   14   16 1  
    23   15   17 1  
    24   16   17 1  
    25   20   21 2  
    26   20   25 1  
    27   21   22 1  
    28   21   23 1  
    29   23   24 1  
    30   24   25 2  
    31   25   26 1  
    32   28   29 ar 
    33   28   30 ar 
    34   29   34 ar 
    35   30   31 1  
    36   30   32 ar 
    37   32   33 ar 
    38   33   34 ar 
    39   34   35 1  
    40   35   36 1  
    41   36   37 1  
    42   37   38 1  
    43   37   39 1  
    44   39   40 1  
    45   40   41 1  
    46    5   42 1  
    47    5   43 1  
    48    5   44 1  
    49   10   45 1  
    50   10   46 1  
    51   11   47 1  
    52   11   48 1  
    53   12   49 1  
    54   12   50 1  
    55   13   51 1  
    56   13   52 1  
    57   15   53 1  
    58   15   54 1  
    59   16   55 1  
    60   16   56 1  
    61   19   57 1  
    62   19   58 1  
    63   19   59 1  
    64   22   60 1  
    65   22   61 1  
    66   22   62 1  
    67   26   63 1  
    68   26   64 1  
    69   26   65 1  
    70   29   66 1  
    71   32   67 1  
    72   33   68 1  
    73   36   69 1  
    74   36   70 1  
    75   37   71 1  
    76   38   72 1  
    77   39   73 1  
    78   39   74 1  
    79   40   75 1  
    80   40   76 1  
    81   41   77 1  
    82   41   78 1  
    83   41   79 1  
@<TRIPOS>SUBSTRUCTURE
     1 BW4         1

