### 
### Created by X-TOOL on Mon Aug  2 16:12:38 2021
### 

@<TRIPOS>MOLECULE
6arm_ligand
   36    37     1     0     0
SMALL
GAST_HUCK


@<TRIPOS>ATOM
      1 C1         72.4960   73.8790  242.0360 C.3       1 MOL         0.2116
      2 C2         72.2260   72.4170  241.7490 C.3       1 MOL         0.1389
      3 O2         73.1630   71.6120  242.4300 O.3       1 MOL        -0.3837
      4 C3         72.3100   72.1320  240.2700 C.3       1 MOL         0.1145
      5 O3         71.9370   70.7780  240.0390 O.3       1 MOL        -0.3864
      6 C4         71.4040   73.0910  239.5400 C.3       1 MOL         0.1119
      7 O4         70.0660   72.8490  239.9310 O.3       1 MOL        -0.3865
      8 C5         71.7930   74.5110  239.8940 C.3       1 MOL         0.1134
      9 C6         70.9520   75.5170  239.1140 C.3       1 MOL         0.0730
     10 O6         69.7020   75.7440  239.7250 O.3       1 MOL        -0.3924
     11 O5         71.6260   74.6960  241.2760 O.3       1 MOL        -0.3366
     12 O1'        72.2630   74.0110  243.4160 O.3       1 MOL        -0.2767
     13 C1'        72.5570   75.2510  244.0090 C.ar      1 MOL         0.1398
     14 C2'        71.8770   75.6530  245.1600 C.ar      1 MOL         0.2281
     15 C3'        72.1880   76.8760  245.7350 C.ar      1 MOL        -0.0269
     16 C4'        73.1640   77.6840  245.1830 C.ar      1 MOL        -0.0645
     17 C5'        73.8400   77.2830  244.0470 C.ar      1 MOL        -0.0650
     18 C6'        73.5410   76.0640  243.4670 C.ar      1 MOL        -0.0237
     19 N1'        70.8550   74.8660  245.7650 N.2       1 MOL         0.3090
     20 O2'        70.5230   75.0780  246.9240 O.2       1 MOL         0.1723
     21 O3'        70.2690   73.9850  245.1480 O.2       1 MOL         0.1723
     22 H1         73.5380   74.1372  241.7962 H         1 MOL         0.0997
     23 H2         71.2143   72.1687  242.1023 H         1 MOL         0.0676
     24 H3         73.0915   71.7665  243.3646 H         1 MOL         0.2101
     25 H4         73.3434   72.2821  239.9243 H         1 MOL         0.0648
     26 H5         71.9875   70.5910  239.1089 H         1 MOL         0.2100
     27 H6         71.5036   72.9420  238.4547 H         1 MOL         0.0647
     28 H7         69.4900   73.4506  239.4741 H         1 MOL         0.2100
     29 H8         72.8515   74.6653  239.6375 H         1 MOL         0.0647
     30 H9         70.7859   75.1295  238.0980 H         1 MOL         0.0584
     31 H10        71.4986   76.4699  239.0582 H         1 MOL         0.0584
     32 H11        69.2206   74.9264  239.7720 H         1 MOL         0.2095
     33 H12        71.6612   77.2010  246.6249 H         1 MOL         0.0663
     34 H13        73.4001   78.6365  245.6435 H         1 MOL         0.0540
     35 H14        74.6011   77.9209  243.6124 H         1 MOL         0.0633
     36 H15        74.0792   75.7418  242.5829 H         1 MOL         0.0558
@<TRIPOS>BOND
     1    1    2 1  
     2    1   11 1  
     3    1   12 1  
     4    2    3 1  
     5    2    4 1  
     6    4    5 1  
     7    4    6 1  
     8    6    7 1  
     9    6    8 1  
    10    8    9 1  
    11    8   11 1  
    12    9   10 1  
    13   12   13 1  
    14   13   14 ar 
    15   13   18 ar 
    16   14   15 ar 
    17   14   19 1  
    18   15   16 ar 
    19   16   17 ar 
    20   17   18 ar 
    21   19   20 2  
    22   19   21 2  
    23    1   22 1  
    24    2   23 1  
    25    3   24 1  
    26    4   25 1  
    27    5   26 1  
    28    6   27 1  
    29    7   28 1  
    30    8   29 1  
    31    9   30 1  
    32    9   31 1  
    33   10   32 1  
    34   15   33 1  
    35   16   34 1  
    36   17   35 1  
    37   18   36 1  
@<TRIPOS>SUBSTRUCTURE
     1 MOL         1

