### 
### Created by X-TOOL on Mon Aug  2 16:12:38 2021
### 

@<TRIPOS>MOLECULE
6arn_ligand
   38    39     1     0     0
SMALL
GAST_HUCK


@<TRIPOS>ATOM
      1 C10        -1.2220  247.5530    1.5980 C.ar      1 BQY        -0.0819
      2 C15         4.3810  244.6430    2.9860 C.3       1 BQY         0.1381
      3 C17         4.7250  243.1810    2.9800 C.3       1 BQY         0.1144
      4 O01         1.2540  242.6110    5.6920 O.3       1 BQY        -0.3924
      5 C02         1.3500  241.9940    4.4540 C.3       1 BQY         0.0730
      6 C03         2.3690  242.7470    3.5600 C.3       1 BQY         0.1133
      7 O04         2.1230  244.0980    3.6310 O.3       1 BQY        -0.3371
      8 C05         2.8940  244.8160    2.7090 C.3       1 BQY         0.2073
      9 O06         2.6040  246.2050    2.8500 O.3       1 BQY        -0.2892
     10 C07         1.2850  246.6130    2.3950 C.ar      1 BQY         0.1231
     11 C08         0.4400  245.7900    1.6500 C.ar      1 BQY        -0.0413
     12 C09        -0.8160  246.2640    1.2500 C.ar      1 BQY        -0.0819
     13 C11        -0.3810  248.3690    2.3420 C.ar      1 BQY        -0.0415
     14 C12         0.8720  247.8950    2.7420 C.ar      1 BQY         0.1195
     15 O13         1.7560  248.7010    3.4970 O.3       1 BQY        -0.3250
     16 C14         1.1630  249.4940    4.4990 C.3       1 BQY         0.0569
     17 O16         5.1330  245.2890    1.9920 O.3       1 BQY        -0.3837
     18 O18         6.1080  243.0330    3.3040 O.3       1 BQY        -0.3864
     19 C19         3.8170  242.4760    3.9630 C.3       1 BQY         0.1119
     20 O20         4.0960  242.9650    5.2640 O.3       1 BQY        -0.3865
     21 H1         -2.1945  247.9172    1.2872 H         1 BQY         0.0495
     22 H2          4.6221  245.0752    3.9683 H         1 BQY         0.0675
     23 H3          4.5514  242.7655    1.9764 H         1 BQY         0.0648
     24 H4          2.1047  242.6043    6.1147 H         1 BQY         0.2095
     25 H5          0.3639  242.0011    3.9667 H         1 BQY         0.0584
     26 H6          1.6842  240.9549    4.5904 H         1 BQY         0.0584
     27 H7          2.2311  242.4123    2.5213 H         1 BQY         0.0647
     28 H8          2.6601  244.4767    1.6891 H         1 BQY         0.0988
     29 H9          0.7541  244.7878    1.3818 H         1 BQY         0.0509
     30 H10        -1.4740  245.6281    0.6689 H         1 BQY         0.0495
     31 H11        -0.6948  249.3708    2.6121 H         1 BQY         0.0509
     32 H12         1.9416  250.0736    5.0166 H         1 BQY         0.0573
     33 H13         0.6469  248.8456    5.2223 H         1 BQY         0.0573
     34 H14         0.4375  250.1821    4.0406 H         1 BQY         0.0573
     35 H15         6.0587  245.1758    2.1730 H         1 BQY         0.2101
     36 H16         6.3354  242.1106    3.3027 H         1 BQY         0.2100
     37 H17         4.0048  241.3925    3.9351 H         1 BQY         0.0647
     38 H18         3.5243  242.5377    5.8911 H         1 BQY         0.2100
@<TRIPOS>BOND
     1   12    1 ar 
     2    1   13 ar 
     3    2    3 1  
     4    8    2 1  
     5    2   17 1  
     6    3   18 1  
     7    3   19 1  
     8    5    4 1  
     9    6    5 1  
    10    7    6 1  
    11    6   19 1  
    12    8    7 1  
    13    9    8 1  
    14   10    9 1  
    15   11   10 ar 
    16   10   14 ar 
    17   11   12 ar 
    18   13   14 ar 
    19   14   15 1  
    20   15   16 1  
    21   19   20 1  
    22    1   21 1  
    23    2   22 1  
    24    3   23 1  
    25    4   24 1  
    26    5   25 1  
    27    5   26 1  
    28    6   27 1  
    29    8   28 1  
    30   11   29 1  
    31   12   30 1  
    32   13   31 1  
    33   16   32 1  
    34   16   33 1  
    35   16   34 1  
    36   17   35 1  
    37   18   36 1  
    38   19   37 1  
    39   20   38 1  
@<TRIPOS>SUBSTRUCTURE
     1 BQY         1

