### 
### Created by X-TOOL on Mon Aug  2 16:12:38 2021
### 

@<TRIPOS>MOLECULE
6aro_ligand
   39    41     1     0     0
SMALL
GAST_HUCK


@<TRIPOS>ATOM
      1 C10        22.2270   72.2930  127.3850 C.3       1 BS7         0.1145
      2 C20        20.8230   75.9320  133.7870 C.ar      1 BS7         0.0089
      3 C21        21.1810   77.1530  134.2980 C.ar      1 BS7        -0.0343
      4 C22        22.1030   77.9650  133.6110 C.ar      1 BS7        -0.0389
      5 C01        24.0440   77.8030  130.5240 C.ar      1 BS7        -0.0692
      6 C02        23.5680   78.2710  131.7010 C.ar      1 BS7        -0.0604
      7 C03        22.6430   77.5080  132.4180 C.ar      1 BS7        -0.0007
      8 C04        22.2550   76.2670  131.9320 C.ar      1 BS7         0.0828
      9 C05        22.7650   75.7680  130.7520 C.ar      1 BS7         0.1227
     10 C06        23.6430   76.5430  130.0330 C.ar      1 BS7        -0.0284
     11 O07        22.3190   74.5060  130.3210 O.3       1 BS7        -0.2781
     12 C08        22.4910   74.1280  128.9640 C.3       1 BS7         0.2117
     13 C09        22.1910   72.6740  128.8330 C.3       1 BS7         0.1389
     14 C11        21.2590   73.1690  126.5950 C.3       1 BS7         0.1119
     15 C12        21.6230   74.6170  126.8510 C.3       1 BS7         0.1134
     16 O13        21.5580   74.8960  128.2250 O.3       1 BS7        -0.3365
     17 C14        20.7170   75.6280  126.0860 C.3       1 BS7         0.0730
     18 O15        19.4360   75.7230  126.6850 O.3       1 BS7        -0.3924
     19 O16        19.9220   72.8780  127.0200 O.3       1 BS7        -0.3865
     20 O17        21.8850   70.8970  127.2770 O.3       1 BS7        -0.3864
     21 O18        23.1950   71.8950  129.5190 O.3       1 BS7        -0.3836
     22 N19        21.3660   75.4900  132.6090 N.ar      1 BS7        -0.2939
     23 H1         23.2431   72.4454  126.9921 H         1 BS7         0.0648
     24 H2         20.1075   75.3138  134.3170 H         1 BS7         0.0839
     25 H3         20.7528   77.4939  135.2337 H         1 BS7         0.0690
     26 H4         22.3867   78.9328  134.0083 H         1 BS7         0.0748
     27 H5         24.7418   78.4035  129.9517 H         1 BS7         0.0605
     28 H6         23.9012   79.2288  132.0839 H         1 BS7         0.0523
     29 H7         24.0287   76.1848  129.0854 H         1 BS7         0.0533
     30 H8         23.5169   74.3338  128.6246 H         1 BS7         0.0998
     31 H9         21.1980   72.4615  129.2558 H         1 BS7         0.0676
     32 H10        21.3514   72.9546  125.5201 H         1 BS7         0.0647
     33 H11        22.6586   74.7665  126.5115 H         1 BS7         0.0647
     34 H12        20.6023   75.2908  125.0453 H         1 BS7         0.0584
     35 H13        21.1940   76.6191  126.0999 H         1 BS7         0.0584
     36 H14        19.0176   74.8702  126.6721 H         1 BS7         0.2095
     37 H15        19.3125   73.4296  126.5439 H         1 BS7         0.2100
     38 H16        21.9169   70.6340  126.3647 H         1 BS7         0.2100
     39 H17        22.9936   70.9710  129.4288 H         1 BS7         0.2101
@<TRIPOS>BOND
     1   13    1 1  
     2    1   14 1  
     3    1   20 1  
     4    2    3 ar 
     5   22    2 ar 
     6    4    3 ar 
     7    7    4 ar 
     8    5    6 ar 
     9   10    5 ar 
    10    7    6 ar 
    11    8    7 ar 
    12    9    8 ar 
    13    8   22 ar 
    14    9   10 ar 
    15   11    9 1  
    16   12   11 1  
    17   12   13 1  
    18   12   16 1  
    19   13   21 1  
    20   14   15 1  
    21   14   19 1  
    22   15   16 1  
    23   15   17 1  
    24   17   18 1  
    25    1   23 1  
    26    2   24 1  
    27    3   25 1  
    28    4   26 1  
    29    5   27 1  
    30    6   28 1  
    31   10   29 1  
    32   12   30 1  
    33   13   31 1  
    34   14   32 1  
    35   15   33 1  
    36   17   34 1  
    37   17   35 1  
    38   18   36 1  
    39   19   37 1  
    40   20   38 1  
    41   21   39 1  
@<TRIPOS>SUBSTRUCTURE
     1 BS7         1

