### 
### Created by X-TOOL on Wed Jan  1 15:39:36 2020
### 

@<TRIPOS>MOLECULE
6arv_ligand
   60    63     1     0     0
SMALL
GAST_HUCK


@<TRIPOS>ATOM
      1 CAZ        -3.4530   19.8730   25.5040 C.3       1 BW7         0.0542
      2 CBA        -2.1320   19.7860   26.2530 C.3       1 BW7         0.0681
      3 OBB        -1.1060   20.3550   25.4110 O.3       1 BW7        -0.3757
      4 CBC        -1.2590   21.8100   25.3000 C.3       1 BW7         0.0681
      5 CBD        -2.5640   22.1410   24.5580 C.3       1 BW7         0.0542
      6 NAY        -3.6920   21.2000   24.8420 N.pl3     1 BW7        -0.2950
      7 CAH        -4.9560   21.5070   24.4530 C.ar      1 BW7         0.0620
      8 CAI        -6.0100   20.6460   24.7820 C.ar      1 BW7        -0.0216
      9 CAG        -5.2490   22.6350   23.7640 C.ar      1 BW7         0.0560
     10 CAF        -4.5030   23.6420   23.3090 C.2       1 BW7         0.0238
     11 NAE        -5.3340   24.4880   22.6900 N.2       1 BW7        -0.2054
     12 NAD        -6.4980   24.0680   22.7430 N.pl3     1 BW7        -0.1884
     13 CAB        -7.6820   24.7590   22.1420 C.3       1 BW7         0.0729
     14 CAC        -7.5910   26.3080   22.1920 C.3       1 BW7        -0.0344
     15 CAA        -7.7890   24.3350   20.6950 C.3       1 BW7        -0.0344
     16 CAL        -6.5150   22.9210   23.4000 C.ar      1 BW7         0.1453
     17 NAK        -7.5450   22.0960   23.7150 N.ar      1 BW7        -0.2953
     18 CAJ        -7.3200   20.9600   24.3970 C.ar      1 BW7         0.0213
     19 CAM        -8.4060   20.1110   24.6790 C.ar      1 BW7        -0.0163
     20 CAX        -9.4560   20.0000   23.7630 C.ar      1 BW7        -0.0228
     21 CAN        -8.4360   19.3980   25.8680 C.ar      1 BW7        -0.0619
     22 CAO        -9.5120   18.5580   26.1520 C.ar      1 BW7        -0.0676
     23 CAP       -10.5650   18.4440   25.2560 C.ar      1 BW7        -0.0310
     24 CAQ       -10.5310   19.1400   24.0560 C.ar      1 BW7         0.0936
     25 OAR       -11.5870   18.9630   23.2420 O.3       1 BW7        -0.3149
     26 CAS       -11.5520   19.5080   21.9100 C.3       1 BW7         0.1012
     27 CAT       -12.8860   19.2390   21.2340 C.3       1 BW7         0.1221
     28 OAU       -12.9720   17.8510   20.8650 O.3       1 BW7        -0.3838
     29 CAV       -12.9800   20.0950   19.9520 C.3       1 BW7        -0.0062
     30 NAW       -14.3740   20.1660   19.5090 N.4       1 BW7         0.2204
     31 H1         -4.2690   19.6909   26.2189 H         1 BW7         0.0547
     32 H2         -3.4635   19.0926   24.7289 H         1 BW7         0.0547
     33 H3         -1.8951   18.7344   26.4720 H         1 BW7         0.0580
     34 H4         -2.1984   20.3507   27.1946 H         1 BW7         0.0580
     35 H5         -0.4065   22.2254   24.7426 H         1 BW7         0.0580
     36 H6         -1.2892   22.2520   26.3068 H         1 BW7         0.0580
     37 H7         -2.3606   22.1180   23.4772 H         1 BW7         0.0547
     38 H8         -2.8788   23.1536   24.8505 H         1 BW7         0.0547
     39 H9         -5.8121   19.7351   25.3354 H         1 BW7         0.0494
     40 H10        -3.4255   23.7541   23.4198 H         1 BW7         0.0721
     41 H11        -8.5844   24.4446   22.6867 H         1 BW7         0.0648
     42 H12        -8.4918   26.7431   21.7346 H         1 BW7         0.0259
     43 H13        -6.7010   26.6411   21.6380 H         1 BW7         0.0259
     44 H14        -7.5158   26.6373   23.2388 H         1 BW7         0.0259
     45 H15        -8.6540   24.8310   20.2306 H         1 BW7         0.0259
     46 H16        -7.9195   23.2441   20.6412 H         1 BW7         0.0259
     47 H17        -6.8715   24.6214   20.1602 H         1 BW7         0.0259
     48 H18        -9.4425   20.5683   22.8400 H         1 BW7         0.0562
     49 H19        -7.6220   19.4938   26.5774 H         1 BW7         0.0550
     50 H20        -9.5258   17.9919   27.0763 H         1 BW7         0.0595
     51 H21       -11.4132   17.8120   25.4930 H         1 BW7         0.0560
     52 H22       -10.7442   19.0301   21.3364 H         1 BW7         0.0641
     53 H23       -11.3748   20.5925   21.9591 H         1 BW7         0.0641
     54 H24       -13.7082   19.4951   21.9184 H         1 BW7         0.0674
     55 H25       -13.8073   17.6879   20.4430 H         1 BW7         0.2101
     56 H26       -12.3675   19.6378   19.1609 H         1 BW7         0.0840
     57 H27       -12.6105   21.1097   20.1615 H         1 BW7         0.0840
     58 H28       -14.4326   20.7251   18.6723 H         1 BW7         0.1995
     59 H29       -14.9358   20.5853   20.2333 H         1 BW7         0.1995
     60 H30       -14.7131   19.2365   19.3164 H         1 BW7         0.1995
@<TRIPOS>BOND
     1    1    2 1  
     2    1    6 1  
     3    2    3 1  
     4    3    4 1  
     5    4    5 1  
     6    5    6 1  
     7    6    7 1  
     8    7    8 ar 
     9    7    9 ar 
    10    8   18 ar 
    11    9   10 1  
    12    9   16 ar 
    13   10   11 2  
    14   11   12 1  
    15   12   13 1  
    16   12   16 1  
    17   13   14 1  
    18   13   15 1  
    19   16   17 ar 
    20   17   18 ar 
    21   18   19 1  
    22   19   20 ar 
    23   19   21 ar 
    24   20   24 ar 
    25   21   22 ar 
    26   22   23 ar 
    27   23   24 ar 
    28   24   25 1  
    29   25   26 1  
    30   26   27 1  
    31   27   28 1  
    32   27   29 1  
    33   29   30 1  
    34    1   31 1  
    35    1   32 1  
    36    2   33 1  
    37    2   34 1  
    38    4   35 1  
    39    4   36 1  
    40    5   37 1  
    41    5   38 1  
    42    8   39 1  
    43   10   40 1  
    44   13   41 1  
    45   14   42 1  
    46   14   43 1  
    47   14   44 1  
    48   15   45 1  
    49   15   46 1  
    50   15   47 1  
    51   20   48 1  
    52   21   49 1  
    53   22   50 1  
    54   23   51 1  
    55   26   52 1  
    56   26   53 1  
    57   27   54 1  
    58   28   55 1  
    59   29   56 1  
    60   29   57 1  
    61   30   58 1  
    62   30   59 1  
    63   30   60 1  
@<TRIPOS>SUBSTRUCTURE
     1 BW7         1

