### 
### Created by X-TOOL on Wed Jan  1 15:39:35 2020
### 

@<TRIPOS>MOLECULE
6ary_ligand
   31    31     1     0     0
SMALL
GAST_HUCK


@<TRIPOS>ATOM
      1 N10       -60.0810   57.9020   15.8700 N.2       1 BT7        -0.2226
      2 C11       -57.6830   58.7810   18.6970 C.3       1 BT7         0.1354
      3 C01       -60.4560   61.1420   14.8030 C.3       1 BT7        -0.0624
      4 C02       -61.9270   60.7930   15.1440 C.3       1 BT7        -0.0235
      5 C03       -62.1120   59.5480   16.0940 C.3       1 BT7         0.0784
      6 C04       -63.1110   58.4530   15.5540 C.3       1 BT7        -0.0235
      7 C05       -63.2810   57.2420   16.5020 C.3       1 BT7        -0.0624
      8 C07       -59.9850   59.3860   17.5920 C.2       1 BT7         0.0489
      9 C08       -58.8300   58.6030   17.6960 C.2       1 BT7         0.0007
     10 C09       -58.9060   57.6770   16.5860 C.2       1 BT7        -0.0007
     11 C13       -57.0950   57.3860   18.9410 C.3       1 BT7         0.2690
     12 F14       -57.9430   56.5750   19.6650 F         1 BT7        -0.2050
     13 F15       -56.0190   57.4250   19.8340 F         1 BT7        -0.2050
     14 N06       -60.7380   58.9570   16.5030 N.pl3     1 BT7        -0.2126
     15 O12       -56.7170   59.5790   18.0710 O.3       1 BT7        -0.3799
     16 H1        -58.0294   59.2380   19.6357 H         1 BT7         0.0738
     17 H2        -60.4316   62.0190   14.1394 H         1 BT7         0.0231
     18 H3        -59.9839   60.2866   14.2977 H         1 BT7         0.0231
     19 H4        -59.9085   61.3682   15.7298 H         1 BT7         0.0231
     20 H5        -62.4559   60.5854   14.2021 H         1 BT7         0.0294
     21 H6        -62.3805   61.6670   15.6343 H         1 BT7         0.0294
     22 H7        -62.5687   59.9362   17.0163 H         1 BT7         0.0672
     23 H8        -62.7349   58.0867   14.5874 H         1 BT7         0.0294
     24 H9        -64.0955   58.9221   15.4105 H         1 BT7         0.0294
     25 H10       -63.9887   56.5260   16.0588 H         1 BT7         0.0231
     26 H11       -63.6679   57.5872   17.4721 H         1 BT7         0.0231
     27 H12       -62.3073   56.7518   16.6490 H         1 BT7         0.0231
     28 H13       -60.2530   60.2038   18.2593 H         1 BT7         0.0873
     29 H14       -58.1599   56.9207   16.3469 H         1 BT7         0.0627
     30 H15       -56.8166   56.9333   17.9779 H         1 BT7         0.1060
     31 H16       -57.0751   60.4454   17.9168 H         1 BT7         0.2120
@<TRIPOS>BOND
     1    1   10 2  
     2   14    1 1  
     3    9    2 1  
     4    2   11 1  
     5    2   15 1  
     6    4    3 1  
     7    5    4 1  
     8    5    6 1  
     9   14    5 1  
    10    6    7 1  
    11    8    9 2  
    12    8   14 1  
    13    9   10 1  
    14   11   12 1  
    15   11   13 1  
    16    2   16 1  
    17    3   17 1  
    18    3   18 1  
    19    3   19 1  
    20    4   20 1  
    21    4   21 1  
    22    5   22 1  
    23    6   23 1  
    24    6   24 1  
    25    7   25 1  
    26    7   26 1  
    27    7   27 1  
    28    8   28 1  
    29   10   29 1  
    30   11   30 1  
    31   15   31 1  
@<TRIPOS>SUBSTRUCTURE
     1 BT7         1

