### 
### Created by X-TOOL on Wed Jan  1 15:39:37 2020
### 

@<TRIPOS>MOLECULE
6as6_ligand
   33    34     1     0     0
SMALL
GAST_HUCK


@<TRIPOS>ATOM
      1 C10        35.5790   79.2920   63.3300 C.3       1 BSV         0.0590
      2 C13        37.7670   80.2190   63.9940 C.2       1 BSV         0.0656
      3 C17        29.3130   75.9660   61.1200 C.3       1 BSV        -0.0394
      4 C01        35.4460   76.1170   64.0470 C.3       1 BSV        -0.0304
      5 C02        34.2520   76.2900   63.1900 C.ar      1 BSV        -0.0332
      6 C03        33.3010   75.2650   63.1850 C.ar      1 BSV        -0.0606
      7 C04        32.1620   75.3350   62.3930 C.ar      1 BSV        -0.0618
      8 C05        31.9190   76.4240   61.5500 C.ar      1 BSV        -0.0408
      9 C06        32.8760   77.4570   61.5380 C.ar      1 BSV        -0.0478
     10 C07        34.0300   77.4160   62.3480 C.ar      1 BSV         0.0275
     11 C08        35.0050   78.5500   62.1910 C.2       1 BSV         0.1306
     12 C11        36.5150   80.2560   63.1960 C.3       1 BSV         0.1220
     13 C16        30.6900   76.4730   60.7220 C.3       1 BSV        -0.0092
     14 C18        30.0550   75.2960   60.0040 C.3       1 BSV        -0.0394
     15 O09        35.3200   78.8850   61.0210 O.2       1 BSV        -0.3824
     16 O12        36.7530   80.9540   62.0330 O.3       1 BSV        -0.3754
     17 O14        37.6400   80.0010   65.3290 O.co2     1 BSV        -0.5662
     18 O15        38.8940   80.2120   63.5040 O.co2     1 BSV        -0.5662
     19 H1         36.0223   78.5325   63.9908 H         1 BSV         0.0528
     20 H2         34.7276   79.7683   63.8382 H         1 BSV         0.0528
     21 H3         28.4208   76.5708   60.9006 H         1 BSV         0.0290
     22 H4         29.1760   75.4447   62.0788 H         1 BSV         0.0290
     23 H5         35.3703   75.1653   64.5934 H         1 BSV         0.0393
     24 H6         35.5056   76.9483   64.7649 H         1 BSV         0.0393
     25 H7         36.3495   76.1087   63.4197 H         1 BSV         0.0393
     26 H8         33.4562   74.3957   63.8137 H         1 BSV         0.0553
     27 H9         31.4430   74.5246   62.4293 H         1 BSV         0.0579
     28 H10        32.7211   78.3095   60.8866 H         1 BSV         0.0591
     29 H11        35.9707   81.0351   63.7499 H         1 BSV         0.0788
     30 H12        30.7329   77.4290   60.1795 H         1 BSV         0.0449
     31 H13        29.7057   75.4096   58.9671 H         1 BSV         0.0290
     32 H14        30.4609   74.2835   60.1453 H         1 BSV         0.0290
     33 H15        37.4384   80.5197   61.5389 H         1 BSV         0.2126
@<TRIPOS>BOND
     1   11    1 1  
     2    1   12 1  
     3   12    2 1  
     4    2   17 ar 
     5    2   18 ar 
     6   13    3 1  
     7    3   14 1  
     8    5    4 1  
     9    5    6 ar 
    10   10    5 ar 
    11    6    7 ar 
    12    8    7 ar 
    13    9    8 ar 
    14    8   13 1  
    15   10    9 ar 
    16   10   11 1  
    17   11   15 2  
    18   12   16 1  
    19   13   14 1  
    20    1   19 1  
    21    1   20 1  
    22    3   21 1  
    23    3   22 1  
    24    4   23 1  
    25    4   24 1  
    26    4   25 1  
    27    6   26 1  
    28    7   27 1  
    29    9   28 1  
    30   12   29 1  
    31   13   30 1  
    32   14   31 1  
    33   14   32 1  
    34   16   33 1  
@<TRIPOS>SUBSTRUCTURE
     1 BSV         1

