### 
### Created by X-TOOL on Mon Aug  2 16:12:38 2021
### 

@<TRIPOS>MOLECULE
6as8_ligand
   52    54     1     0     0
SMALL
GAST_HUCK


@<TRIPOS>ATOM
      1 C13        23.5040  128.7760  132.3480 C.ar      1 BTG        -0.0700
      2 C15        22.3560  127.8700  134.2540 C.ar      1 BTG        -0.0616
      3 C17        21.0040  125.7470  134.0530 C.ar      1 BTG        -0.0180
      4 C20        19.4030  123.7430  135.1050 C.ar      1 BTG        -0.0493
      5 C21        20.7570  123.5210  134.9160 C.ar      1 BTG         0.0089
      6 C22        21.3670  122.1850  135.2840 C.2       1 BTG         0.0626
      7 C26        21.8590  124.0870  129.6920 C.3       1 BTG         0.1255
      8 C28        22.4070  122.4750  131.4930 C.2       1 BTG         0.1734
      9 O01        21.6660  122.5560  127.8800 O.3       1 BTG        -0.3867
     10 C02        22.0020  123.8860  128.2030 C.3       1 BTG         0.1115
     11 C03        21.0630  124.8320  127.4990 C.3       1 BTG         0.1117
     12 O04        19.7440  124.5780  127.9260 O.3       1 BTG        -0.3865
     13 C05        21.4590  126.2420  127.8610 C.3       1 BTG         0.1134
     14 C06        20.5490  127.2210  127.1560 C.3       1 BTG         0.0730
     15 O07        19.4620  127.5420  127.9950 O.3       1 BTG        -0.3924
     16 O08        21.3510  126.3990  129.2580 O.3       1 BTG        -0.3369
     17 C09        22.1080  125.5280  130.0690 C.3       1 BTG         0.2074
     18 O10        21.7050  125.6540  131.4110 O.3       1 BTG        -0.2826
     19 C11        22.2230  126.7530  132.1290 C.ar      1 BTG         0.1052
     20 C12        23.0350  127.7320  131.5650 C.ar      1 BTG        -0.0311
     21 C14        23.1640  128.8460  133.6910 C.ar      1 BTG        -0.0718
     22 C16        21.8870  126.8300  133.4700 C.ar      1 BTG         0.0135
     23 C18        19.6480  125.9690  134.2350 C.ar      1 BTG        -0.0544
     24 C19        18.8480  124.9670  134.7640 C.ar      1 BTG        -0.0596
     25 O23        20.8420  121.1190  134.8700 O.co2     1 BTG        -0.5606
     26 O24        22.4020  122.1420  136.0010 O.co2     1 BTG        -0.5606
     27 C25        21.5550  124.5230  134.3880 C.ar      1 BTG        -0.0427
     28 N27        22.8010  123.2660  130.3780 N.am      1 BTG        -0.2762
     29 C29        23.4250  121.6140  132.2060 C.3       1 BTG         0.0257
     30 O30        21.2580  122.4810  131.8850 O.2       1 BTG        -0.3974
     31 H1         24.1374  129.5387  131.9098 H         1 BTG         0.0592
     32 H2         22.0925  127.9212  135.3043 H         1 BTG         0.0595
     33 H3         18.7777  122.9604  135.5192 H         1 BTG         0.0636
     34 H4         20.8396  123.8056  129.9947 H         1 BTG         0.0638
     35 H5         21.7552  122.4266  126.9431 H         1 BTG         0.2100
     36 H6         23.0379  124.0914  127.8953 H         1 BTG         0.0645
     37 H7         21.1331  124.6918  126.4102 H         1 BTG         0.0647
     38 H8         19.1493  125.1726  127.4842 H         1 BTG         0.2100
     39 H9         22.4986  126.4239  127.5510 H         1 BTG         0.0647
     40 H10        20.1733  126.7682  126.2266 H         1 BTG         0.0584
     41 H11        21.1103  128.1364  126.9171 H         1 BTG         0.0584
     42 H12        18.9778  126.7510  128.2007 H         1 BTG         0.2095
     43 H13        23.1765  125.7680  129.9655 H         1 BTG         0.0992
     44 H14        23.3005  127.6787  130.5154 H         1 BTG         0.0543
     45 H15        23.5302  129.6641  134.3006 H         1 BTG         0.0527
     46 H16        19.2133  126.9244  133.9643 H         1 BTG         0.0627
     47 H17        17.7882  125.1410  134.9109 H         1 BTG         0.0620
     48 H18        22.6140  124.3474  134.2370 H         1 BTG         0.0641
     49 H19        23.7525  123.2457  130.0711 H         1 BTG         0.1857
     50 H20        22.9374  121.0803  133.0351 H         1 BTG         0.0467
     51 H21        24.2300  122.2502  132.6025 H         1 BTG         0.0467
     52 H22        23.8482  120.8851  131.4992 H         1 BTG         0.0467
@<TRIPOS>BOND
     1   20    1 ar 
     2    1   21 ar 
     3   21    2 ar 
     4    2   22 ar 
     5   22    3 1  
     6    3   23 ar 
     7    3   27 ar 
     8    5    4 ar 
     9    4   24 ar 
    10    5    6 1  
    11   27    5 ar 
    12    6   25 ar 
    13    6   26 ar 
    14    7   10 1  
    15   17    7 1  
    16    7   28 1  
    17   28    8 am 
    18    8   29 1  
    19    8   30 2  
    20   10    9 1  
    21   10   11 1  
    22   11   12 1  
    23   13   11 1  
    24   13   14 1  
    25   16   13 1  
    26   14   15 1  
    27   17   16 1  
    28   18   17 1  
    29   19   18 1  
    30   19   20 ar 
    31   19   22 ar 
    32   23   24 ar 
    33    1   31 1  
    34    2   32 1  
    35    4   33 1  
    36    7   34 1  
    37    9   35 1  
    38   10   36 1  
    39   11   37 1  
    40   12   38 1  
    41   13   39 1  
    42   14   40 1  
    43   14   41 1  
    44   15   42 1  
    45   17   43 1  
    46   20   44 1  
    47   21   45 1  
    48   23   46 1  
    49   24   47 1  
    50   27   48 1  
    51   28   49 1  
    52   29   50 1  
    53   29   51 1  
    54   29   52 1  
@<TRIPOS>SUBSTRUCTURE
     1 BTG         1

