### 
### Created by X-TOOL on Wed Jan  1 15:39:38 2020
### 

@<TRIPOS>MOLECULE
6asu_ligand
   24    24     1     0     0
SMALL
GAST_HUCK


@<TRIPOS>ATOM
      1 C10        35.2770   81.3890   62.9530 C.2       1 BVS         0.0116
      2 C13        37.3800   82.4920   63.8270 C.2       1 BVS         0.1141
      3 C01        30.5640   76.8290   61.6500 C.3       1 BVS        -0.0284
      4 C02        31.6380   77.8560   61.6900 C.ar      1 BVS        -0.0405
      5 C03        32.7040   77.7170   62.6040 C.ar      1 BVS        -0.0541
      6 C04        33.7030   78.6940   62.6560 C.ar      1 BVS        -0.0502
      7 C05        33.6650   79.8270   61.8010 C.ar      1 BVS         0.0205
      8 C06        32.5960   79.9540   60.8820 C.ar      1 BVS        -0.0502
      9 C07        31.5940   78.9750   60.8260 C.ar      1 BVS        -0.0541
     10 C08        34.7580   80.8330   61.8500 C.2       1 BVS         0.1074
     11 C11        36.1930   82.5380   62.8860 C.2       1 BVS         0.1576
     12 O09        34.9460   81.6090   60.7240 O.3       1 BVS        -0.3200
     13 O12        36.3170   83.2510   61.8740 O.2       1 BVS        -0.3771
     14 O14        37.0750   82.1600   65.1200 O.co2     1 BVS        -0.5483
     15 O15        38.5090   82.1610   63.4460 O.co2     1 BVS        -0.5483
     16 H1         35.0132   80.9787   63.9267 H         1 BVS         0.0361
     17 H2         30.7781   76.0456   62.3919 H         1 BVS         0.0404
     18 H3         30.5218   76.3815   60.6460 H         1 BVS         0.0404
     19 H4         29.5975   77.2999   61.8826 H         1 BVS         0.0404
     20 H5         32.7482   76.8571   63.2626 H         1 BVS         0.0573
     21 H6         34.5196   78.5847   63.3604 H         1 BVS         0.0653
     22 H7         32.5519   80.8108   60.2195 H         1 BVS         0.0653
     23 H8         30.7808   79.0762   60.1164 H         1 BVS         0.0573
     24 H9         35.6663   82.2105   60.8719 H         1 BVS         0.2575
@<TRIPOS>BOND
     1   10    1 2  
     2    1   11 1  
     3   11    2 1  
     4    2   14 ar 
     5    2   15 ar 
     6    4    3 1  
     7    5    4 ar 
     8    4    9 ar 
     9    6    5 ar 
    10    7    6 ar 
    11    7    8 ar 
    12    7   10 1  
    13    8    9 ar 
    14   10   12 1  
    15   11   13 2  
    16    1   16 1  
    17    3   17 1  
    18    3   18 1  
    19    3   19 1  
    20    5   20 1  
    21    6   21 1  
    22    8   22 1  
    23    9   23 1  
    24   12   24 1  
@<TRIPOS>SUBSTRUCTURE
     1 BVS         1

