### 
### Created by X-TOOL on Fri Nov  2 11:09:59 2018
### 

@<TRIPOS>MOLECULE
6au2_ligand
   26    28     1     0     0
SMALL
GAST_HUCK


@<TRIPOS>ATOM
      1 C4         16.7530   59.0130    8.4090 C.3       1 CGJ         0.0852
      2 C5         16.7600   59.6360    7.0410 C.ar      1 CGJ         0.0179
      3 C6         17.9500   60.0690    6.4650 C.ar      1 CGJ        -0.0624
      4 N1         12.8850   59.2150    8.5650 N.2       1 CGJ        -0.2798
      5 C7         17.9680   60.5520    5.1670 C.ar      1 CGJ        -0.0759
      6 C8         16.8060   60.6070    4.4260 C.ar      1 CGJ        -0.0734
      7 N2         14.3440   59.4080    6.9270 N.pl3     1 CGJ        -0.1700
      8 C9         15.6020   60.2090    4.9810 C.ar      1 CGJ        -0.0338
      9 C10        15.5840   59.7420    6.2940 C.ar      1 CGJ         0.1076
     10 C          13.1650   58.0830    5.1110 C.3       1 CGJ         0.0160
     11 C1         13.2670   58.6740    6.4700 C.2       1 CGJ         0.1395
     12 C2         14.0440   59.7190    8.2340 C.2       1 CGJ         0.1689
     13 N          12.3880   58.5460    7.4310 N.2       1 CGJ        -0.2820
     14 O          16.1350   59.7830    9.4480 O.3       1 CGJ        -0.3489
     15 C3         14.9870   60.5010    9.0560 C.3       1 CGJ         0.1299
     16 H1         17.7978   58.8313    8.7012 H         1 CGJ         0.0712
     17 H2         16.2196   58.0535    8.3389 H         1 CGJ         0.0712
     18 H3         18.8702   60.0281    7.0364 H         1 CGJ         0.0537
     19 H4         18.9014   60.8890    4.7307 H         1 CGJ         0.0536
     20 H5         16.8358   60.9640    3.4029 H         1 CGJ         0.0541
     21 H6         14.6865   60.2598    4.4028 H         1 CGJ         0.0559
     22 H7         12.2066   57.5522    5.0130 H         1 CGJ         0.0468
     23 H8         13.9932   57.3760    4.9555 H         1 CGJ         0.0468
     24 H9         13.2196   58.8831    4.3581 H         1 CGJ         0.0468
     25 H10        14.4613   60.8352    9.9626 H         1 CGJ         0.0806
     26 H11        15.3087   61.3776    8.4745 H         1 CGJ         0.0806
@<TRIPOS>BOND
     1    2    1 1  
     2    1   14 1  
     3    2    3 ar 
     4    9    2 ar 
     5    3    5 ar 
     6   12    4 2  
     7    4   13 1  
     8    5    6 ar 
     9    6    8 ar 
    10    7    9 1  
    11    7   11 1  
    12    7   12 1  
    13    8    9 ar 
    14   11   10 1  
    15   11   13 2  
    16   12   15 1  
    17   14   15 1  
    18    1   16 1  
    19    1   17 1  
    20    3   18 1  
    21    5   19 1  
    22    6   20 1  
    23    8   21 1  
    24   10   22 1  
    25   10   23 1  
    26   10   24 1  
    27   15   25 1  
    28   15   26 1  
@<TRIPOS>SUBSTRUCTURE
     1 CGJ         1

