### 
### Created by X-TOOL on Wed Jan  1 15:39:35 2020
### 

@<TRIPOS>MOLECULE
6au9_ligand
   27    28     1     0     0
SMALL
GAST_HUCK


@<TRIPOS>ATOM
      1 C10        33.6270   75.8080   62.6980 C.ar      1 BXS        -0.0638
      2 C15        29.5770   75.0350   59.7790 C.3       1 BXS         0.0955
      3 C17        31.5490   75.9660   60.7760 C.ar      1 BXS         0.1256
      4 C02        37.3340   79.5840   63.6490 C.2       1 BXS         0.1127
      5 C04        36.2750   79.3600   62.6350 C.2       1 BXS         0.1439
      6 C06        35.3760   78.3550   62.7660 C.2       1 BXS         0.0174
      7 C07        34.6480   77.8720   61.6010 C.2       1 BXS         0.1185
      8 C09        33.5940   76.8270   61.7460 C.ar      1 BXS         0.0059
      9 C11        32.5980   74.8480   62.6960 C.ar      1 BXS        -0.0348
     10 C12        31.5580   74.9290   61.7470 C.ar      1 BXS         0.1257
     11 C14        29.3150   74.5350   61.1830 C.3       1 BXS         0.0965
     12 C18        32.5740   76.9000   60.7930 C.ar      1 BXS        -0.0240
     13 O01        38.5550   79.7210   63.0780 O.co2     1 BXS        -0.5511
     14 O03        37.2840   79.2400   64.8210 O.co2     1 BXS        -0.5511
     15 O05        36.4980   80.1070   61.5310 O.3       1 BXS        -0.3106
     16 O08        34.9570   78.2550   60.4770 O.2       1 BXS        -0.3957
     17 O13        30.5180   74.0120   61.7570 O.3       1 BXS        -0.3154
     18 O16        30.5690   76.0720   59.7880 O.3       1 BXS        -0.3180
     19 H1         34.4294   75.7566   63.4250 H         1 BXS         0.0549
     20 H2         28.6424   75.4328   59.3568 H         1 BXS         0.0636
     21 H3         29.9333   74.1995   59.1585 H         1 BXS         0.0636
     22 H4         35.1977   77.9082   63.7430 H         1 BXS         0.0442
     23 H5         32.6048   74.0455   63.4247 H         1 BXS         0.0525
     24 H6         28.5541   73.7413   61.1495 H         1 BXS         0.0638
     25 H7         28.9496   75.3674   61.8023 H         1 BXS         0.0638
     26 H8         32.5843   77.6967   60.0580 H         1 BXS         0.0555
     27 H9         36.7694   79.5420   60.8172 H         1 BXS         0.2607
@<TRIPOS>BOND
     1    8    1 ar 
     2    1    9 ar 
     3    2   11 1  
     4   18    2 1  
     5    3   10 ar 
     6   12    3 ar 
     7    3   18 1  
     8    5    4 1  
     9    4   13 ar 
    10    4   14 ar 
    11    6    5 2  
    12    5   15 1  
    13    7    6 1  
    14    8    7 1  
    15    7   16 2  
    16    8   12 ar 
    17    9   10 ar 
    18   10   17 1  
    19   11   17 1  
    20    1   19 1  
    21    2   20 1  
    22    2   21 1  
    23    6   22 1  
    24    9   23 1  
    25   11   24 1  
    26   11   25 1  
    27   12   26 1  
    28   15   27 1  
@<TRIPOS>SUBSTRUCTURE
     1 BXS         1

