### 
### Created by X-TOOL on Mon Sep 10 21:13:33 2018
### 

@<TRIPOS>MOLECULE
6aud_ligand
   69    73     1     0     0
SMALL
GAST_HUCK


@<TRIPOS>ATOM
      1 C7         23.1310   -7.3370   19.1260 C.2       1 BWY         0.0529
      2 N8         22.8020   -6.3310   18.3630 N.2       1 BWY        -0.1983
      3 C9         19.6810   -7.2000   20.0760 C.2       1 BWY         0.0798
      4 C2         20.6750   -5.0190   17.8920 C.3       1 BWY         0.0774
      5 C10        19.4140   -8.2110   20.9380 C.2       1 BWY         0.0651
      6 C1         21.5860   -4.3760   16.8450 C.3       1 BWY        -0.0333
      7 C12        17.5710   -7.0350   20.6210 C.2       1 BWY         0.1395
      8 C14        16.1710   -6.5100   20.6760 C.ar      1 BWY         0.0598
      9 C15        15.9160   -5.2250   20.2060 C.ar      1 BWY        -0.0396
     10 C16        14.6370   -4.6960   20.2300 C.ar      1 BWY         0.0307
     11 C17        13.5900   -5.4480   20.7270 C.ar      1 BWY        -0.0529
     12 C18        13.8110   -6.7250   21.1950 C.ar      1 BWY        -0.0282
     13 C19        15.0810   -7.2660   21.1670 C.ar      1 BWY         0.1088
     14 C21        16.1480   -8.6220   22.7510 C.3       1 BWY         0.1002
     15 C22        17.4920   -9.0820   22.2210 C.3       1 BWY         0.0884
     16 C25        13.0700   -3.2580   18.3510 C.3       1 BWY         0.0478
     17 C26        11.6690   -3.2600   18.9640 C.3       1 BWY         0.0021
     18 C27        10.6600   -3.5450   17.8500 C.3       1 BWY        -0.0303
     19 C29        12.0740   -2.3390   16.2590 C.3       1 BWY        -0.0303
     20 C3         20.2640   -3.9390   18.8930 C.3       1 BWY        -0.0333
     21 C30        13.1100   -2.0910   17.3610 C.3       1 BWY         0.0021
     22 C31         9.6970   -2.6930   15.7550 C.3       1 BWY        -0.0186
     23 C32        10.2860   -3.4190   14.5400 C.3       1 BWY        -0.0192
     24 C33         8.5090   -3.5150   16.2680 C.3       1 BWY        -0.0192
     25 C34         9.1780   -1.3220   15.3160 C.3       1 BWY        -0.0192
     26 C5         21.0190   -6.9880   19.4820 C.2       1 BWY         0.1539
     27 N11        18.1140   -8.1340   21.2960 N.pl3     1 BWY        -0.2357
     28 N13        18.5350   -6.5070   19.9100 N.2       1 BWY        -0.3109
     29 N28        10.7170   -2.5030   16.8120 N.4       1 BWY         0.2390
     30 N4         21.4370   -6.0730   18.5680 N.pl3     1 BWY        -0.1800
     31 N6         22.0600   -7.7320   19.8000 N.2       1 BWY        -0.2972
     32 O20        15.2880   -8.5050   21.6340 O.3       1 BWY        -0.3106
     33 O24        15.5810   -2.7150   19.0380 O.2       1 BWY        -0.2533
     34 S23        14.3400   -3.0580   19.6380 S.o       1 BWY         0.0517
     35 H1         24.1233   -7.7798   19.1975 H         1 BWY         0.0851
     36 H2         19.7821   -5.4476   17.4134 H         1 BWY         0.0661
     37 H3         20.1266   -8.9585   21.2834 H         1 BWY         0.1023
     38 H4         21.0374   -3.5792   16.3213 H         1 BWY         0.0260
     39 H5         21.9062   -5.1384   16.1196 H         1 BWY         0.0260
     40 H6         22.4695   -3.9478   17.3410 H         1 BWY         0.0260
     41 H7         16.7323   -4.6287   19.8147 H         1 BWY         0.0622
     42 H8         12.5895   -5.0313   20.7489 H         1 BWY         0.0615
     43 H9         12.9847   -7.3071   21.5866 H         1 BWY         0.0546
     44 H10        16.2516   -7.6487   23.2530 H         1 BWY         0.0646
     45 H11        15.7480   -9.3604   23.4615 H         1 BWY         0.0646
     46 H12        17.3497  -10.0378   21.6954 H         1 BWY         0.0652
     47 H13        18.1699   -9.2303   23.0745 H         1 BWY         0.0652
     48 H14        13.2459   -4.2047   17.8192 H         1 BWY         0.0443
     49 H15        11.4585   -2.2790   19.4149 H         1 BWY         0.0328
     50 H16        11.6015   -4.0406   19.7361 H         1 BWY         0.0328
     51 H17         9.6474   -3.5712   18.2790 H         1 BWY         0.0815
     52 H18        10.8910   -4.5196   17.3952 H         1 BWY         0.0815
     53 H19        12.3483   -3.2526   15.7111 H         1 BWY         0.0815
     54 H20        12.0763   -1.4827   15.5685 H         1 BWY         0.0815
     55 H21        19.6068   -4.3788   19.6576 H         1 BWY         0.0260
     56 H22        19.7276   -3.1360   18.3664 H         1 BWY         0.0260
     57 H23        21.1619   -3.5252   19.3753 H         1 BWY         0.0260
     58 H24        14.1131   -2.0191   16.9153 H         1 BWY         0.0328
     59 H25        12.8737   -1.1535   17.8856 H         1 BWY         0.0328
     60 H26         9.5061   -3.5448   13.7745 H         1 BWY         0.0287
     61 H27        10.6595   -4.4066   14.8485 H         1 BWY         0.0287
     62 H28        11.1148   -2.8266   14.1251 H         1 BWY         0.0287
     63 H29         8.0671   -3.0145   17.1422 H         1 BWY         0.0287
     64 H30         8.8547   -4.5187   16.5561 H         1 BWY         0.0287
     65 H31         7.7528   -3.6015   15.4739 H         1 BWY         0.0287
     66 H32        10.0162   -0.7147   14.9436 H         1 BWY         0.0287
     67 H33         8.7105   -0.8152   16.1731 H         1 BWY         0.0287
     68 H34         8.4344   -1.4505   14.5157 H         1 BWY         0.0287
     69 H35        10.4903   -1.6344   17.2704 H         1 BWY         0.2039
@<TRIPOS>BOND
     1    2    1 2  
     2    1   31 1  
     3   30    2 1  
     4    3    5 2  
     5   26    3 1  
     6    3   28 1  
     7    4    6 1  
     8    4   20 1  
     9   30    4 1  
    10    5   27 1  
    11    7    8 1  
    12    7   27 1  
    13   28    7 2  
    14    8    9 ar 
    15    8   13 ar 
    16    9   10 ar 
    17   10   11 ar 
    18   10   34 1  
    19   12   11 ar 
    20   13   12 ar 
    21   13   32 1  
    22   15   14 1  
    23   14   32 1  
    24   27   15 1  
    25   16   17 1  
    26   16   21 1  
    27   34   16 1  
    28   17   18 1  
    29   18   29 1  
    30   21   19 1  
    31   19   29 1  
    32   22   23 1  
    33   22   24 1  
    34   22   25 1  
    35   29   22 1  
    36   26   30 1  
    37   26   31 2  
    38   34   33 2  
    39    1   35 1  
    40    4   36 1  
    41    5   37 1  
    42    6   38 1  
    43    6   39 1  
    44    6   40 1  
    45    9   41 1  
    46   11   42 1  
    47   12   43 1  
    48   14   44 1  
    49   14   45 1  
    50   15   46 1  
    51   15   47 1  
    52   16   48 1  
    53   17   49 1  
    54   17   50 1  
    55   18   51 1  
    56   18   52 1  
    57   19   53 1  
    58   19   54 1  
    59   20   55 1  
    60   20   56 1  
    61   20   57 1  
    62   21   58 1  
    63   21   59 1  
    64   23   60 1  
    65   23   61 1  
    66   23   62 1  
    67   24   63 1  
    68   24   64 1  
    69   24   65 1  
    70   25   66 1  
    71   25   67 1  
    72   25   68 1  
    73   29   69 1  
@<TRIPOS>SUBSTRUCTURE
     1 BWY         1

