### 
### Created by X-TOOL on Wed Jan  1 15:39:37 2020
### 

@<TRIPOS>MOLECULE
6aum_ligand
   51    53     1     0     0
SMALL
GAST_HUCK


@<TRIPOS>ATOM
      1 F29       -21.6840   -8.2350   12.6390 F         1 BXV        -0.1404
      2 C26       -20.7510   -7.6190   11.9410 C.3       1 BXV         0.5436
      3 F27       -20.1170   -6.7740   12.7410 F         1 BXV        -0.1404
      4 F28       -21.3160   -6.9270   10.9690 F         1 BXV        -0.1404
      5 O25       -19.8380   -8.5950   11.4160 O.3       1 BXV        -0.2361
      6 C24       -19.1280   -9.2900   12.3490 C.ar      1 BXV         0.0850
      7 C23       -19.6120  -10.4880   12.8460 C.ar      1 BXV        -0.0457
      8 C22       -18.8850  -11.1570   13.8160 C.ar      1 BXV        -0.0494
      9 C30       -17.9410   -8.7620   12.8380 C.ar      1 BXV        -0.0457
     10 C31       -17.2230   -9.4330   13.8130 C.ar      1 BXV        -0.0494
     11 C1        -17.6790  -10.6560   14.3100 C.ar      1 BXV         0.0559
     12 N2        -17.1020  -11.3880   15.3080 N.am      1 BXV        -0.2258
     13 C3        -16.1760  -10.9950   16.2010 C.2       1 BXV         0.2844
     14 O21       -15.5540   -9.9720   16.0820 O.2       1 BXV        -0.3916
     15 N4        -16.0120  -11.7830   17.2730 N.am      1 BXV        -0.2653
     16 C5        -15.1560  -11.5940   18.4450 C.3       1 BXV         0.0430
     17 C20       -14.3500  -10.3030   18.5800 C.3       1 BXV        -0.0274
     18 C19       -13.6230  -10.2700   19.9200 C.3       1 BXV        -0.0200
     19 C8        -12.6750  -11.4620   20.0290 C.3       1 BXV         0.0822
     20 C7        -13.4480  -12.7620   19.8270 C.3       1 BXV        -0.0200
     21 C6        -14.1830  -12.7650   18.4940 C.3       1 BXV        -0.0274
     22 O9        -12.0670  -11.5290   21.3090 O.3       1 BXV        -0.3127
     23 C10       -11.2990  -10.5160   21.8020 C.ar      1 BXV         0.0948
     24 C18       -10.1580  -10.0800   21.1260 C.ar      1 BXV        -0.0292
     25 C17        -9.3960   -9.0410   21.6680 C.ar      1 BXV        -0.0562
     26 C13        -9.7760   -8.4440   22.8830 C.ar      1 BXV        -0.0010
     27 C14        -8.9660   -7.3230   23.4790 C.2       1 BXV         0.0557
     28 O16        -9.4630   -6.5290   24.2680 O.co2     1 BXV        -0.5636
     29 O15        -7.6830   -7.1800   23.1540 O.co2     1 BXV        -0.5636
     30 C12       -10.9210   -8.8930   23.5510 C.ar      1 BXV        -0.0562
     31 C11       -11.6810   -9.9260   23.0070 C.ar      1 BXV        -0.0292
     32 H1        -20.5472  -10.8966   12.4808 H         1 BXV         0.0506
     33 H2        -19.2629  -12.0965   14.2029 H         1 BXV         0.0477
     34 H3        -17.5736   -7.8174   12.4536 H         1 BXV         0.0506
     35 H4        -16.3016   -9.0068   14.1929 H         1 BXV         0.0477
     36 H5        -17.4068  -12.3373   15.3848 H         1 BXV         0.2218
     37 H6        -16.5541  -12.6233   17.2717 H         1 BXV         0.1854
     38 H7        -15.8144  -11.6431   19.3248 H         1 BXV         0.0553
     39 H8        -15.0311   -9.4417   18.5156 H         1 BXV         0.0288
     40 H9        -13.6124  -10.2490   17.7657 H         1 BXV         0.0288
     41 H10       -14.3599  -10.3148   20.7355 H         1 BXV         0.0295
     42 H11       -13.0456   -9.3370   19.9984 H         1 BXV         0.0295
     43 H12       -11.8957  -11.3691   19.2582 H         1 BXV         0.0651
     44 H13       -14.1800  -12.8741   20.6404 H         1 BXV         0.0295
     45 H14       -12.7427  -13.6058   19.8495 H         1 BXV         0.0295
     46 H15       -13.4553  -12.6710   17.6745 H         1 BXV         0.0288
     47 H16       -14.7389  -13.7079   18.3845 H         1 BXV         0.0288
     48 H17        -9.8659  -10.5426   20.1902 H         1 BXV         0.0551
     49 H18        -8.5092   -8.6944   21.1499 H         1 BXV         0.0623
     50 H19       -11.2158   -8.4379   24.4897 H         1 BXV         0.0623
     51 H20       -12.5706  -10.2719   23.5208 H         1 BXV         0.0551
@<TRIPOS>BOND
     1    1    2 1  
     2    2    3 1  
     3    2    4 1  
     4    2    5 1  
     5    5    6 1  
     6    6    7 ar 
     7    6    9 ar 
     8    7    8 ar 
     9    8   11 ar 
    10    9   10 ar 
    11   10   11 ar 
    12   11   12 1  
    13   12   13 am 
    14   13   14 2  
    15   13   15 am 
    16   15   16 1  
    17   16   17 1  
    18   16   21 1  
    19   17   18 1  
    20   18   19 1  
    21   19   20 1  
    22   19   22 1  
    23   20   21 1  
    24   22   23 1  
    25   23   24 ar 
    26   23   31 ar 
    27   24   25 ar 
    28   25   26 ar 
    29   26   27 1  
    30   26   30 ar 
    31   27   28 ar 
    32   27   29 ar 
    33   30   31 ar 
    34    7   32 1  
    35    8   33 1  
    36    9   34 1  
    37   10   35 1  
    38   12   36 1  
    39   15   37 1  
    40   16   38 1  
    41   17   39 1  
    42   17   40 1  
    43   18   41 1  
    44   18   42 1  
    45   19   43 1  
    46   20   44 1  
    47   20   45 1  
    48   21   46 1  
    49   21   47 1  
    50   24   48 1  
    51   25   49 1  
    52   30   50 1  
    53   31   51 1  
@<TRIPOS>SUBSTRUCTURE
     1 BXV         1

