### 
### Created by X-TOOL on Mon Aug  2 16:11:37 2021
### 

@<TRIPOS>MOLECULE
6avi_ligand
   28    27     1     0     0
SMALL
GAST_HUCK


@<TRIPOS>ATOM
      1 C1         18.0090   63.2370    9.9130 C.2       1 KNA         0.0348
      2 O1         17.8960   62.2050   10.6230 O.co2     1 KNA        -0.5690
      3 C2         16.8140   64.1780    9.7680 C.3       1 KNA         0.0002
      4 O2         19.0960   63.4840    9.3250 O.co2     1 KNA        -0.5690
      5 C3         17.2230   65.5850    9.3220 C.3       1 KNA        -0.0414
      6 C4         15.9480   66.3490    8.9630 C.3       1 KNA        -0.0516
      7 C5         14.8170   65.9210    9.9050 C.3       1 KNA        -0.0530
      8 C6         13.4820   65.6750    9.1950 C.3       1 KNA        -0.0531
      9 C7         12.9570   64.2550    9.4520 C.3       1 KNA        -0.0533
     10 C8         11.4130   64.2280    9.4520 C.3       1 KNA        -0.0559
     11 C9         10.8470   62.7940    9.5340 C.3       1 KNA        -0.0653
     12 H1         16.3031   64.2510   10.7394 H         1 KNA         0.0430
     13 H2         16.1238   63.7585    9.0213 H         1 KNA         0.0430
     14 H3         17.8820   65.5226    8.4435 H         1 KNA         0.0283
     15 H4         17.7496   66.0988   10.1397 H         1 KNA         0.0283
     16 H5         15.6654   66.1241    7.9240 H         1 KNA         0.0266
     17 H6         16.1251   67.4294    9.0691 H         1 KNA         0.0266
     18 H7         14.6708   66.7132   10.6540 H         1 KNA         0.0265
     19 H8         15.1184   64.9909   10.4090 H         1 KNA         0.0265
     20 H9         13.6227   65.8129    8.1128 H         1 KNA         0.0265
     21 H10        12.7425   66.4009    9.5640 H         1 KNA         0.0265
     22 H11        13.3229   63.9075   10.4294 H         1 KNA         0.0265
     23 H12        13.3285   63.5856    8.6622 H         1 KNA         0.0265
     24 H13        11.0519   64.6973    8.5250 H         1 KNA         0.0263
     25 H14        11.0501   64.8005   10.3183 H         1 KNA         0.0263
     26 H15         9.7477   62.8330    9.5306 H         1 KNA         0.0230
     27 H16        11.1940   62.3153   10.4616 H         1 KNA         0.0230
     28 H17        11.1959   62.2120    8.6682 H         1 KNA         0.0230
@<TRIPOS>BOND
     1    1    2 ar 
     2    1    3 1  
     3    1    4 ar 
     4    3    5 1  
     5    5    6 1  
     6    6    7 1  
     7    7    8 1  
     8    8    9 1  
     9    9   10 1  
    10   10   11 1  
    11    3   12 1  
    12    3   13 1  
    13    5   14 1  
    14    5   15 1  
    15    6   16 1  
    16    6   17 1  
    17    7   18 1  
    18    7   19 1  
    19    8   20 1  
    20    8   21 1  
    21    9   22 1  
    22    9   23 1  
    23   10   24 1  
    24   10   25 1  
    25   11   26 1  
    26   11   27 1  
    27   11   28 1  
@<TRIPOS>SUBSTRUCTURE
     1 KNA         1

