### 
### Created by X-TOOL on Wed Jan  1 15:39:34 2020
### 

@<TRIPOS>MOLECULE
6awn_ligand
   45    48     1     0     0
SMALL
GAST_HUCK


@<TRIPOS>ATOM
      1 FAA        33.5330  179.3810  140.9510 F         1 8PR        -0.1893
      2 CAB        34.7070  181.3250  140.3510 C.ar      1 8PR        -0.0349
      3 CAC        32.6090  181.4600  141.4900 C.ar      1 8PR        -0.0349
      4 CAD        31.6100  186.2190  145.5940 C.ar      1 8PR        -0.0530
      5 CAE        34.8070  182.6980  140.3260 C.ar      1 8PR        -0.0617
      6 CAF        32.7030  182.8490  141.4650 C.ar      1 8PR        -0.0617
      7 CAG        30.5490  185.8310  146.4440 C.ar      1 8PR        -0.0497
      8 CAH        30.6820  184.8300  143.8340 C.ar      1 8PR        -0.0128
      9 CAI        34.9920  186.8550  139.4150 C.3       1 8PR        -0.0316
     10 CAJ        34.8150  185.3470  139.6030 C.3       1 8PR        -0.0000
     11 CAK        34.7670  187.1410  141.8640 C.3       1 8PR        -0.0263
     12 CAL        27.7960  183.5030  145.7040 C.3       1 8PR         0.1845
     13 CAM        33.8530  185.3340  143.2950 C.3       1 8PR         0.0774
     14 NAN        35.4740  187.5370  140.6370 N.4       1 8PR         0.2275
     15 OAO        32.5370  185.8340  143.1130 O.3       1 8PR        -0.3272
     16 OAP        28.3920  184.3950  146.6180 O.3       1 8PR        -0.2984
     17 OAQ        28.5020  183.5740  144.4750 O.3       1 8PR        -0.2937
     18 CAR        33.5990  180.7080  140.9400 C.ar      1 8PR         0.1248
     19 CAS        31.6720  185.7190  144.3030 C.ar      1 8PR         0.0712
     20 CAT        33.8030  183.4610  140.8940 C.ar      1 8PR        -0.0431
     21 CAU        29.5670  184.9520  145.9810 C.ar      1 8PR         0.1117
     22 CAV        29.6330  184.4500  144.6760 C.ar      1 8PR         0.1152
     23 CAW        34.6540  185.6080  142.0120 C.3       1 8PR         0.0386
     24 CAX        34.0000  185.0360  140.8080 C.3       1 8PR         0.0057
     25 H1         35.4913  180.7192  139.9118 H         1 8PR         0.0587
     26 H2         31.7504  180.9805  141.9459 H         1 8PR         0.0587
     27 H3         32.3710  186.9039  145.9502 H         1 8PR         0.0422
     28 H4         35.6641  183.1762  139.8657 H         1 8PR         0.0547
     29 H5         31.9113  183.4521  141.8945 H         1 8PR         0.0547
     30 H6         30.4975  186.2160  147.4560 H         1 8PR         0.0483
     31 H7         30.7347  184.4425  142.8230 H         1 8PR         0.0436
     32 H8         34.0221  187.2891  139.1306 H         1 8PR         0.0815
     33 H9         35.7204  187.0247  138.6084 H         1 8PR         0.0815
     34 H10        35.8060  184.8825  139.7130 H         1 8PR         0.0341
     35 H11        34.3126  184.9335  138.7161 H         1 8PR         0.0341
     36 H12        33.7539  187.5689  141.8413 H         1 8PR         0.0819
     37 H13        35.3142  187.5398  142.7309 H         1 8PR         0.0819
     38 H14        26.7447  183.7841  145.5440 H         1 8PR         0.0969
     39 H15        27.8452  182.4782  146.1008 H         1 8PR         0.0969
     40 H16        33.8166  184.2515  143.4869 H         1 8PR         0.0616
     41 H17        34.3295  185.8416  144.1467 H         1 8PR         0.0616
     42 H18        35.3583  188.5304  140.5116 H         1 8PR         0.2014
     43 H19        36.4525  187.3247  140.7530 H         1 8PR         0.2014
     44 H20        35.6578  185.1691  142.1109 H         1 8PR         0.0403
     45 H21        33.0098  185.5031  140.7018 H         1 8PR         0.0461
@<TRIPOS>BOND
     1   18    1 1  
     2    5    2 ar 
     3    2   18 ar 
     4    6    3 ar 
     5    3   18 ar 
     6    4    7 ar 
     7   19    4 ar 
     8   20    5 ar 
     9   20    6 ar 
    10    7   21 ar 
    11   19    8 ar 
    12    8   22 ar 
    13   10    9 1  
    14    9   14 1  
    15   24   10 1  
    16   14   11 1  
    17   11   23 1  
    18   12   16 1  
    19   17   12 1  
    20   13   15 1  
    21   23   13 1  
    22   15   19 1  
    23   21   16 1  
    24   22   17 1  
    25   20   24 1  
    26   21   22 ar 
    27   23   24 1  
    28    2   25 1  
    29    3   26 1  
    30    4   27 1  
    31    5   28 1  
    32    6   29 1  
    33    7   30 1  
    34    8   31 1  
    35    9   32 1  
    36    9   33 1  
    37   10   34 1  
    38   10   35 1  
    39   11   36 1  
    40   11   37 1  
    41   12   38 1  
    42   12   39 1  
    43   13   40 1  
    44   13   41 1  
    45   14   42 1  
    46   14   43 1  
    47   23   44 1  
    48   24   45 1  
@<TRIPOS>SUBSTRUCTURE
     1 8PR         1

