### 
### Created by X-TOOL on Wed Jan  1 15:39:34 2020
### 

@<TRIPOS>MOLECULE
6awo_ligand
   38    40     1     0     0
SMALL
GAST_HUCK


@<TRIPOS>ATOM
      1 CL19       28.0700  181.9560  143.4580 Cl        1 SRE        -0.0762
      2 C16        29.7180  182.6310  143.6170 C.ar      1 SRE         0.0471
      3 C15        30.0670  183.3610  144.7440 C.ar      1 SRE         0.0480
      4 CL20       28.8730  183.6290  146.0440 Cl        1 SRE        -0.0718
      5 C17        30.6540  182.4280  142.6130 C.ar      1 SRE        -0.0538
      6 C18        31.9320  182.9500  142.7410 C.ar      1 SRE        -0.0576
      7 C13        32.2780  183.6760  143.8700 C.ar      1 SRE        -0.0293
      8 C14        31.3440  183.8840  144.8700 C.ar      1 SRE        -0.0439
      9 C4         33.7150  184.2740  144.0260 C.3       1 SRE         0.0238
     10 C5         34.7980  183.2140  143.4860 C.ar      1 SRE        -0.0215
     11 C6         35.0650  182.0390  144.1840 C.ar      1 SRE        -0.0644
     12 C7         36.0120  181.1400  143.6950 C.ar      1 SRE        -0.0751
     13 C8         36.7000  181.4190  142.5030 C.ar      1 SRE        -0.0751
     14 C9         36.4380  182.5950  141.8050 C.ar      1 SRE        -0.0611
     15 C10        35.4910  183.4940  142.2890 C.ar      1 SRE         0.0086
     16 C1         35.1830  184.8390  141.4980 C.3       1 SRE         0.0091
     17 N11        35.0110  184.4820  140.0620 N.4       1 SRE         0.2381
     18 C12        33.7790  183.7340  139.8830 C.3       1 SRE        -0.0434
     19 C2         33.9960  185.6780  141.9180 C.3       1 SRE         0.0030
     20 C3         33.6990  185.6350  143.4050 C.3       1 SRE        -0.0251
     21 H1         30.3860  181.8613  141.7286 H         1 SRE         0.0606
     22 H2         32.6625  182.7900  141.9562 H         1 SRE         0.0562
     23 H3         31.6113  184.4557  145.7513 H         1 SRE         0.0566
     24 H4         33.9225  184.4139  145.0972 H         1 SRE         0.0605
     25 H5         34.5374  181.8236  145.1061 H         1 SRE         0.0541
     26 H6         36.2176  180.2236  144.2362 H         1 SRE         0.0542
     27 H7         37.4359  180.7181  142.1258 H         1 SRE         0.0543
     28 H8         36.9706  182.8105  140.8858 H         1 SRE         0.0540
     29 H9         36.0721  185.4782  141.6024 H         1 SRE         0.1001
     30 H10        35.7909  183.9183  139.7620 H         1 SRE         0.2026
     31 H11        34.9735  185.3247  139.5102 H         1 SRE         0.2026
     32 H12        33.6589  183.4741  138.8209 H         1 SRE         0.0777
     33 H13        32.9265  184.3481  140.2088 H         1 SRE         0.0777
     34 H14        33.8185  182.8133  140.4836 H         1 SRE         0.0777
     35 H15        33.1088  185.3150  141.3785 H         1 SRE         0.0344
     36 H16        34.1948  186.7225  141.6361 H         1 SRE         0.0344
     37 H17        34.4518  186.2508  143.9188 H         1 SRE         0.0313
     38 H18        32.7005  186.0682  143.5637 H         1 SRE         0.0313
@<TRIPOS>BOND
     1    1    2 1  
     2    2    3 ar 
     3    2    5 ar 
     4    3    4 1  
     5    3    8 ar 
     6    5    6 ar 
     7    6    7 ar 
     8    7    8 ar 
     9    7    9 1  
    10    9   10 1  
    11    9   20 1  
    12   10   11 ar 
    13   10   15 ar 
    14   11   12 ar 
    15   12   13 ar 
    16   13   14 ar 
    17   14   15 ar 
    18   15   16 1  
    19   16   17 1  
    20   16   19 1  
    21   17   18 1  
    22   19   20 1  
    23    5   21 1  
    24    6   22 1  
    25    8   23 1  
    26    9   24 1  
    27   11   25 1  
    28   12   26 1  
    29   13   27 1  
    30   14   28 1  
    31   16   29 1  
    32   17   30 1  
    33   17   31 1  
    34   18   32 1  
    35   18   33 1  
    36   18   34 1  
    37   19   35 1  
    38   19   36 1  
    39   20   37 1  
    40   20   38 1  
@<TRIPOS>SUBSTRUCTURE
     1 SRE         1

