### 
### Created by X-TOOL on Wed Jan  1 15:39:34 2020
### 

@<TRIPOS>MOLECULE
6awp_ligand
   44    44     1     0     0
SMALL
GAST_HUCK


@<TRIPOS>ATOM
      1 C1         35.8250  180.4700  143.3310 C.3       1 FVX         0.0364
      2 O2         36.0530  181.7850  143.7550 O.3       1 FVX        -0.3830
      3 C3         36.3190  182.6750  142.7130 C.3       1 FVX         0.0474
      4 C4         35.1360  183.6260  142.5670 C.3       1 FVX        -0.0277
      5 C5         35.1800  184.2610  141.1820 C.3       1 FVX        -0.0400
      6 C6         33.9650  185.1770  141.0100 C.3       1 FVX         0.0016
      7 C7         33.8330  186.1150  142.2120 C.2       1 FVX         0.0897
      8 N8         34.6820  187.0030  142.4260 N.2       1 FVX        -0.1279
      9 O9         35.7820  187.1620  141.5760 O.3       1 FVX        -0.2204
     10 C10        35.7640  188.4500  141.0460 C.3       1 FVX         0.1376
     11 C11        36.4630  188.4300  139.6960 C.3       1 FVX        -0.0030
     12 N12        37.7600  189.0690  139.8380 N.4       1 FVX         0.2206
     13 C13        32.6520  185.9900  143.1690 C.ar      1 FVX         0.0250
     14 C14        31.7760  184.9190  143.0580 C.ar      1 FVX        -0.0266
     15 C15        30.7030  184.8160  143.9320 C.ar      1 FVX        -0.0369
     16 C16        30.5040  185.7800  144.9110 C.ar      1 FVX         0.0334
     17 C17        31.3810  186.8510  145.0170 C.ar      1 FVX        -0.0369
     18 C18        32.4540  186.9570  144.1450 C.ar      1 FVX        -0.0266
     19 C19        29.3160  185.6650  145.8710 C.3       1 FVX         0.3607
     20 F20        28.8080  186.9100  146.1040 F         1 FVX        -0.2362
     21 F21        28.3500  184.8750  145.3120 F         1 FVX        -0.2362
     22 F22        29.7210  185.1320  147.0600 F         1 FVX        -0.2362
     23 H1         35.6238  179.8327  144.2047 H         1 FVX         0.0523
     24 H2         36.7137  180.0962  142.8014 H         1 FVX         0.0523
     25 H3         34.9584  180.4481  142.6539 H         1 FVX         0.0523
     26 H4         36.4621  182.1161  141.7765 H         1 FVX         0.0560
     27 H5         37.2293  183.2492  142.9401 H         1 FVX         0.0560
     28 H6         35.1965  184.4111  143.3351 H         1 FVX         0.0289
     29 H7         34.1962  183.0672  142.6871 H         1 FVX         0.0289
     30 H8         35.1582  183.4729  140.4149 H         1 FVX         0.0288
     31 H9         36.1029  184.8501  141.0764 H         1 FVX         0.0288
     32 H10        33.0562  184.5628  140.9275 H         1 FVX         0.0437
     33 H11        34.0879  185.7749  140.0949 H         1 FVX         0.0437
     34 H12        36.2897  189.1374  141.7251 H         1 FVX         0.0714
     35 H13        34.7236  188.7839  140.9194 H         1 FVX         0.0714
     36 H14        35.8589  188.9772  138.9574 H         1 FVX         0.0843
     37 H15        36.5964  187.3902  139.3627 H         1 FVX         0.0843
     38 H16        38.2363  189.0634  138.9497 H         1 FVX         0.1995
     39 H17        38.3097  188.5663  140.5171 H         1 FVX         0.1995
     40 H18        37.6339  190.0206  140.1456 H         1 FVX         0.1995
     41 H19        31.9293  184.1669  142.2925 H         1 FVX         0.0693
     42 H20        30.0179  183.9800  143.8500 H         1 FVX         0.0824
     43 H21        31.2270  187.6042  145.7812 H         1 FVX         0.0824
     44 H22        33.1376  187.7944  144.2255 H         1 FVX         0.0693
@<TRIPOS>BOND
     1    1    2 1  
     2    2    3 1  
     3    3    4 1  
     4    4    5 1  
     5    5    6 1  
     6    6    7 1  
     7    7    8 2  
     8    7   13 1  
     9    8    9 1  
    10    9   10 1  
    11   10   11 1  
    12   11   12 1  
    13   13   14 ar 
    14   13   18 ar 
    15   14   15 ar 
    16   15   16 ar 
    17   16   17 ar 
    18   16   19 1  
    19   17   18 ar 
    20   19   20 1  
    21   19   21 1  
    22   19   22 1  
    23    1   23 1  
    24    1   24 1  
    25    1   25 1  
    26    3   26 1  
    27    3   27 1  
    28    4   28 1  
    29    4   29 1  
    30    5   30 1  
    31    5   31 1  
    32    6   32 1  
    33    6   33 1  
    34   10   34 1  
    35   10   35 1  
    36   11   36 1  
    37   11   37 1  
    38   12   38 1  
    39   12   39 1  
    40   12   40 1  
    41   14   41 1  
    42   15   42 1  
    43   17   43 1  
    44   18   44 1  
@<TRIPOS>SUBSTRUCTURE
     1 FVX         1

