### 
### Created by X-TOOL on Mon Sep 10 21:13:31 2018
### 

@<TRIPOS>MOLECULE
6ax1_ligand
   28    30     1     0     0
SMALL
GAST_HUCK


@<TRIPOS>ATOM
      1 N3        -16.2750  -13.1470  -18.0620 N.am      1 C0S        -0.2685
      2 C4        -11.7160  -12.9130  -13.9630 C.ar      1 C0S         0.0007
      3 N2        -11.3990  -12.2630  -16.4090 N.2       1 C0S        -0.1213
      4 C7        -12.1070  -12.8740  -15.3960 C.2       1 C0S         0.1087
      5 C6        -12.0870  -13.7110  -11.6900 C.ar      1 C0S        -0.0614
      6 C9        -14.1790  -13.3100  -18.3400 C.3       1 C0S         0.0968
      7 C8        -13.2490  -13.1100  -17.2380 C.2       1 C0S         0.2251
      8 C1        -10.9420  -13.0240  -11.2590 C.ar      1 C0S        -0.0620
      9 C2        -10.1770  -12.2770  -12.1740 C.ar      1 C0S        -0.0614
     10 C3        -10.5530  -12.2200  -13.5220 C.ar      1 C0S        -0.0529
     11 C5        -12.4760  -13.6610  -13.0280 C.ar      1 C0S        -0.0529
     12 N1        -13.3230  -13.4350  -15.9380 N.2       1 C0S        -0.2733
     13 O1        -12.1030  -12.4140  -17.5360 O.3       1 C0S        -0.1320
     14 C10       -15.3620  -14.3030  -18.0810 C.3       1 C0S         0.0577
     15 C11       -15.2330  -12.1500  -18.3670 C.3       1 C0S         0.0577
     16 C12       -17.5860  -13.1730  -18.6430 C.2       1 C0S         0.1722
     17 O2        -18.2750  -12.1440  -18.7930 O.2       1 C0S        -0.3829
     18 H1        -12.6720  -14.2834  -10.9793 H         1 C0S         0.0617
     19 H2        -13.6311  -13.4871  -19.2772 H         1 C0S         0.0618
     20 H3        -10.6456  -13.0688  -10.2173 H         1 C0S         0.0615
     21 H4         -9.2955  -11.7450  -11.8350 H         1 C0S         0.0617
     22 H5         -9.9600  -11.6497  -14.2278 H         1 C0S         0.0622
     23 H6        -13.3612  -14.1950  -13.3542 H         1 C0S         0.0622
     24 H7        -15.5460  -15.0149  -18.8991 H         1 C0S         0.0560
     25 H8        -15.2981  -14.8483  -17.1278 H         1 C0S         0.0560
     26 H9        -15.0906  -11.3870  -17.5876 H         1 C0S         0.0560
     27 H10       -15.3448  -11.6589  -19.3449 H         1 C0S         0.0560
     28 H11       -17.9961  -14.1287  -18.9659 H         1 C0S         0.1546
@<TRIPOS>BOND
     1   14    1 1  
     2   15    1 1  
     3    1   16 am 
     4    4    2 1  
     5    2   10 ar 
     6    2   11 ar 
     7    4    3 2  
     8    3   13 1  
     9   12    4 1  
    10    5    8 ar 
    11   11    5 ar 
    12    7    6 1  
    13    6   14 1  
    14    6   15 1  
    15    7   12 2  
    16    7   13 1  
    17    8    9 ar 
    18    9   10 ar 
    19   16   17 2  
    20    5   18 1  
    21    6   19 1  
    22    8   20 1  
    23    9   21 1  
    24   10   22 1  
    25   11   23 1  
    26   14   24 1  
    27   14   25 1  
    28   15   26 1  
    29   15   27 1  
    30   16   28 1  
@<TRIPOS>SUBSTRUCTURE
     1 C0S         1

