### 
### Created by X-TOOL on Wed Jan  1 15:39:37 2020
### 

@<TRIPOS>MOLECULE
6axb_ligand
   27    28     1     0     0
SMALL
GAST_HUCK


@<TRIPOS>ATOM
      1 C10        34.2110   77.8650   63.1880 C.ar      1 C0V        -0.0443
      2 C13        31.1240   75.9320   62.3380 C.ar      1 C0V        -0.0523
      3 C15        30.0800   76.9450   60.3950 C.ar      1 C0V        -0.0595
      4 C17        32.1180   77.8890   61.2870 C.ar      1 C0V        -0.0112
      5 C02        38.1100   81.5290   64.0750 C.2       1 C0V         0.1273
      6 C04        36.9890   81.4000   63.1010 C.2       1 C0V         0.1887
      7 C06        36.1110   80.1870   63.2660 C.3       1 C0V         0.1051
      8 C07        35.1920   79.9190   62.0950 C.2       1 C0V         0.1510
      9 C09        34.1640   78.8660   62.1710 C.ar      1 C0V         0.0355
     10 C11        33.2240   76.9050   63.2490 C.ar      1 C0V        -0.0508
     11 C12        32.1590   76.8980   62.3010 C.ar      1 C0V        -0.0150
     12 C14        30.1130   75.9560   61.4150 C.ar      1 C0V        -0.0597
     13 C16        31.0610   77.9000   60.3320 C.ar      1 C0V        -0.0516
     14 C18        33.1430   78.8660   61.2430 C.ar      1 C0V        -0.0337
     15 O01        39.2790   81.4440   63.6730 O.co2     1 C0V        -0.5463
     16 O03        37.9010   81.1290   65.3640 O.co2     1 C0V        -0.5463
     17 O05        37.2060   81.9360   62.0040 O.2       1 C0V        -0.3543
     18 O08        35.4130   80.4600   61.0150 O.2       1 C0V        -0.3752
     19 H1         35.0200   77.8601   63.9095 H         1 C0V         0.0653
     20 H2         31.1323   75.1659   63.1048 H         1 C0V         0.0627
     21 H3         29.2779   76.9440   59.6658 H         1 C0V         0.0622
     22 H4         35.4919   80.3296   64.1640 H         1 C0V         0.0716
     23 H5         36.7591   79.3088   63.4031 H         1 C0V         0.0716
     24 H6         33.2577   76.1485   64.0246 H         1 C0V         0.0627
     25 H7         29.3273   75.2107   61.4629 H         1 C0V         0.0630
     26 H8         31.0327   78.6598   59.5594 H         1 C0V         0.0637
     27 H9         33.1248   79.6246   60.4689 H         1 C0V         0.0699
@<TRIPOS>BOND
     1    9    1 ar 
     2    1   10 ar 
     3   11    2 ar 
     4    2   12 ar 
     5    3   12 ar 
     6   13    3 ar 
     7    4   11 ar 
     8    4   13 ar 
     9   14    4 ar 
    10    6    5 1  
    11    5   15 ar 
    12    5   16 ar 
    13    7    6 1  
    14    6   17 2  
    15    8    7 1  
    16    9    8 1  
    17    8   18 2  
    18    9   14 ar 
    19   10   11 ar 
    20    1   19 1  
    21    2   20 1  
    22    3   21 1  
    23    7   22 1  
    24    7   23 1  
    25   10   24 1  
    26   12   25 1  
    27   13   26 1  
    28   14   27 1  
@<TRIPOS>SUBSTRUCTURE
     1 C0V         1

