### 
### Created by X-TOOL on Mon Sep 10 21:13:32 2018
### 

@<TRIPOS>MOLECULE
6axj_ligand
   75    75     1     0     0
SMALL
GAST_HUCK


@<TRIPOS>ATOM
      1 OH         56.5230   -2.1230   22.5560 O.2       1 ALY        -0.3974
      2 CH         55.2590   -2.5080   23.0520 C.2       1 ALY         0.1729
      3 CH3        54.0960   -2.0700   22.1600 C.3       1 ALY         0.0256
      4 NZ         54.9090   -3.2050   24.3300 N.am      1 ALY        -0.2872
      5 CE         56.0720   -3.6270   25.1390 C.3       1 ALY         0.0309
      6 CD         55.6000   -4.2710   26.4380 C.3       1 ALY        -0.0324
      7 CG         56.6350   -4.0940   27.5420 C.3       1 ALY        -0.0439
      8 CB         56.1930   -4.7930   28.8220 C.3       1 ALY         0.0079
      9 CA         57.3930   -5.1600   29.6870 C.3       1 ALY         0.0650
     10 N          56.9440   -5.9100   30.8440 N.4       1 ALY         0.2379
     11 C          58.0840   -3.9080   30.1390 C.2       1 ALY         0.2268
     12 O          57.4500   -3.0470   30.7870 O.2       1 ALY        -0.3907
     13 N          59.3610   -3.7840   29.8210 N.am      1 SER        -0.2589
     14 CA         60.1360   -2.6110   30.2070 C.3       1 SER         0.1540
     15 C          61.0620   -2.1660   29.0800 C.2       1 SER         0.2062
     16 O          61.6480   -2.9930   28.3810 O.2       1 SER        -0.3943
     17 CB         60.9480   -2.8990   31.4720 C.3       1 SER         0.0843
     18 OG         60.0980   -3.1450   32.5790 O.3       1 SER        -0.3903
     19 N          61.1900   -0.8540   28.9100 N.am      1 ALA        -0.2639
     20 CA         62.0380   -0.3000   27.8770 C.3       1 ALA         0.1284
     21 C          63.4730   -0.7890   28.0730 C.2       1 ALA         0.2061
     22 O          63.9660   -0.8530   29.2050 O.2       1 ALA        -0.3942
     23 CB         61.9840    1.2400   27.9030 C.3       1 ALA        -0.0244
     24 N          64.1680   -1.1320   27.0000 N.am      1 PRO        -0.2498
     25 CA         65.4840   -1.7710   27.1320 C.3       1 PRO         0.1338
     26 C          66.5390   -0.8210   27.6780 C.2       1 PRO         0.2042
     27 O          66.3470    0.3940   27.7710 O.2       1 PRO        -0.3944
     28 CB         65.8200   -2.1820   25.6940 C.3       1 PRO        -0.0104
     29 CG         65.1220   -1.1600   24.8680 C.3       1 PRO        -0.0281
     30 CD         63.8090   -0.9030   25.5970 C.3       1 PRO         0.0369
     31 N          67.6770   -1.4200   28.0330 N.am      1 ALA        -0.2626
     32 CA         68.8830   -0.7020   28.4130 C.3       1 ALA         0.1392
     33 C          69.6160   -0.1630   27.1840 C.2       1 ALA         0.2568
     34 O          69.5040   -0.7170   26.0870 O.2       1 ALA        -0.3680
     35 CB         69.8040   -1.6150   29.2200 C.3       1 ALA        -0.0230
     36 OXT        70.3350    0.8370   27.2640 O.3       1 ALA        -0.2910
     37 H1         53.1468   -2.4022   22.6057 H         1 ALY         0.0467
     38 H2         54.2096   -2.5193   21.1624 H         1 ALY         0.0467
     39 H3         54.0952   -0.9737   22.0705 H         1 ALY         0.0467
     40 H4         53.9646   -3.3716   24.6135 H         1 ALY         0.1850
     41 H5         56.6910   -2.7482   25.3725 H         1 ALY         0.0520
     42 H6         56.6680   -4.3541   24.5680 H         1 ALY         0.0520
     43 H7         55.4354   -5.3452   26.2680 H         1 ALY         0.0285
     44 H8         54.6562   -3.8004   26.7508 H         1 ALY         0.0285
     45 H9         56.7648   -3.0207   27.7447 H         1 ALY         0.0269
     46 H10        57.5920   -4.5228   27.2100 H         1 ALY         0.0269
     47 H11        55.6447   -5.7099   28.5601 H         1 ALY         0.0346
     48 H12        55.5330   -4.1205   29.3895 H         1 ALY         0.0346
     49 H13        58.0930   -5.7740   29.1014 H         1 ALY         0.1098
     50 H14        57.7378   -6.1526   31.4159 H         1 ALY         0.2015
     51 H15        56.4796   -6.7513   30.5396 H         1 ALY         0.2015
     52 H16        56.3025   -5.3475   31.3808 H         1 ALY         0.2015
     53 H17        59.8070   -4.5135   29.3024 H         1 SER         0.1885
     54 H18        59.4351   -1.7910   30.4223 H         1 SER         0.0823
     55 H19        61.5859   -2.0310   31.6948 H         1 SER         0.0606
     56 H20        61.5791   -3.7834   31.3002 H         1 SER         0.0606
     57 H21        59.5473   -3.8965   32.3931 H         1 SER         0.2097
     58 H22        60.6870   -0.2336   29.5118 H         1 ALA         0.1883
     59 H23        61.6764   -0.6473   26.8980 H         1 ALA         0.0797
     60 H24        62.6337    1.6430   27.1121 H         1 ALA         0.0277
     61 H25        62.3302    1.6026   28.8821 H         1 ALA         0.0277
     62 H26        60.9496    1.5736   27.7332 H         1 ALA         0.0277
     63 H27        65.4205   -2.6523   27.7872 H         1 PRO         0.0802
     64 H28        65.4404   -3.1908   25.4746 H         1 PRO         0.0313
     65 H29        66.9058   -2.1530   25.5204 H         1 PRO         0.0313
     66 H30        65.7184   -0.2378   24.8067 H         1 PRO         0.0287
     67 H31        64.9341   -1.5433   23.8542 H         1 PRO         0.0287
     68 H32        63.4636    0.1294   25.4395 H         1 PRO         0.0524
     69 H33        63.0287   -1.6050   25.2677 H         1 PRO         0.0524
     70 H34        67.7020   -2.4197   28.0380 H         1 ALA         0.1884
     71 H35        68.5941    0.1507   29.0450 H         1 ALA         0.0813
     72 H36        70.7124   -1.0626   29.5021 H         1 ALA         0.0278
     73 H37        70.0803   -2.4882   28.6108 H         1 ALA         0.0278
     74 H38        69.2827   -1.9516   30.1282 H         1 ALA         0.0278
     75 H39        71.2224    0.6085   27.0134 H         1 ALA         0.2540
@<TRIPOS>BOND
     1    2    1 2  
     2    2    3 1  
     3    4    2 am 
     4    5    4 1  
     5    6    5 1  
     6    7    6 1  
     7    8    7 1  
     8    9    8 1  
     9    9   10 1  
    10   11    9 1  
    11   11   12 2  
    12   14   13 1  
    13   14   17 1  
    14   15   14 1  
    15   15   16 2  
    16   17   18 1  
    17   13   11 am 
    18   20   19 1  
    19   20   23 1  
    20   21   20 1  
    21   21   22 2  
    22   19   15 am 
    23   26   25 1  
    24   25   28 1  
    25   25   24 1  
    26   24   30 1  
    27   30   29 1  
    28   28   29 1  
    29   26   27 2  
    30   24   21 am 
    31   31   32 1  
    32   32   35 1  
    33   32   33 1  
    34   33   34 2  
    35   33   36 1  
    36   26   31 am 
    37    3   37 1  
    38    3   38 1  
    39    3   39 1  
    40    4   40 1  
    41    5   41 1  
    42    5   42 1  
    43    6   43 1  
    44    6   44 1  
    45    7   45 1  
    46    7   46 1  
    47    8   47 1  
    48    8   48 1  
    49    9   49 1  
    50   10   50 1  
    51   10   51 1  
    52   10   52 1  
    53   13   53 1  
    54   14   54 1  
    55   17   55 1  
    56   17   56 1  
    57   18   57 1  
    58   19   58 1  
    59   20   59 1  
    60   23   60 1  
    61   23   61 1  
    62   23   62 1  
    63   25   63 1  
    64   28   64 1  
    65   28   65 1  
    66   29   66 1  
    67   29   67 1  
    68   30   68 1  
    69   30   69 1  
    70   31   70 1  
    71   32   71 1  
    72   35   72 1  
    73   35   73 1  
    74   35   74 1  
    75   36   75 1  
@<TRIPOS>SUBSTRUCTURE
     1 ALY         1

