### 
### Created by X-TOOL on Wed Jan  1 15:39:37 2020
### 

@<TRIPOS>MOLECULE
6axq_ligand
   22    23     1     0     0
SMALL
GAST_HUCK


@<TRIPOS>ATOM
      1 C4         20.7620  -32.1580   -9.3230 C.ar      1 C2Y         0.0693
      2 C5         20.1590  -30.9250   -9.6430 C.ar      1 C2Y        -0.0070
      3 C6         20.2250  -30.4690  -10.9560 C.ar      1 C2Y        -0.0729
      4 C7         20.8960  -31.2200  -11.9140 C.ar      1 C2Y        -0.0783
      5 C8         21.5000  -32.4230  -11.5760 C.ar      1 C2Y        -0.0756
      6 C9         21.4350  -32.9090  -10.2820 C.ar      1 C2Y        -0.0418
      7 N          20.5630  -32.4020   -7.9840 N.pl3     1 C2Y        -0.2695
      8 C          18.9590  -29.0980   -8.1530 C.2       1 C2Y         0.2357
      9 O          18.6290  -28.6960   -7.0680 O.2       1 C2Y        -0.3761
     10 C1         18.2950  -27.0470   -9.1070 C.3       1 C2Y         0.0639
     11 C2         19.5930  -30.4150   -8.4010 C.2       1 C2Y         0.0624
     12 C3         19.8610  -31.3570   -7.4410 C.2       1 C2Y         0.0510
     13 O1         18.8240  -28.3890   -9.2680 O.3       1 C2Y        -0.2863
     14 H1         19.7549  -29.5316  -11.2307 H         1 C2Y         0.0538
     15 H2         20.9481  -30.8623  -12.9360 H         1 C2Y         0.0519
     16 H3         22.0289  -32.9885  -12.3346 H         1 C2Y         0.0533
     17 H4         21.8981  -33.8538  -10.0211 H         1 C2Y         0.0549
     18 H5         20.8885  -33.2346   -7.4724 H         1 C2Y         0.2321
     19 H6         18.2280  -26.5589  -10.0905 H         1 C2Y         0.0574
     20 H7         18.9624  -26.4657   -8.4539 H         1 C2Y         0.0574
     21 H8         17.2936  -27.0994   -8.6548 H         1 C2Y         0.0574
     22 H9         19.5594  -31.2853   -6.3970 H         1 C2Y         0.1070
@<TRIPOS>BOND
     1    2    1 ar 
     2    1    6 ar 
     3    1    7 1  
     4    2    3 ar 
     5   11    2 1  
     6    3    4 ar 
     7    4    5 ar 
     8    6    5 ar 
     9    7   12 1  
    10    8    9 2  
    11    8   11 1  
    12    8   13 1  
    13   13   10 1  
    14   11   12 2  
    15    3   14 1  
    16    4   15 1  
    17    5   16 1  
    18    6   17 1  
    19    7   18 1  
    20   10   19 1  
    21   10   20 1  
    22   10   21 1  
    23   12   22 1  
@<TRIPOS>SUBSTRUCTURE
     1 C2Y         1

