### 
### Created by X-TOOL on Wed Jan  1 15:39:37 2020
### 

@<TRIPOS>MOLECULE
6ay3_ligand
   55    59     1     0     0
SMALL
GAST_HUCK


@<TRIPOS>ATOM
      1 C14        15.8180    5.1320   21.3920 C.ar      1 C3J        -0.0484
      2 C5         12.3680    3.9320   21.1450 C.2       1 C3J         0.0458
      3 C6         12.2350    5.2900   20.9650 C.2       1 C3J         0.0466
      4 C11        14.5790    2.5550   21.5370 C.ar      1 C3J        -0.0538
      5 C9         14.4300    4.9460   21.2610 C.ar      1 C3J         0.0592
      6 C10        13.8140    3.6730   21.3300 C.ar      1 C3J        -0.0197
      7 C12        15.9570    2.7370   21.6460 C.ar      1 C3J         0.0420
      8 C13        16.5540    3.9950   21.5550 C.ar      1 C3J        -0.0510
      9 N2         11.4370    1.7180   21.0320 N.am      1 C3J        -0.2951
     10 C3         11.2390    3.0490   21.0220 C.2       1 C3J         0.1772
     11 C1         10.3540    0.7630   20.8150 C.3       1 C3J         0.0182
     12 C16        16.4920    0.7200   23.0340 C.3       1 C3J         0.0426
     13 C17        17.7220   -0.0510   23.4820 C.3       1 C3J        -0.0226
     14 C18        18.2830   -0.8520   22.3040 C.3       1 C3J        -0.0235
     15 C19        18.2990   -0.0830   21.0010 C.ar      1 C3J        -0.0302
     16 C20        17.5520    1.0660   20.8200 C.ar      1 C3J         0.0519
     17 C21        17.5750    1.7220   19.6200 C.ar      1 C3J        -0.0423
     18 C22        18.3490    1.2530   18.5490 C.ar      1 C3J         0.0076
     19 C23        19.1340    0.0800   18.7160 C.ar      1 C3J        -0.0449
     20 C24        19.0870   -0.5780   19.9480 C.ar      1 C3J        -0.0752
     21 C25        19.9770   -0.4910   17.6300 C.2       1 C3J        -0.0122
     22 C26        19.5830   -0.6260   16.2780 C.2       1 C3J         0.0020
     23 C29        21.2720   -0.9970   17.6760 C.2       1 C3J         0.0567
     24 C30        22.8700   -2.0290   15.9160 C.3       1 C3J         0.0602
     25 C31        18.3590    2.0390   17.2550 C.3       1 C3J         0.2683
     26 F32        17.4530    1.5160   16.3460 F         1 C3J        -0.1954
     27 F33        18.0360    3.3500   17.4990 F         1 C3J        -0.1954
     28 N15        16.7430    1.5810   21.8530 N.pl3     1 C3J        -0.2733
     29 N27        20.5840   -1.1450   15.5720 N.2       1 C3J        -0.2161
     30 N28        21.6340   -1.4140   16.4100 N.pl3     1 C3J        -0.2097
     31 N7         13.4610    5.8790   21.0320 N.pl3     1 C3J        -0.2751
     32 O4         10.1230    3.5210   20.7300 O.2       1 C3J        -0.4032
     33 H1         16.2735    6.1153   21.3652 H         1 C3J         0.0530
     34 H2         11.2948    5.8126   20.7953 H         1 C3J         0.1055
     35 H3         14.1316    1.5706   21.6128 H         1 C3J         0.0417
     36 H4         17.6336    4.0710   21.6156 H         1 C3J         0.0473
     37 H5         12.3604    1.3700   21.1941 H         1 C3J         0.1829
     38 H6         10.7522   -0.2611   20.8677 H         1 C3J         0.0482
     39 H7          9.9086    0.9327   19.8236 H         1 C3J         0.0482
     40 H8          9.5854    0.8978   21.5902 H         1 C3J         0.0482
     41 H9         16.1555    1.3563   23.8658 H         1 C3J         0.0558
     42 H10        15.7005   -0.0005   22.7800 H         1 C3J         0.0558
     43 H11        17.4468   -0.7393   24.2947 H         1 C3J         0.0306
     44 H12        18.4855    0.6545   23.8417 H         1 C3J         0.0306
     45 H13        17.6645   -1.7516   22.1692 H         1 C3J         0.0390
     46 H14        19.3144   -1.1489   22.5451 H         1 C3J         0.0390
     47 H15        16.9835    2.6217   19.4946 H         1 C3J         0.0440
     48 H16        19.6663   -1.4826   20.0934 H         1 C3J         0.0467
     49 H17        18.6096   -0.3478   15.8767 H         1 C3J         0.0660
     50 H18        21.8982   -1.0549   18.5651 H         1 C3J         0.0984
     51 H19        22.7788   -2.2194   14.8364 H         1 C3J         0.0605
     52 H20        23.0426   -2.9792   16.4425 H         1 C3J         0.0605
     53 H21        23.7158   -1.3498   16.0983 H         1 C3J         0.0605
     54 H22        19.3685    1.9908   16.8208 H         1 C3J         0.1169
     55 H23        13.6330    6.8889   20.9247 H         1 C3J         0.2296
@<TRIPOS>BOND
     1    1    5 ar 
     2    8    1 ar 
     3    2    3 2  
     4    6    2 1  
     5    2   10 1  
     6   31    3 1  
     7    4    6 ar 
     8    7    4 ar 
     9    6    5 ar 
    10    5   31 1  
    11    7    8 ar 
    12   28    7 1  
    13   10    9 am 
    14    9   11 1  
    15   10   32 2  
    16   12   13 1  
    17   12   28 1  
    18   13   14 1  
    19   14   15 1  
    20   15   16 ar 
    21   15   20 ar 
    22   16   17 ar 
    23   16   28 1  
    24   17   18 ar 
    25   18   19 ar 
    26   18   25 1  
    27   19   20 ar 
    28   19   21 1  
    29   21   22 1  
    30   21   23 2  
    31   22   29 2  
    32   23   30 1  
    33   30   24 1  
    34   25   26 1  
    35   25   27 1  
    36   29   30 1  
    37    1   33 1  
    38    3   34 1  
    39    4   35 1  
    40    8   36 1  
    41    9   37 1  
    42   11   38 1  
    43   11   39 1  
    44   11   40 1  
    45   12   41 1  
    46   12   42 1  
    47   13   43 1  
    48   13   44 1  
    49   14   45 1  
    50   14   46 1  
    51   17   47 1  
    52   20   48 1  
    53   22   49 1  
    54   23   50 1  
    55   24   51 1  
    56   24   52 1  
    57   24   53 1  
    58   25   54 1  
    59   31   55 1  
@<TRIPOS>SUBSTRUCTURE
     1 C3J         1

