### 
### Created by X-TOOL on Wed Jan  1 15:39:35 2020
### 

@<TRIPOS>MOLECULE
6ay5_ligand
   50    54     1     0     0
SMALL
GAST_HUCK


@<TRIPOS>ATOM
      1 C4         -2.0730    5.5120    0.1890 C.2       1 C3V        -0.0121
      2 C5         -1.7260    6.8930    0.1850 C.2       1 C3V         0.0020
      3 C11         0.3590    3.3390   -1.7930 C.ar      1 C3V        -0.0421
      4 C7         -1.2470    4.3540   -0.2760 C.ar      1 C3V        -0.0448
      5 C8         -1.2680    3.1650    0.4730 C.ar      1 C3V        -0.0751
      6 C9         -0.4830    2.0670    0.0850 C.ar      1 C3V        -0.0300
      7 C10         0.3000    2.1520   -1.0690 C.ar      1 C3V         0.0525
      8 C12        -0.4250    4.4310   -1.4280 C.ar      1 C3V         0.0077
      9 C13        -0.3540    5.6700   -2.2630 C.3       1 C3V         0.2683
     10 N2         -3.6750    6.7160    1.1030 N.pl3     1 C3V        -0.2097
     11 C3         -3.3010    5.4430    0.7860 C.2       1 C3V         0.0567
     12 C1         -4.9480    7.0960    1.7350 C.3       1 C3V         0.0602
     13 C17         1.2270   -0.1120   -0.5430 C.3       1 C3V         0.0431
     14 C18        -0.1030   -0.4510    0.1260 C.3       1 C3V        -0.0225
     15 C19        -0.5680    0.7870    0.9160 C.3       1 C3V        -0.0235
     16 C20         2.0880    1.1780   -2.4380 C.ar      1 C3V         0.0389
     17 C21         1.7180    1.2060   -3.7920 C.ar      1 C3V        -0.0600
     18 C22         2.6850    1.3860   -4.7650 C.ar      1 C3V        -0.0695
     19 C23         4.0180    1.4800   -4.3660 C.ar      1 C3V         0.0483
     20 C24         4.4220    1.4400   -3.0230 C.ar      1 C3V         0.0756
     21 C25         3.4250    1.3220   -2.0390 C.ar      1 C3V        -0.0250
     22 C27         6.5430    1.8400   -3.9330 C.2       1 C3V         0.2751
     23 C30         6.4180    1.7450   -1.4960 C.3       1 C3V         0.0445
     24 F14         0.0560    5.3120   -3.5430 F         1 C3V        -0.1954
     25 F15         0.6020    6.5610   -1.8000 F         1 C3V        -0.1954
     26 N16         1.1170    1.0540   -1.4170 N.pl3     1 C3V        -0.2732
     27 N26         5.7900    1.6420   -2.8440 N.am      1 C3V        -0.2168
     28 N6         -2.6850    7.6160    0.6900 N.2       1 C3V        -0.2161
     29 O28         7.7270    2.0780   -3.9840 O.2       1 C3V        -0.3767
     30 S29         5.4520    1.6990   -5.3360 S.3       1 C3V         0.0167
     31 H1         -0.7846    7.2917   -0.1901 H         1 C3V         0.0660
     32 H2          1.0207    3.4145   -2.6483 H         1 C3V         0.0441
     33 H3         -1.8938    3.0950    1.3554 H         1 C3V         0.0467
     34 H4         -1.3413    6.1544   -2.2882 H         1 C3V         0.1169
     35 H5         -3.8756    4.5373    0.9741 H         1 C3V         0.0984
     36 H6         -4.9779    8.1870    1.8722 H         1 C3V         0.0605
     37 H7         -5.0338    6.6009    2.7135 H         1 C3V         0.0605
     38 H8         -5.7841    6.7843    1.0918 H         1 C3V         0.0605
     39 H9          1.5540   -0.9751   -1.1414 H         1 C3V         0.0560
     40 H10         1.9739    0.0976    0.2369 H         1 C3V         0.0560
     41 H11         0.0295   -1.3021    0.8101 H         1 C3V         0.0306
     42 H12        -0.8507   -0.7082   -0.6388 H         1 C3V         0.0306
     43 H13        -1.6118    0.6362    1.2288 H         1 C3V         0.0390
     44 H14         0.0689    0.8992    1.8058 H         1 C3V         0.0390
     45 H15         0.6782    1.0870   -4.0742 H         1 C3V         0.0392
     46 H16         2.4131    1.4524   -5.8122 H         1 C3V         0.0501
     47 H17         3.6857    1.3420   -0.9870 H         1 C3V         0.0389
     48 H18         5.6594    1.5544   -0.7226 H         1 C3V         0.0551
     49 H19         6.8335    2.7546   -1.3612 H         1 C3V         0.0551
     50 H20         7.2245    1.0020   -1.4094 H         1 C3V         0.0551
@<TRIPOS>BOND
     1    1    2 1  
     2    4    1 1  
     3    1   11 2  
     4    2   28 2  
     5    7    3 ar 
     6    3    8 ar 
     7    5    4 ar 
     8    8    4 ar 
     9    6    5 ar 
    10    7    6 ar 
    11    6   15 1  
    12   26    7 1  
    13    8    9 1  
    14    9   24 1  
    15    9   25 1  
    16   11   10 1  
    17   10   12 1  
    18   10   28 1  
    19   13   14 1  
    20   26   13 1  
    21   14   15 1  
    22   16   17 ar 
    23   16   21 ar 
    24   16   26 1  
    25   17   18 ar 
    26   18   19 ar 
    27   19   20 ar 
    28   19   30 1  
    29   20   21 ar 
    30   20   27 1  
    31   27   22 am 
    32   22   29 2  
    33   22   30 1  
    34   27   23 1  
    35    2   31 1  
    36    3   32 1  
    37    5   33 1  
    38    9   34 1  
    39   11   35 1  
    40   12   36 1  
    41   12   37 1  
    42   12   38 1  
    43   13   39 1  
    44   13   40 1  
    45   14   41 1  
    46   14   42 1  
    47   15   43 1  
    48   15   44 1  
    49   17   45 1  
    50   18   46 1  
    51   21   47 1  
    52   23   48 1  
    53   23   49 1  
    54   23   50 1  
@<TRIPOS>SUBSTRUCTURE
     1 C3V         1

