### 
### Created by X-TOOL on Mon Sep 10 21:13:31 2018
### 

@<TRIPOS>MOLECULE
6ayd_ligand
   35    38     1     0     0
SMALL
GAST_HUCK


@<TRIPOS>ATOM
      1 C1        -15.6920  -33.9570   -3.9670 C.ar      1 C2J         0.0894
      2 C2        -15.9810  -35.2740   -4.2960 C.ar      1 C2J        -0.0314
      3 C3        -16.8970  -35.9940   -3.5330 C.ar      1 C2J        -0.0616
      4 C4        -17.5690  -35.3930   -2.4520 C.ar      1 C2J        -0.0280
      5 C5        -17.2640  -34.0740   -2.1120 C.ar      1 C2J        -0.0616
      6 C6        -16.3300  -33.3640   -2.8690 C.ar      1 C2J        -0.0314
      7 C7        -18.5350  -36.2230   -1.6540 C.ar      1 C2J        -0.0252
      8 C8        -18.5960  -36.0560   -0.2480 C.ar      1 C2J        -0.0552
      9 C11       -21.2520  -38.8030    0.4130 C.2       1 C2J         0.2650
     10 O1        -14.7660  -33.2720   -4.7190 O.3       1 C2J        -0.3319
     11 C9        -19.4630  -36.8330    0.5300 C.ar      1 C2J        -0.0406
     12 C10       -20.2730  -37.8250   -0.0650 C.ar      1 C2J         0.0756
     13 N1        -21.6630  -39.0220    1.7790 N.am      1 C2J        -0.1587
     14 C12       -20.6800  -39.0650    2.8310 C.2       1 C2J         0.2501
     15 O2        -19.4950  -38.9260    2.6120 O.2       1 C2J        -0.3716
     16 C13       -20.9850  -39.3040    4.2570 C.2       1 C2J         0.0456
     17 C14       -20.9260  -38.8950    5.5800 C.2       1 C2J        -0.0494
     18 C15       -21.3140  -40.2020    5.2340 C.3       1 C2J         0.0118
     19 N2        -21.6810  -39.4670   -0.6600 N.pl3     1 C2J        -0.2598
     20 N3        -21.0880  -39.0250   -1.7470 N.2       1 C2J        -0.4514
     21 C16       -20.2170  -38.0180   -1.4540 C.ar      1 C2J        -0.0577
     22 C17       -19.3480  -37.2150   -2.2450 C.ar      1 C2J        -0.0618
     23 H1        -15.4949  -35.7411   -5.1449 H         1 C2J         0.0548
     24 H2        -17.0952  -37.0319   -3.7750 H         1 C2J         0.0601
     25 H3        -17.7497  -33.6034   -1.2648 H         1 C2J         0.0601
     26 H4        -16.0950  -32.3396   -2.6037 H         1 C2J         0.0548
     27 H5        -17.9635  -35.3175    0.2312 H         1 C2J         0.0609
     28 H6        -15.1737  -32.5013   -5.0961 H         1 C2J         0.2490
     29 H7        -19.5130  -36.6713    1.6007 H         1 C2J         0.0630
     30 H8        -22.6316  -39.1441    1.9955 H         1 C2J         0.2681
     31 H9        -20.7272  -38.1305    6.3296 H         1 C2J         0.0819
     32 H10       -20.6466  -41.0493    5.4498 H         1 C2J         0.0404
     33 H11       -22.3600  -40.5173    5.3618 H         1 C2J         0.0404
     34 H12       -22.3808  -40.2225   -0.6404 H         1 C2J         0.2460
     35 H13       -19.3096  -37.3672   -3.3176 H         1 C2J         0.0603
@<TRIPOS>BOND
     1    2    1 ar 
     2    6    1 ar 
     3    1   10 1  
     4    3    2 ar 
     5    4    3 ar 
     6    4    5 ar 
     7    7    4 1  
     8    5    6 ar 
     9    8    7 ar 
    10    7   22 ar 
    11   11    8 ar 
    12   12    9 2  
    13    9   13 1  
    14    9   19 1  
    15   11   12 ar 
    16   12   21 ar 
    17   13   14 am 
    18   14   15 2  
    19   14   16 1  
    20   16   17 2  
    21   16   18 1  
    22   17   18 1  
    23   19   20 1  
    24   20   21 2  
    25   21   22 ar 
    26    2   23 1  
    27    3   24 1  
    28    5   25 1  
    29    6   26 1  
    30    8   27 1  
    31   10   28 1  
    32   11   29 1  
    33   13   30 1  
    34   17   31 1  
    35   18   32 1  
    36   18   33 1  
    37   19   34 1  
    38   22   35 1  
@<TRIPOS>SUBSTRUCTURE
     1 C2J         1

