### 
### Created by X-TOOL on Mon Sep 10 21:13:32 2018
### 

@<TRIPOS>MOLECULE
6ayh_ligand
   34    35     1     0     0
SMALL
GAST_HUCK


@<TRIPOS>ATOM
      1 C10        23.9460   16.7870   18.3780 C.2       1 C3G         0.0664
      2 C15        23.6010   16.3850   13.3960 C.ar      1 C3G        -0.0239
      3 C17        23.5710   17.4530   11.2170 C.ar      1 C3G         0.1882
      4 C02        20.0720   15.8630   17.8890 C.3       1 C3G         0.1160
      5 C03        20.2170   15.2620   16.4460 C.3       1 C3G         0.1390
      6 C05        21.3320   16.0220   15.6190 C.3       1 C3G         0.2127
      7 C07        22.4660   16.7450   17.6390 C.3       1 C3G         0.1424
      8 C08        21.4790   15.9980   18.5970 C.3       1 C3G         0.1214
      9 C14        22.2240   16.0590   13.3130 C.ar      1 C3G         0.1016
     10 C16        24.2730   17.0660   12.3750 C.ar      1 C3G        -0.0271
     11 C18        22.2040   17.1520   11.0920 C.ar      1 C3G        -0.0271
     12 C19        21.5420   16.4690   12.1230 C.ar      1 C3G        -0.0239
     13 N20        24.2470   18.1780   10.0960 N.2       1 C3G         0.3062
     14 O01        19.2450   15.0230   18.6600 O.3       1 C3G        -0.3863
     15 O04        19.0350   15.4650   15.7070 O.3       1 C3G        -0.3837
     16 O06        22.5080   16.0840   16.3570 O.3       1 C3G        -0.3243
     17 O09        21.2970   16.7370   19.7770 O.3       1 C3G        -0.3848
     18 O11        24.8950   16.5090   17.6250 O.co2     1 C3G        -0.5662
     19 O12        23.9790   17.0800   19.5740 O.co2     1 C3G        -0.5662
     20 O13        21.5620   15.3860   14.3160 O.3       1 C3G        -0.2804
     21 O21        23.6630   18.5470    9.1130 O.2       1 C3G         0.1732
     22 O22        25.4500   18.3710   10.2320 O.2       1 C3G         0.1732
     23 H1         24.1535   16.0962   14.2828 H         1 C3G         0.0561
     24 H2         19.6121   16.8595   17.8159 H         1 C3G         0.0649
     25 H3         20.4521   14.1899   16.5186 H         1 C3G         0.0675
     26 H4         20.9840   17.0497   15.4379 H         1 C3G         0.0997
     27 H5         22.1152   17.7763   17.4862 H         1 C3G         0.0794
     28 H6         21.8791   15.0018   18.8368 H         1 C3G         0.0665
     29 H7         25.3280   17.2944   12.4747 H         1 C3G         0.0666
     30 H8         21.6622   17.4470   10.2007 H         1 C3G         0.0666
     31 H9         20.4866   16.2459   12.0159 H         1 C3G         0.0561
     32 H10        18.3983   14.9396   18.2374 H         1 C3G         0.2100
     33 H11        18.8584   16.3963   15.6437 H         1 C3G         0.2101
     34 H12        22.1336   16.8450   20.2139 H         1 C3G         0.2102
@<TRIPOS>BOND
     1    7    1 1  
     2    1   18 ar 
     3    1   19 ar 
     4    9    2 ar 
     5    2   10 ar 
     6   10    3 ar 
     7    3   11 ar 
     8    3   13 1  
     9    5    4 1  
    10    4    8 1  
    11    4   14 1  
    12    6    5 1  
    13    5   15 1  
    14    6   16 1  
    15   20    6 1  
    16    7    8 1  
    17   16    7 1  
    18    8   17 1  
    19    9   12 ar 
    20    9   20 1  
    21   11   12 ar 
    22   13   21 2  
    23   13   22 2  
    24    2   23 1  
    25    4   24 1  
    26    5   25 1  
    27    6   26 1  
    28    7   27 1  
    29    8   28 1  
    30   10   29 1  
    31   11   30 1  
    32   12   31 1  
    33   14   32 1  
    34   15   33 1  
    35   17   34 1  
@<TRIPOS>SUBSTRUCTURE
     1 C3G         1

