### 
### Created by X-TOOL on Mon Sep 10 21:13:32 2018
### 

@<TRIPOS>MOLECULE
6ayi_ligand
   34    35     1     0     0
SMALL
GAST_HUCK


@<TRIPOS>ATOM
      1 C10        53.4770   45.0190  164.8600 C.2       1 C3G         0.0664
      2 C15        55.5040   40.5750  166.4010 C.ar      1 C3G        -0.0239
      3 C17        55.4910   38.2680  165.7200 C.ar      1 C3G         0.1882
      4 C02        51.1490   44.0190  167.7240 C.3       1 C3G         0.1160
      5 C03        52.0600   43.0500  168.3440 C.3       1 C3G         0.1390
      6 C05        52.8230   42.2070  167.2930 C.3       1 C3G         0.2127
      7 C07        52.6290   44.0800  165.6990 C.3       1 C3G         0.1424
      8 C08        51.8680   44.9020  166.7690 C.3       1 C3G         0.1214
      9 C14        54.3950   40.3370  167.2640 C.ar      1 C3G         0.1016
     10 C16        56.0350   39.5270  165.6360 C.ar      1 C3G        -0.0271
     11 C18        54.3740   38.0210  166.5910 C.ar      1 C3G        -0.0271
     12 C19        53.8450   39.0580  167.3510 C.ar      1 C3G        -0.0239
     13 N20        56.0380   37.2090  164.9380 N.2       1 C3G         0.3062
     14 O01        50.5300   44.8420  168.7770 O.3       1 C3G        -0.3863
     15 O04        51.2970   42.1500  169.2120 O.3       1 C3G        -0.3837
     16 O06        53.5050   43.0560  166.2870 O.3       1 C3G        -0.3243
     17 O09        50.9410   45.7290  166.1360 O.3       1 C3G        -0.3848
     18 O11        52.9920   46.0770  164.4280 O.co2     1 C3G        -0.5662
     19 O12        54.7320   44.7030  164.5860 O.co2     1 C3G        -0.5662
     20 O13        53.8650   41.3890  168.0440 O.3       1 C3G        -0.2804
     21 O21        57.0790   37.4920  163.9560 O.2       1 C3G         0.1732
     22 O22        55.6600   36.1280  165.0840 O.2       1 C3G         0.1732
     23 H1         55.9370   41.5666  166.3361 H         1 C3G         0.0561
     24 H2         50.3637   43.4727  167.1810 H         1 C3G         0.0649
     25 H3         52.7937   43.6004  168.9512 H         1 C3G         0.0675
     26 H4         52.1177   41.5376  166.7788 H         1 C3G         0.0997
     27 H5         51.8915   43.5812  165.0531 H         1 C3G         0.0794
     28 H6         52.5895   45.5185  167.3251 H         1 C3G         0.0665
     29 H7         56.8761   39.7102  164.9772 H         1 C3G         0.0666
     30 H8         53.9449   37.0276  166.6550 H         1 C3G         0.0666
     31 H9         53.0053   38.8727  168.0110 H         1 C3G         0.0561
     32 H10        50.0700   44.2787  169.3882 H         1 C3G         0.2100
     33 H11        50.8259   42.6607  169.8599 H         1 C3G         0.2101
     34 H12        51.3952   46.3172  165.5441 H         1 C3G         0.2102
@<TRIPOS>BOND
     1    7    1 1  
     2    1   18 ar 
     3    1   19 ar 
     4    9    2 ar 
     5    2   10 ar 
     6   10    3 ar 
     7    3   11 ar 
     8    3   13 1  
     9    5    4 1  
    10    4    8 1  
    11    4   14 1  
    12    6    5 1  
    13    5   15 1  
    14    6   16 1  
    15   20    6 1  
    16    7    8 1  
    17   16    7 1  
    18    8   17 1  
    19    9   12 ar 
    20    9   20 1  
    21   11   12 ar 
    22   13   21 2  
    23   13   22 2  
    24    2   23 1  
    25    4   24 1  
    26    5   25 1  
    27    6   26 1  
    28    7   27 1  
    29    8   28 1  
    30   10   29 1  
    31   11   30 1  
    32   12   31 1  
    33   14   32 1  
    34   15   33 1  
    35   17   34 1  
@<TRIPOS>SUBSTRUCTURE
     1 C3G         1

