### 
### Created by X-TOOL on Wed Jan  1 15:39:36 2020
### 

@<TRIPOS>MOLECULE
6ayo_ligand
   42    44     1     0     0
SMALL
GAST_HUCK


@<TRIPOS>ATOM
      1 C4        -31.7660    8.3470   94.6880 C.ar      1 C1Y         0.0483
      2 C5        -32.2620    9.5450   94.0330 C.ar      1 C1Y         0.1304
      3 C6        -31.9840   10.8090   94.7310 C.ar      1 C1Y         0.1459
      4 C10       -31.8780    5.7470   93.9840 C.3       1 C1Y        -0.0117
      5 C20       -35.0470    6.3220   97.2000 C.3       1 C1Y        -0.0431
      6 C21       -36.5780    6.4480   97.0540 C.3       1 C1Y        -0.0554
      7 C8        -32.8070    7.8130   92.7610 C.2       1 C1Y         0.0326
      8 C22       -37.3640    6.3340   98.3510 C.3       1 C1Y        -0.0653
      9 O3'       -33.0110    3.1510   97.1440 O.3       1 C1Y        -0.3861
     10 C3'       -33.1700    4.5760   97.2090 C.3       1 C1Y         0.1025
     11 C2'       -32.0750    5.2040   96.3840 C.3       1 C1Y        -0.0040
     12 N1'       -32.6110    5.0220   95.0200 N.4       1 C1Y         0.2442
     13 C1'       -34.0820    5.2460   95.0870 C.3       1 C1Y        -0.0256
     14 C4'       -34.4620    5.0500   96.5550 C.3       1 C1Y         0.0301
     15 C9        -32.1530    7.2230   93.8310 C.2       1 C1Y         0.0166
     16 N3        -31.0970    8.3960   95.8660 N.ar      1 C1Y        -0.3132
     17 N7        -32.8740    9.1690   92.9080 N.pl3     1 C1Y        -0.2768
     18 N6        -32.3990   11.9790   94.2030 N.pl3     1 C1Y        -0.3157
     19 N1        -31.3140   10.7530   95.9100 N.ar      1 C1Y        -0.2741
     20 C2        -30.8850    9.5880   96.4410 C.ar      1 C1Y         0.0439
     21 H1        -32.1105    5.2683   93.0213 H         1 C1Y         0.0901
     22 H2        -30.8055    5.6336   94.2003 H         1 C1Y         0.0901
     23 H3        -34.8007    6.3116   98.2720 H         1 C1Y         0.0270
     24 H4        -34.5803    7.1975   96.7250 H         1 C1Y         0.0270
     25 H5        -36.9219    5.6523   96.3768 H         1 C1Y         0.0263
     26 H6        -36.7977    7.4293   96.6082 H         1 C1Y         0.0263
     27 H7        -33.2149    7.2658   91.9124 H         1 C1Y         0.0886
     28 H8        -38.4384    6.4367   98.1388 H         1 C1Y         0.0230
     29 H9        -37.0490    7.1299   99.0418 H         1 C1Y         0.0230
     30 H10       -37.1732    5.3529   98.8104 H         1 C1Y         0.0230
     31 H11       -32.1595    2.9123   97.4912 H         1 C1Y         0.2100
     32 H12       -33.1247    4.9086   98.2565 H         1 C1Y         0.0651
     33 H13       -31.1179    4.6781   96.5155 H         1 C1Y         0.0840
     34 H14       -31.9450    6.2686   96.6283 H         1 C1Y         0.0840
     35 H15       -32.4870    4.0487   94.7891 H         1 C1Y         0.2042
     36 H16       -34.6103    4.5185   94.4533 H         1 C1Y         0.0818
     37 H17       -34.3303    6.2662   94.7592 H         1 C1Y         0.0818
     38 H18       -35.2216    4.2583   96.6338 H         1 C1Y         0.0380
     39 H19       -33.3318    9.8105   92.2449 H         1 C1Y         0.2266
     40 H20       -32.2034   12.8634   94.6933 H         1 C1Y         0.1805
     41 H21       -32.9115   11.9879   93.3096 H         1 C1Y         0.1805
     42 H22       -30.3422    9.6183   97.3788 H         1 C1Y         0.0956
@<TRIPOS>BOND
     1    1    2 ar 
     2   15    1 1  
     3    1   16 ar 
     4    2    3 ar 
     5   17    2 1  
     6    3   18 1  
     7    3   19 ar 
     8   12    4 1  
     9    4   15 1  
    10    5    6 1  
    11   14    5 1  
    12    6    8 1  
    13   15    7 2  
    14    7   17 1  
    15   10    9 1  
    16   11   10 1  
    17   10   14 1  
    18   11   12 1  
    19   12   13 1  
    20   13   14 1  
    21   16   20 ar 
    22   19   20 ar 
    23    4   21 1  
    24    4   22 1  
    25    5   23 1  
    26    5   24 1  
    27    6   25 1  
    28    6   26 1  
    29    7   27 1  
    30    8   28 1  
    31    8   29 1  
    32    8   30 1  
    33    9   31 1  
    34   10   32 1  
    35   11   33 1  
    36   11   34 1  
    37   12   35 1  
    38   13   36 1  
    39   13   37 1  
    40   14   38 1  
    41   17   39 1  
    42   18   40 1  
    43   18   41 1  
    44   20   42 1  
@<TRIPOS>SUBSTRUCTURE
     1 C1Y         1

