### 
### Created by X-TOOL on Wed Jan  1 15:39:35 2020
### 

@<TRIPOS>MOLECULE
6ayq_ligand
   40    42     1     0     0
SMALL
GAST_HUCK


@<TRIPOS>ATOM
      1 C2         13.9720  -10.3520   31.9200 C.ar      1 TDI         0.0439
      2 C4         14.7350   -9.1130   30.1510 C.ar      1 TDI         0.0483
      3 C5         15.2520  -10.3110   29.5120 C.ar      1 TDI         0.1304
      4 C6         15.0320  -11.5720   30.2110 C.ar      1 TDI         0.1459
      5 CS5        20.3690   -6.7800   33.1720 C.3       1 TDI        -0.0181
      6 S          18.7650   -7.3500   33.6550 S.3       1 TDI        -0.1636
      7 C5'        17.9200   -7.2200   32.1030 C.3       1 TDI         0.0036
      8 C4'        17.4510   -5.7970   31.7530 C.3       1 TDI         0.0391
      9 C1'        16.9480   -5.7040   30.3190 C.3       1 TDI        -0.0248
     10 N1'        15.5420   -6.0220   30.4860 N.4       1 TDI         0.2442
     11 C10        14.7390   -6.5090   29.4020 C.3       1 TDI        -0.0117
     12 C9         15.0550   -7.9810   29.2740 C.2       1 TDI         0.0166
     13 C8         15.7060   -8.5710   28.2020 C.2       1 TDI         0.0326
     14 N7         15.8260   -9.9200   28.3610 N.pl3     1 TDI        -0.2768
     15 N6         15.4540  -12.7420   29.6990 N.pl3     1 TDI        -0.3157
     16 N1         14.4100  -11.5270   31.4040 N.ar      1 TDI        -0.2741
     17 N3         14.1120   -9.1490   31.3470 N.ar      1 TDI        -0.3132
     18 C2'        15.0690   -5.9160   31.8620 C.3       1 TDI        -0.0040
     19 C3'        16.2610   -5.3230   32.5740 C.3       1 TDI         0.1032
     20 O3'        16.1450   -3.9070   32.4870 O.3       1 TDI        -0.3860
     21 H1         13.4654  -10.3892   32.8776 H         1 TDI         0.0956
     22 H2         21.0414   -6.7966   34.0424 H         1 TDI         0.0340
     23 H3         20.2925   -5.7523   32.7873 H         1 TDI         0.0340
     24 H4         20.7703   -7.4368   32.3861 H         1 TDI         0.0340
     25 H5         17.0370   -7.8751   32.1359 H         1 TDI         0.0382
     26 H6         18.6014   -7.5625   31.3103 H         1 TDI         0.0382
     27 H7         18.2993   -5.1126   31.9012 H         1 TDI         0.0388
     28 H8         17.4509   -6.4345   29.6683 H         1 TDI         0.0818
     29 H9         17.0855   -4.6924   29.9095 H         1 TDI         0.0818
     30 H10        15.2607   -5.0764   30.2793 H         1 TDI         0.2042
     31 H11        14.9942   -5.9816   28.4710 H         1 TDI         0.0901
     32 H12        13.6711   -6.3658   29.6237 H         1 TDI         0.0901
     33 H13        16.0770   -8.0232   27.3370 H         1 TDI         0.0886
     34 H14        16.2912  -10.5509   27.6929 H         1 TDI         0.2266
     35 H15        15.2864  -13.6191   30.2123 H         1 TDI         0.1805
     36 H16        15.9448  -12.7608   28.7936 H         1 TDI         0.1805
     37 H17        14.8130   -6.9044   32.2714 H         1 TDI         0.0840
     38 H18        14.1943   -5.2526   31.9315 H         1 TDI         0.0840
     39 H19        16.3295   -5.6521   33.6214 H         1 TDI         0.0652
     40 H20        15.3365   -3.6305   32.9023 H         1 TDI         0.2100
@<TRIPOS>BOND
     1    1   16 ar 
     2   17    1 ar 
     3    2    3 ar 
     4   12    2 1  
     5    2   17 ar 
     6    3    4 ar 
     7    3   14 1  
     8    4   15 1  
     9    4   16 ar 
    10    6    5 1  
    11    7    6 1  
    12    8    7 1  
    13    9    8 1  
    14    8   19 1  
    15   10    9 1  
    16   11   10 1  
    17   10   18 1  
    18   11   12 1  
    19   12   13 2  
    20   13   14 1  
    21   18   19 1  
    22   19   20 1  
    23    1   21 1  
    24    5   22 1  
    25    5   23 1  
    26    5   24 1  
    27    7   25 1  
    28    7   26 1  
    29    8   27 1  
    30    9   28 1  
    31    9   29 1  
    32   10   30 1  
    33   11   31 1  
    34   11   32 1  
    35   13   33 1  
    36   14   34 1  
    37   15   35 1  
    38   15   36 1  
    39   18   37 1  
    40   18   38 1  
    41   19   39 1  
    42   20   40 1  
@<TRIPOS>SUBSTRUCTURE
     1 TDI         1

