### 
### Created by X-TOOL on Wed Jan  1 15:39:38 2020
### 

@<TRIPOS>MOLECULE
6ayr_ligand
   49    51     1     0     0
SMALL
GAST_HUCK


@<TRIPOS>ATOM
      1 C2         67.9330   18.6050   38.2600 C.ar      1 BIG         0.0439
      2 C5         65.2120   18.6630   38.8030 C.ar      1 BIG         0.1304
      3 C4         66.0260   17.4520   38.9330 C.ar      1 BIG         0.0483
      4 C8         63.8900   17.0290   39.5090 C.2       1 BIG         0.0326
      5 O3'        67.6910   13.4180   42.8010 O.3       1 BIG        -0.3860
      6 C3'        67.8410   14.7700   42.3660 C.3       1 BIG         0.1032
      7 C4'        66.7450   15.5910   42.9970 C.3       1 BIG         0.0391
      8 C5'        66.9180   17.1030   42.9110 C.3       1 BIG         0.0039
      9 S5'        68.0890   17.6760   44.0900 S.3       1 BIG        -0.1602
     10 C20        67.1200   17.7520   45.5660 C.3       1 BIG        -0.0063
     11 C21        67.9730   18.1420   46.7600 C.3       1 BIG        -0.0442
     12 C22        67.0840   18.4320   47.9650 C.3       1 BIG        -0.0552
     13 C23        67.9390   18.7950   49.1590 C.3       1 BIG        -0.0653
     14 C1'        65.5220   15.1410   42.1990 C.3       1 BIG        -0.0248
     15 N1'        66.0480   14.5510   40.9520 N.4       1 BIG         0.2442
     16 C2'        67.5210   14.7880   40.8990 C.3       1 BIG        -0.0040
     17 C10        65.3550   14.9200   39.7210 C.3       1 BIG        -0.0117
     18 N7         63.9530   18.3380   39.1440 N.pl3     1 BIG        -0.2768
     19 C6         65.9300   19.8780   38.3220 C.ar      1 BIG         0.1459
     20 N6         65.3050   21.0600   38.1370 N.pl3     1 BIG        -0.3157
     21 N3         67.3580   17.4570   38.6700 N.ar      1 BIG        -0.3132
     22 C9         65.1300   16.3880   39.4230 C.2       1 BIG         0.0166
     23 N1         67.2520   19.7660   38.0840 N.ar      1 BIG        -0.2741
     24 H1         68.9983   18.6009   38.0597 H         1 BIG         0.0956
     25 H2         62.9751   16.5348   39.8324 H         1 BIG         0.0886
     26 H3         68.3742   12.8840   42.4129 H         1 BIG         0.2100
     27 H4         68.8432   15.1654   42.5880 H         1 BIG         0.0652
     28 H5         66.6410   15.3198   44.0579 H         1 BIG         0.0388
     29 H6         65.9490   17.5867   43.1033 H         1 BIG         0.0382
     30 H7         67.2660   17.3677   41.9016 H         1 BIG         0.0382
     31 H8         66.6709   16.7653   45.7523 H         1 BIG         0.0376
     32 H9         66.3230   18.4987   45.4346 H         1 BIG         0.0376
     33 H10        68.5559   19.0415   46.5128 H         1 BIG         0.0273
     34 H11        68.6580   17.3165   47.0033 H         1 BIG         0.0273
     35 H12        66.4873   17.5388   48.2016 H         1 BIG         0.0263
     36 H13        66.4118   19.2702   47.7293 H         1 BIG         0.0263
     37 H14        67.2918   19.0027   50.0238 H         1 BIG         0.0230
     38 H15        68.5357   19.6888   48.9246 H         1 BIG         0.0230
     39 H16        68.6112   17.9574   49.3969 H         1 BIG         0.0230
     40 H17        64.8752   16.0013   41.9722 H         1 BIG         0.0818
     41 H18        64.9500   14.3914   42.7655 H         1 BIG         0.0818
     42 H19        65.9189   13.5550   41.0382 H         1 BIG         0.2042
     43 H20        68.0442   13.9863   40.3572 H         1 BIG         0.0840
     44 H21        67.7620   15.7584   40.4405 H         1 BIG         0.0840
     45 H22        64.3654   14.4407   39.7508 H         1 BIG         0.0901
     46 H23        65.9379   14.5060   38.8851 H         1 BIG         0.0901
     47 H24        63.1524   18.9859   39.1308 H         1 BIG         0.2266
     48 H25        65.8363   21.8768   37.8032 H         1 BIG         0.1805
     49 H26        64.2967   21.1451   38.3296 H         1 BIG         0.1805
@<TRIPOS>BOND
     1   21    1 ar 
     2    1   23 ar 
     3    3    2 ar 
     4   18    2 1  
     5    2   19 ar 
     6    3   21 ar 
     7   22    3 1  
     8    4   18 1  
     9   22    4 2  
    10    6    5 1  
    11    6    7 1  
    12   16    6 1  
    13    7    8 1  
    14   14    7 1  
    15    8    9 1  
    16    9   10 1  
    17   10   11 1  
    18   11   12 1  
    19   12   13 1  
    20   15   14 1  
    21   15   16 1  
    22   17   15 1  
    23   17   22 1  
    24   19   20 1  
    25   19   23 ar 
    26    1   24 1  
    27    4   25 1  
    28    5   26 1  
    29    6   27 1  
    30    7   28 1  
    31    8   29 1  
    32    8   30 1  
    33   10   31 1  
    34   10   32 1  
    35   11   33 1  
    36   11   34 1  
    37   12   35 1  
    38   12   36 1  
    39   13   37 1  
    40   13   38 1  
    41   13   39 1  
    42   14   40 1  
    43   14   41 1  
    44   15   42 1  
    45   16   43 1  
    46   16   44 1  
    47   17   45 1  
    48   17   46 1  
    49   18   47 1  
    50   20   48 1  
    51   20   49 1  
@<TRIPOS>SUBSTRUCTURE
     1 BIG         1

