### 
### Created by X-TOOL on Mon Aug  2 16:12:38 2021
### 

@<TRIPOS>MOLECULE
6ays_ligand
   55    57     1     0     0
SMALL
GAST_HUCK


@<TRIPOS>ATOM
      1 O3A       -27.0510   24.3720    3.5260 O.3       1 HT6        -0.3860
      2 C3A       -27.0000   24.4900    4.9590 C.3       1 HT6         0.1032
      3 C4A       -25.9010   25.4280    5.4050 C.3       1 HT6         0.0391
      4 C5A       -26.1620   26.0190    6.8000 C.3       1 HT6         0.0039
      5 S5A       -27.3900   27.2860    6.7990 S.3       1 HT6        -0.1602
      6 C20       -26.4750   28.6720    6.1880 C.3       1 HT6        -0.0063
      7 C21       -27.2540   29.9740    6.2640 C.3       1 HT6        -0.0440
      8 C22       -26.2850   31.1380    6.1040 C.3       1 HT6        -0.0523
      9 C23       -27.0170   32.4760    6.0860 C.3       1 HT6        -0.0533
     10 C24       -26.0260   33.6330    6.2080 C.3       1 HT6        -0.0559
     11 C25       -26.7310   34.9760    6.2070 C.3       1 HT6        -0.0653
     12 C2A       -26.6110   23.1810    5.5770 C.3       1 HT6        -0.0040
     13 N1A       -25.1570   23.1640    5.3480 N.4       1 HT6         0.2442
     14 C1A       -24.6510   24.5540    5.4040 C.3       1 HT6        -0.0248
     15 C10       -24.4620   22.1900    6.1840 C.3       1 HT6        -0.0117
     16 C9        -24.2040   22.5280    7.6340 C.2       1 HT6         0.0166
     17 C4        -25.1220   22.4890    8.7740 C.ar      1 HT6         0.0483
     18 N3        -26.4420   22.1960    8.8610 N.ar      1 HT6        -0.3132
     19 C2        -27.0430   22.2410   10.0390 C.ar      1 HT6         0.0439
     20 N1        -26.4030   22.5960   11.1750 N.ar      1 HT6        -0.2741
     21 C6        -25.0900   22.8790   11.2070 C.ar      1 HT6         0.1459
     22 N6        -24.4750   23.2120   12.3730 N.pl3     1 HT6        -0.3157
     23 C5        -24.3430   22.8550    9.9420 C.ar      1 HT6         0.1304
     24 N7        -23.0870   23.0890    9.5380 N.pl3     1 HT6        -0.2768
     25 C8        -22.9780   22.8890    8.1870 C.2       1 HT6         0.0326
     26 H1        -27.7506   23.7770    3.2831 H         1 HT6         0.2100
     27 H2        -27.9776   24.8286    5.3328 H         1 HT6         0.0652
     28 H3        -25.7928   26.2536    4.6862 H         1 HT6         0.0388
     29 H4        -25.2217   26.4437    7.1814 H         1 HT6         0.0382
     30 H5        -26.4954   25.2095    7.4660 H         1 HT6         0.0382
     31 H6        -26.2101   28.4822    5.1374 H         1 HT6         0.0376
     32 H7        -25.5568   28.7770    6.7845 H         1 HT6         0.0376
     33 H8        -27.7596   30.0456    7.2383 H         1 HT6         0.0273
     34 H9        -28.0031   30.0038    5.4591 H         1 HT6         0.0273
     35 H10       -25.7356   31.0184    5.1586 H         1 HT6         0.0266
     36 H11       -25.5751   31.1302    6.9442 H         1 HT6         0.0266
     37 H12       -27.7222   32.5137    6.9294 H         1 HT6         0.0265
     38 H13       -27.5707   32.5725    5.1404 H         1 HT6         0.0265
     39 H14       -25.3280   33.5959    5.3587 H         1 HT6         0.0263
     40 H15       -25.4655   33.5251    7.1483 H         1 HT6         0.0263
     41 H16       -25.9866   35.7809    6.2961 H         1 HT6         0.0230
     42 H17       -27.4276   35.0251    7.0569 H         1 HT6         0.0230
     43 H18       -27.2900   35.0960    5.2673 H         1 HT6         0.0230
     44 H19       -27.1061   22.3372    5.0742 H         1 HT6         0.0840
     45 H20       -26.8481   23.1582    6.6509 H         1 HT6         0.0840
     46 H21       -25.0146   22.8518    4.4002 H         1 HT6         0.2042
     47 H22       -24.0652   24.7157    6.3208 H         1 HT6         0.0818
     48 H23       -24.0260   24.7738    4.5259 H         1 HT6         0.0818
     49 H24       -23.4840   22.0023    5.7168 H         1 HT6         0.0901
     50 H25       -25.0590   21.2663    6.1687 H         1 HT6         0.0901
     51 H26       -28.0941   21.9819   10.0952 H         1 HT6         0.0956
     52 H27       -23.4676   23.4263   12.3810 H         1 HT6         0.1805
     53 H28       -25.0166   23.2500   13.2483 H         1 HT6         0.1805
     54 H29       -22.3143   23.3778   10.1547 H         1 HT6         0.2266
     55 H30       -22.0544   22.9980    7.6204 H         1 HT6         0.0886
@<TRIPOS>BOND
     1    1    2 1  
     2    2    3 1  
     3    2   12 1  
     4    3    4 1  
     5    3   14 1  
     6    4    5 1  
     7    5    6 1  
     8    6    7 1  
     9    7    8 1  
    10    8    9 1  
    11    9   10 1  
    12   10   11 1  
    13   12   13 1  
    14   13   14 1  
    15   13   15 1  
    16   15   16 1  
    17   16   17 1  
    18   16   25 2  
    19   17   18 ar 
    20   17   23 ar 
    21   18   19 ar 
    22   19   20 ar 
    23   20   21 ar 
    24   21   22 1  
    25   21   23 ar 
    26   23   24 1  
    27   24   25 1  
    28    1   26 1  
    29    2   27 1  
    30    3   28 1  
    31    4   29 1  
    32    4   30 1  
    33    6   31 1  
    34    6   32 1  
    35    7   33 1  
    36    7   34 1  
    37    8   35 1  
    38    8   36 1  
    39    9   37 1  
    40    9   38 1  
    41   10   39 1  
    42   10   40 1  
    43   11   41 1  
    44   11   42 1  
    45   11   43 1  
    46   12   44 1  
    47   12   45 1  
    48   13   46 1  
    49   14   47 1  
    50   14   48 1  
    51   15   49 1  
    52   15   50 1  
    53   19   51 1  
    54   22   52 1  
    55   22   53 1  
    56   24   54 1  
    57   25   55 1  
@<TRIPOS>SUBSTRUCTURE
     1 HT6         1

