### 
### Created by X-TOOL on Mon Aug  2 16:12:39 2021
### 

@<TRIPOS>MOLECULE
6ayt_ligand
   45    48     1     0     0
SMALL
GAST_HUCK


@<TRIPOS>ATOM
      1 O3'       -14.2390   -3.7070   36.7450 O.3       1 MOL        -0.3860
      2 C3'       -14.5780   -5.1010   36.6440 C.3       1 MOL         0.1034
      3 C4'       -14.4200   -5.8710   37.9390 C.3       1 MOL         0.0416
      4 C5'       -15.3840   -7.0640   37.9770 C.3       1 MOL         0.0213
      5 S         -15.3010   -7.9140   39.5150 S.3       1 MOL        -0.0719
      6 C2'       -13.5510   -5.7490   35.7490 C.3       1 MOL        -0.0040
      7 N1'       -12.4110   -5.8070   36.6730 N.4       1 MOL         0.2442
      8 C1'       -12.9460   -6.2660   37.9790 C.3       1 MOL        -0.0246
      9 C10       -11.2410   -6.4800   36.1060 C.3       1 MOL        -0.0117
     10 C9        -11.1960   -7.9800   36.1640 C.2       1 MOL         0.0166
     11 C4        -12.0080   -8.9870   35.4770 C.ar      1 MOL         0.0483
     12 N3        -13.0520   -8.8290   34.6170 N.ar      1 MOL        -0.3132
     13 C2        -13.6430   -9.9180   34.1280 C.ar      1 MOL         0.0439
     14 C8        -10.2860   -8.7200   36.8990 C.2       1 MOL         0.0326
     15 N7        -10.5050  -10.0490   36.7050 N.pl3     1 MOL        -0.2768
     16 C5        -11.5380  -10.2350   35.8660 C.ar      1 MOL         0.1304
     17 C6        -12.1860  -11.3450   35.3310 C.ar      1 MOL         0.1459
     18 N1        -13.2310  -11.1560   34.4730 N.ar      1 MOL        -0.2741
     19 N6        -11.7840  -12.5960   35.6530 N.pl3     1 MOL        -0.3157
     20 C6'       -16.1380   -7.0820   40.7360 C.ar      1 MOL         0.1180
     21 C9'       -16.2160   -7.6060   42.0260 C.ar      1 MOL         0.0542
     22 N3'       -16.8760   -6.9540   42.9980 N.ar      1 MOL        -0.2783
     23 C8'       -17.4660   -5.7830   42.7290 C.ar      1 MOL         0.0344
     24 C7'       -17.3880   -5.2460   41.4440 C.ar      1 MOL         0.0343
     25 N2'       -16.7320   -5.9040   40.4710 N.ar      1 MOL        -0.2615
     26 H1        -14.3614   -3.2905   35.9001 H         1 MOL         0.2100
     27 H2        -15.5990   -5.2087   36.2492 H         1 MOL         0.0652
     28 H3        -14.6458   -5.2187   38.7954 H         1 MOL         0.0390
     29 H4        -15.1205   -7.7619   37.1687 H         1 MOL         0.0412
     30 H5        -16.4105   -6.6986   37.8259 H         1 MOL         0.0412
     31 H6        -13.3303   -5.1311   34.8662 H         1 MOL         0.0840
     32 H7        -13.8659   -6.7520   35.4252 H         1 MOL         0.0840
     33 H8        -12.1068   -4.8576   36.8220 H         1 MOL         0.2042
     34 H9        -12.8367   -7.3555   38.0842 H         1 MOL         0.0818
     35 H10       -12.4298   -5.7637   38.8104 H         1 MOL         0.0818
     36 H11       -10.3561   -6.1049   36.6411 H         1 MOL         0.0901
     37 H12       -11.1786   -6.1913   35.0464 H         1 MOL         0.0901
     38 H13       -14.4722   -9.8075   33.4386 H         1 MOL         0.0956
     39 H14        -9.5099   -8.3009   37.5377 H         1 MOL         0.0886
     40 H15        -9.9568  -10.8050   37.1396 H         1 MOL         0.2266
     41 H16       -12.2689  -13.4118   35.2527 H         1 MOL         0.1805
     42 H17       -10.9930  -12.7326   36.2984 H         1 MOL         0.1805
     43 H18       -15.7373   -8.5529   42.2478 H         1 MOL         0.0878
     44 H19       -18.0030   -5.2534   43.5077 H         1 MOL         0.0863
     45 H20       -17.8584   -4.2935   41.2282 H         1 MOL         0.0904
@<TRIPOS>BOND
     1    1    2 1  
     2    2    3 1  
     3    2    6 1  
     4    3    4 1  
     5    3    8 1  
     6    4    5 1  
     7    5   20 1  
     8    6    7 1  
     9    7    8 1  
    10    7    9 1  
    11    9   10 1  
    12   10   11 1  
    13   10   14 2  
    14   11   12 ar 
    15   11   16 ar 
    16   12   13 ar 
    17   13   18 ar 
    18   14   15 1  
    19   15   16 1  
    20   16   17 ar 
    21   17   18 ar 
    22   17   19 1  
    23   20   21 ar 
    24   20   25 ar 
    25   21   22 ar 
    26   22   23 ar 
    27   23   24 ar 
    28   24   25 ar 
    29    1   26 1  
    30    2   27 1  
    31    3   28 1  
    32    4   29 1  
    33    4   30 1  
    34    6   31 1  
    35    6   32 1  
    36    7   33 1  
    37    8   34 1  
    38    8   35 1  
    39    9   36 1  
    40    9   37 1  
    41   13   38 1  
    42   14   39 1  
    43   15   40 1  
    44   19   41 1  
    45   19   42 1  
    46   21   43 1  
    47   23   44 1  
    48   24   45 1  
@<TRIPOS>SUBSTRUCTURE
     1 MOL         1

