### 
### Created by X-TOOL on Wed Jan  1 15:39:36 2020
### 

@<TRIPOS>MOLECULE
6b0v_ligand
   52    54     1     0     0
SMALL
GAST_HUCK


@<TRIPOS>ATOM
      1 O1         -7.3750    6.1870    6.4940 O.2       1 C8G        -0.3969
      2 C2         -9.0070   13.4560   17.2320 C.ar      1 C8G         0.1065
      3 N3         -6.9820    6.6450    8.6630 N.am      1 C8G        -0.2623
      4 C4         -7.0720   10.8270   15.3710 C.3       1 C8G         0.1120
      5 C5         -7.1820   11.1290   13.8790 C.2       1 C8G         0.2002
      6 C6         -7.9400   10.3880   11.6700 C.3       1 C8G         0.0741
      7 C7         -7.4620    9.2070   10.8210 C.3       1 C8G        -0.0105
      8 C9         -6.3880    6.4340    9.9820 C.3       1 C8G         0.0787
      9 C11        -5.1270    5.9100    7.1990 C.3       1 C8G         0.0346
     10 C12        -5.0800    4.4220    6.8450 C.3       1 C8G        -0.0482
     11 C13        -8.3490    6.8490    9.1600 C.3       1 C8G         0.0787
     12 C14        -7.6670    7.6730   12.7580 C.3       1 C8G        -0.0105
     13 C16        -9.7130   11.7120   15.6470 C.ar      1 C8G        -0.0380
     14 C17       -11.0180   12.0550   15.8760 C.ar      1 C8G         0.0307
     15 CL1       -12.2560   11.0740   15.0360 Cl        1 C8G        -0.0836
     16 C         -11.3070   13.1350   16.7850 C.ar      1 C8G         0.0313
     17 CL        -13.0080   13.5000   16.9840 Cl        1 C8G        -0.0850
     18 C3         -8.6770   12.3710   16.3060 C.ar      1 C8G         0.0709
     19 O          -8.0350   14.0910   17.9330 O.3       1 C8G        -0.3385
     20 C1        -10.3340   13.7820   17.4890 C.ar      1 C8G        -0.0301
     21 N          -7.3780   12.0470   16.1130 N.pl3     1 C8G        -0.3080
     22 O2         -6.8510   12.2080   13.3980 O.2       1 C8G        -0.3947
     23 N1         -7.6340   10.1380   13.1060 N.am      1 C8G        -0.2614
     24 C15        -8.0460    8.8410   13.6600 C.3       1 C8G         0.0741
     25 N2         -7.9220    7.9050   11.3450 N.4       1 C8G         0.2431
     26 C8         -7.8300    6.6650   10.5440 C.3       1 C8G         0.0208
     27 C10        -6.5680    6.2820    7.4270 C.2       1 C8G         0.1785
     28 H1         -6.0507   10.4945   15.6083 H         1 C8G         0.0751
     29 H2         -7.7875   10.0372   15.6438 H         1 C8G         0.0751
     30 H3         -9.0259   10.5111   11.5448 H         1 C8G         0.0575
     31 H4         -7.4268   11.3040   11.3421 H         1 C8G         0.0575
     32 H5         -6.3622    9.2098   10.8017 H         1 C8G         0.0835
     33 H6         -7.8470    9.3304    9.7980 H         1 C8G         0.0835
     34 H7         -5.6454    7.1875   10.2834 H         1 C8G         0.0579
     35 H8         -5.9786    5.4272   10.1519 H         1 C8G         0.0579
     36 H9         -4.7131    6.5050    6.3716 H         1 C8G         0.0500
     37 H10        -4.5432    6.0962    8.1125 H         1 C8G         0.0500
     38 H11        -4.0368    4.1191    6.6720 H         1 C8G         0.0254
     39 H12        -5.6696    4.2430    5.9338 H         1 C8G         0.0254
     40 H13        -5.4997    3.8342    7.6747 H         1 C8G         0.0254
     41 H14        -9.0693    6.0824    8.8384 H         1 C8G         0.0579
     42 H15        -8.7623    7.8482    8.9581 H         1 C8G         0.0579
     43 H16        -8.2453    6.7919   13.0729 H         1 C8G         0.0835
     44 H17        -6.5932    7.4720   12.8864 H         1 C8G         0.0835
     45 H18        -9.4827   10.9187   14.9451 H         1 C8G         0.0487
     46 H19        -8.4271   14.7617   18.4797 H         1 C8G         0.2438
     47 H20       -10.5889   14.5311   18.2299 H         1 C8G         0.0508
     48 H21        -6.6241   12.6453   16.4799 H         1 C8G         0.1751
     49 H22        -7.5593    8.7044   14.6370 H         1 C8G         0.0575
     50 H23        -9.1381    8.8448   13.7917 H         1 C8G         0.0575
     51 H24        -8.9186    8.0560   11.3375 H         1 C8G         0.2039
     52 H25        -8.2585    5.8131   11.0923 H         1 C8G         0.0891
@<TRIPOS>BOND
     1   27    1 2  
     2   18    2 ar 
     3    2   19 1  
     4    2   20 ar 
     5    8    3 1  
     6   11    3 1  
     7    3   27 am 
     8    5    4 1  
     9    4   21 1  
    10    5   22 2  
    11   23    5 am 
    12    7    6 1  
    13    6   23 1  
    14   25    7 1  
    15   26    8 1  
    16    9   10 1  
    17   27    9 1  
    18   26   11 1  
    19   12   24 1  
    20   25   12 1  
    21   13   14 ar 
    22   18   13 ar 
    23   14   15 1  
    24   14   16 ar 
    25   16   17 1  
    26   20   16 ar 
    27   21   18 1  
    28   24   23 1  
    29   25   26 1  
    30    4   28 1  
    31    4   29 1  
    32    6   30 1  
    33    6   31 1  
    34    7   32 1  
    35    7   33 1  
    36    8   34 1  
    37    8   35 1  
    38    9   36 1  
    39    9   37 1  
    40   10   38 1  
    41   10   39 1  
    42   10   40 1  
    43   11   41 1  
    44   11   42 1  
    45   12   43 1  
    46   12   44 1  
    47   13   45 1  
    48   19   46 1  
    49   20   47 1  
    50   21   48 1  
    51   24   49 1  
    52   24   50 1  
    53   25   51 1  
    54   26   52 1  
@<TRIPOS>SUBSTRUCTURE
     1 C8G         1

