### 
### Created by X-TOOL on Wed Jan  1 15:39:35 2020
### 

@<TRIPOS>MOLECULE
6b0y_ligand
   48    51     1     0     0
SMALL
GAST_HUCK


@<TRIPOS>ATOM
      1 C13       -10.4400    9.1990   15.6660 C.ar      1 8ZG         0.0016
      2 C15       -10.7990   10.9900   17.2890 C.ar      1 8ZG        -0.0536
      3 C17       -12.8820   12.1570   17.4720 C.ar      1 8ZG        -0.0623
      4 C21        -9.9880    9.2710   14.3830 C.ar      1 8ZG         0.0539
      5 C22        -9.2000    8.3740   13.8110 C.ar      1 8ZG        -0.0264
      6 C26        -8.4120    5.6300   10.5310 C.3       1 8ZG         0.0553
      7 C28        -5.2600    3.6410    7.5810 C.3       1 8ZG        -0.0482
      8 O01        -7.7470    5.2810    7.9110 O.2       1 8ZG        -0.3969
      9 C02        -6.7680    5.2600    8.7080 C.2       1 8ZG         0.1783
     10 N03        -7.0410    5.4460   10.0100 N.am      1 8ZG        -0.2691
     11 C04        -5.9910    5.4810   11.0510 C.3       1 8ZG         0.0553
     12 C05        -6.5390    5.0530   12.3770 C.3       1 8ZG         0.0564
     13 N06        -7.4980    6.0670   12.7180 N.pl3     1 8ZG        -0.2749
     14 C07        -7.9180    6.2050   14.0110 C.ar      1 8ZG         0.1454
     15 N08        -7.4670    5.2130   14.8830 N.ar      1 8ZG        -0.2549
     16 C09        -7.9080    5.1620   16.1140 C.ar      1 8ZG         0.0596
     17 N10        -8.7000    6.1430   16.6310 N.ar      1 8ZG        -0.2948
     18 C11        -9.1980    7.1360   15.8080 C.ar      1 8ZG         0.0432
     19 C12       -10.0040    8.1040   16.3830 C.ar      1 8ZG        -0.0342
     20 C14       -11.3160   10.2450   16.2920 C.ar      1 8ZG         0.0209
     21 C16       -11.5760   11.9630   17.9180 C.ar      1 8ZG        -0.0638
     22 C18       -13.3930   11.4840   16.4110 C.ar      1 8ZG        -0.0258
     23 C19       -12.5970   10.5140   15.7960 C.ar      1 8ZG         0.1433
     24 F20       -13.0770    9.7590   14.7890 F         1 8ZG        -0.1803
     25 C23        -8.7310    7.2760   14.5170 C.ar      1 8ZG         0.0544
     26 CL24      -10.4080   10.7000   13.3750 Cl        1 8ZG        -0.0691
     27 C25        -8.3610    6.5990   11.6600 C.3       1 8ZG         0.0564
     28 C27        -5.3730    5.0510    8.1430 C.3       1 8ZG         0.0346
     29 H1         -9.7738   10.8323   17.6039 H         1 8ZG         0.0623
     30 H2        -13.5114   12.8707   17.9912 H         1 8ZG         0.0618
     31 H3         -8.9163    8.4999   12.7724 H         1 8ZG         0.0690
     32 H4         -8.8066    4.6666   10.8862 H         1 8ZG         0.0543
     33 H5         -9.0623    6.0215    9.7349 H         1 8ZG         0.0543
     34 H6         -4.2503    3.4892    7.1719 H         1 8ZG         0.0254
     35 H7         -6.0037    3.5040    6.7822 H         1 8ZG         0.0254
     36 H8         -5.4443    2.9108    8.3828 H         1 8ZG         0.0254
     37 H9         -5.6022    6.5064   11.1361 H         1 8ZG         0.0543
     38 H10        -5.1750    4.8021   10.7625 H         1 8ZG         0.0543
     39 H11        -5.7392    5.0060   13.1307 H         1 8ZG         0.0556
     40 H12        -7.0256    4.0698   12.2969 H         1 8ZG         0.0556
     41 H13        -7.6365    4.3183   16.7381 H         1 8ZG         0.1059
     42 H14       -10.2993    7.9990   17.4207 H         1 8ZG         0.0618
     43 H15       -11.1739   12.5534   18.7333 H         1 8ZG         0.0587
     44 H16       -14.3933   11.6932   16.0494 H         1 8ZG         0.0607
     45 H17        -9.3751    6.7542   12.0568 H         1 8ZG         0.0556
     46 H18        -7.9561    7.5575   11.3032 H         1 8ZG         0.0556
     47 H19        -5.1888    5.7813    7.3413 H         1 8ZG         0.0500
     48 H20        -4.6294    5.1881    8.9419 H         1 8ZG         0.0500
@<TRIPOS>BOND
     1    4    1 ar 
     2    1   19 ar 
     3    1   20 1  
     4   20    2 ar 
     5    2   21 ar 
     6   21    3 ar 
     7    3   22 ar 
     8    5    4 ar 
     9    4   26 1  
    10   25    5 ar 
    11    6   10 1  
    12   27    6 1  
    13   28    7 1  
    14    9    8 2  
    15   10    9 am 
    16    9   28 1  
    17   11   10 1  
    18   12   11 1  
    19   13   12 1  
    20   14   13 1  
    21   13   27 1  
    22   14   15 ar 
    23   14   25 ar 
    24   15   16 ar 
    25   16   17 ar 
    26   17   18 ar 
    27   18   19 ar 
    28   18   25 ar 
    29   20   23 ar 
    30   22   23 ar 
    31   23   24 1  
    32    2   29 1  
    33    3   30 1  
    34    5   31 1  
    35    6   32 1  
    36    6   33 1  
    37    7   34 1  
    38    7   35 1  
    39    7   36 1  
    40   11   37 1  
    41   11   38 1  
    42   12   39 1  
    43   12   40 1  
    44   16   41 1  
    45   19   42 1  
    46   21   43 1  
    47   22   44 1  
    48   27   45 1  
    49   27   46 1  
    50   28   47 1  
    51   28   48 1  
@<TRIPOS>SUBSTRUCTURE
     1 8ZG         1

