### 
### Created by X-TOOL on Mon Sep 10 21:13:33 2018
### 

@<TRIPOS>MOLECULE
6b16_ligand
   47    51     1     0     0
SMALL
GAST_HUCK


@<TRIPOS>ATOM
      1 C4         14.7820  -12.9840   13.7490 C.ar      1 C7Y         0.0321
      2 C5         14.4730  -12.0060   14.6880 C.ar      1 C7Y        -0.0432
      3 C6         15.3970  -11.0090   14.9560 C.ar      1 C7Y        -0.0286
      4 C7         16.6110  -11.0270   14.2620 C.ar      1 C7Y         0.0833
      5 C8         16.8490  -12.0510   13.3250 C.ar      1 C7Y         0.0281
      6 C10        18.1810  -11.7980   12.7750 C.2       1 C7Y        -0.0501
      7 N12        17.7290  -10.2220   14.2670 N.pl3     1 C7Y        -0.2743
      8 C15        12.5910  -14.6900   15.4990 C.ar      1 C7Y         0.1767
      9 C17        11.3620  -15.4650   17.2910 C.ar      1 C7Y         0.0002
     10 C22        16.0070  -16.8820   16.8540 C.2       1 C7Y         0.1730
     11 C24        17.6050  -17.0520   15.2900 C.2       1 C7Y        -0.0092
     12 C28        18.4450  -16.9460   14.0310 C.3       1 C7Y        -0.0086
     13 C1         13.3500  -13.9200   11.9810 C.3       1 C7Y        -0.0305
     14 C2         13.7970  -14.0790   13.4350 C.3       1 C7Y         0.0821
     15 N9         15.9290  -12.9840   13.1090 N.ar      1 C7Y        -0.3215
     16 C11        18.6520  -10.6910   13.3740 C.2       1 C7Y         0.0271
     17 N14        12.6330  -13.9770   14.3130 N.pl3     1 C7Y        -0.2770
     18 N16        11.4410  -14.7890   16.1550 N.ar      1 C7Y        -0.2725
     19 C18        12.4990  -16.0720   17.7910 C.ar      1 C7Y        -0.0020
     20 C19        13.6980  -15.9570   17.0760 C.ar      1 C7Y         0.1369
     21 N20        13.7010  -15.2580   15.9460 N.ar      1 C7Y        -0.2377
     22 N21        14.8440  -16.5600   17.5780 N.pl3     1 C7Y        -0.2297
     23 C23        16.3940  -16.4940   15.5510 C.2       1 C7Y        -0.0269
     24 N25        17.9650  -17.7570   16.3820 N.2       1 C7Y        -0.2520
     25 N27        16.9590  -17.6400   17.3420 N.pl3     1 C7Y        -0.2108
     26 C29        17.8180  -16.3840   12.7520 C.3       1 C7Y        -0.0397
     27 C30        18.8530  -15.5600   13.5230 C.3       1 C7Y        -0.0397
     28 H1         13.5201  -12.0235   15.2044 H         1 C7Y         0.0565
     29 H2         15.1844  -10.2351   15.6847 H         1 C7Y         0.0665
     30 H3         18.6941  -12.3944   12.0220 H         1 C7Y         0.0303
     31 H4         17.8518   -9.3874   14.8581 H         1 C7Y         0.2290
     32 H5         10.4195  -15.5413   17.8211 H         1 C7Y         0.0846
     33 H6         19.1507  -17.7882   13.9794 H         1 C7Y         0.0443
     34 H7         12.6286  -14.7117   11.7305 H         1 C7Y         0.0276
     35 H8         14.2243  -13.9975   11.3180 H         1 C7Y         0.0276
     36 H9         12.8755  -12.9365   11.8487 H         1 C7Y         0.0276
     37 H10        14.2761  -15.0594   13.5736 H         1 C7Y         0.0736
     38 H11        19.6219  -10.2364   13.1778 H         1 C7Y         0.0979
     39 H12        11.8417  -13.3730   14.0486 H         1 C7Y         0.1891
     40 H13        12.4632  -16.6278   18.7210 H         1 C7Y         0.0580
     41 H14        14.8425  -16.7951   18.5808 H         1 C7Y         0.2220
     42 H15        15.8222  -15.8596   14.8754 H         1 C7Y         0.0178
     43 H16        16.9636  -18.0752   18.2755 H         1 C7Y         0.2465
     44 H17        16.7623  -16.0751   12.7468 H         1 C7Y         0.0289
     45 H18        18.0778  -16.8184   11.7754 H         1 C7Y         0.0289
     46 H19        19.8562  -15.4025   13.1002 H         1 C7Y         0.0289
     47 H20        18.5408  -14.6592   14.0717 H         1 C7Y         0.0289
@<TRIPOS>BOND
     1    1    2 ar 
     2   14    1 1  
     3    1   15 ar 
     4    2    3 ar 
     5    3    4 ar 
     6    5    4 ar 
     7    4    7 1  
     8    5    6 1  
     9   15    5 ar 
    10    6   16 2  
    11   16    7 1  
    12    8   17 1  
    13    8   18 ar 
    14   21    8 ar 
    15    9   18 ar 
    16   19    9 ar 
    17   22   10 1  
    18   10   23 2  
    19   10   25 1  
    20   11   12 1  
    21   23   11 1  
    22   11   24 2  
    23   12   26 1  
    24   12   27 1  
    25   14   13 1  
    26   17   14 1  
    27   20   19 ar 
    28   20   21 ar 
    29   20   22 1  
    30   24   25 1  
    31   26   27 1  
    32    2   28 1  
    33    3   29 1  
    34    6   30 1  
    35    7   31 1  
    36    9   32 1  
    37   12   33 1  
    38   13   34 1  
    39   13   35 1  
    40   13   36 1  
    41   14   37 1  
    42   16   38 1  
    43   17   39 1  
    44   19   40 1  
    45   22   41 1  
    46   23   42 1  
    47   25   43 1  
    48   26   44 1  
    49   26   45 1  
    50   27   46 1  
    51   27   47 1  
@<TRIPOS>SUBSTRUCTURE
     1 C7Y         1

