### 
### Created by X-TOOL on Wed Jan  1 15:39:37 2020
### 

@<TRIPOS>MOLECULE
6b1c_ligand
   37    40     1     0     0
SMALL
GAST_HUCK


@<TRIPOS>ATOM
      1 C4        -42.4940   41.4970   11.7160 C.ar      1 C9J        -0.0491
      2 C5        -42.0150   41.0100   10.5140 C.ar      1 C9J        -0.0390
      3 C6        -41.6330   41.9340    9.5510 C.ar      1 C9J         0.0449
      4 N1        -40.0800   40.5180    6.6500 N.pl3     1 C9J        -0.1296
      5 C7        -41.0520   41.5370    8.2680 C.2       1 C9J         0.0839
      6 C8        -40.5560   40.3190    7.8900 C.2       1 C9J         0.1017
      7 N2        -40.2250   41.8090    6.2690 N.2       1 C9J        -0.0797
      8 C9        -39.4680   39.5910    5.7570 C.ar      1 C9J         0.1108
      9 C10       -38.7140   38.5290    6.2400 C.ar      1 C9J        -0.0349
     10 C11       -38.1110   37.6420    5.3660 C.ar      1 C9J        -0.0368
     11 C12       -38.2550   37.8010    3.9950 C.ar      1 C9J         0.1158
     12 N3        -40.7930   42.4300    7.2700 N.2       1 C9J        -0.2146
     13 C13       -39.0150   38.8920    3.5570 C.ar      1 C9J         0.1575
     14 C14       -39.6180   39.7830    4.3910 C.ar      1 C9J         0.0026
     15 C15       -42.1480   43.7360   10.9090 C.ar      1 C9J         0.1117
     16 N4        -41.6830   43.2610    9.7330 N.ar      1 C9J        -0.2928
     17 N         -42.6730   45.6680   12.2910 N.am      1 C9J        -0.2108
     18 C         -42.7350   47.1180   12.4900 C.3       1 C9J         0.0558
     19 O         -37.6690   36.9120    3.1560 O.3       1 C9J        -0.3363
     20 C1        -43.0800   44.8120   13.2950 C.2       1 C9J         0.0545
     21 C16       -42.1880   45.2100   11.0500 C.2       1 C9J         0.2457
     22 C2        -43.0460   43.4810   13.1740 C.2       1 C9J        -0.0424
     23 C3        -42.5720   42.8800   11.9560 C.ar      1 C9J        -0.0121
     24 F         -39.1650   39.0690    2.2230 F         1 C9J        -0.1913
     25 O1        -41.8330   46.0030   10.1850 O.2       1 C9J        -0.3875
     26 H1        -42.8140   40.8025   12.4844 H         1 C9J         0.0656
     27 H2        -41.9404   39.9443   10.3300 H         1 C9J         0.0675
     28 H3        -40.5488   39.3948    8.4659 H         1 C9J         0.1085
     29 H4        -38.5972   38.3943    7.3092 H         1 C9J         0.0538
     30 H5        -37.5229   36.8184    5.7543 H         1 C9J         0.0519
     31 H6        -40.1953   40.6137    4.0015 H         1 C9J         0.0556
     32 H7        -43.1292   47.3338   13.4940 H         1 C9J         0.0594
     33 H8        -43.3965   47.5641   11.7328 H         1 C9J         0.0594
     34 H9        -41.7259   47.5450   12.3927 H         1 C9J         0.0594
     35 H10       -38.3360   36.4907    2.6268 H         1 C9J         0.2452
     36 H11       -43.4451   45.2403   14.2273 H         1 C9J         0.1156
     37 H12       -43.3774   42.8512   13.9983 H         1 C9J         0.0301
@<TRIPOS>BOND
     1    1    2 ar 
     2   23    1 ar 
     3    3    2 ar 
     4    3    5 1  
     5   16    3 ar 
     6    6    4 1  
     7    7    4 1  
     8    4    8 1  
     9    5    6 2  
    10    5   12 1  
    11   12    7 2  
    12    8    9 ar 
    13    8   14 ar 
    14    9   10 ar 
    15   10   11 ar 
    16   13   11 ar 
    17   11   19 1  
    18   14   13 ar 
    19   13   24 1  
    20   15   16 ar 
    21   21   15 1  
    22   15   23 ar 
    23   17   18 1  
    24   17   20 1  
    25   17   21 am 
    26   20   22 2  
    27   21   25 2  
    28   22   23 1  
    29    1   26 1  
    30    2   27 1  
    31    6   28 1  
    32    9   29 1  
    33   10   30 1  
    34   14   31 1  
    35   18   32 1  
    36   18   33 1  
    37   18   34 1  
    38   19   35 1  
    39   20   36 1  
    40   22   37 1  
@<TRIPOS>SUBSTRUCTURE
     1 C9J         1

