### 
### Created by X-TOOL on Wed Jan  1 15:39:35 2020
### 

@<TRIPOS>MOLECULE
6b1f_ligand
   27    27     1     0     0
SMALL
GAST_HUCK


@<TRIPOS>ATOM
      1 OAE        -9.1990   -2.9580   -0.9900 O.co2     1 C8Y        -0.4578
      2 SAP        -9.3850   -1.5820   -0.5100 S.o2      1 C8Y        -0.0327
      3 OAC        -9.2980   -0.6150   -1.6110 O.co2     1 C8Y        -0.4578
      4 OAD        -8.3130   -1.3200    0.4250 O.co2     1 C8Y        -0.4578
      5 OAL       -10.7500   -1.3900    0.1890 O.3       1 C8Y        -0.2010
      6 NAK       -11.2890   -2.2900    1.1720 N.4       1 C8Y         0.4138
      7 CAN       -11.8730   -1.9170    2.5010 C.3       1 C8Y         0.0314
      8 CAI       -12.9400   -0.8280    2.1490 C.3       1 C8Y        -0.0026
      9 CAH       -12.4310    0.6350    1.9640 C.3       1 C8Y         0.0004
     10 CAM       -11.5710    1.0640    3.1190 C.3       1 C8Y         0.1690
     11 CAF       -12.0220    1.0370    4.4910 C.1       1 C8Y         0.1186
     12 NAA       -12.3810    1.0170    5.5970 N.1       1 C8Y        -0.3010
     13 NAO       -10.3750    0.0600    3.0480 N.am      1 C8Y        -0.2427
     14 CAG        -9.1330    0.5070    2.8880 C.2       1 C8Y         0.1739
     15 OAB        -8.7950    1.6110    2.2950 O.2       1 C8Y        -0.3828
     16 CAJ       -10.6440   -1.3890    3.2410 C.3       1 C8Y         0.0803
     17 H1        -10.5357   -2.9245    1.3864 H         1 C8Y         0.2382
     18 H2        -12.0232   -2.7891    0.6947 H         1 C8Y         0.2382
     19 H3        -12.3324   -2.7614    3.0357 H         1 C8Y         0.0881
     20 H4        -13.6840   -0.8195    2.9592 H         1 C8Y         0.0322
     21 H5        -13.4246   -1.1311    1.2092 H         1 C8Y         0.0322
     22 H6        -13.2971    1.3094    1.8923 H         1 C8Y         0.0311
     23 H7        -11.8419    0.6949    1.0370 H         1 C8Y         0.0311
     24 H8        -11.2358    2.0915    2.9145 H         1 C8Y         0.0865
     25 H9         -8.3286   -0.1072    3.2899 H         1 C8Y         0.1546
     26 H10        -9.7656   -1.9499    2.8892 H         1 C8Y         0.0582
     27 H11       -10.7881   -1.5700    4.3164 H         1 C8Y         0.0582
@<TRIPOS>BOND
     1    1    2 ar 
     2    2    3 ar 
     3    2    4 ar 
     4    2    5 1  
     5    5    6 1  
     6    6    7 1  
     7    7    8 1  
     8    7   16 1  
     9    8    9 1  
    10    9   10 1  
    11   10   11 1  
    12   10   13 1  
    13   11   12 3  
    14   13   14 am 
    15   13   16 1  
    16   14   15 2  
    17    6   17 1  
    18    6   18 1  
    19    7   19 1  
    20    8   20 1  
    21    8   21 1  
    22    9   22 1  
    23    9   23 1  
    24   10   24 1  
    25   14   25 1  
    26   16   26 1  
    27   16   27 1  
@<TRIPOS>SUBSTRUCTURE
     1 C8Y         1

