### 
### Created by X-TOOL on Wed Jan  1 15:39:35 2020
### 

@<TRIPOS>MOLECULE
6b1h_ligand
   27    27     1     0     0
SMALL
GAST_HUCK


@<TRIPOS>ATOM
      1 OAE         9.1740   -2.9630    1.1090 O.co2     1 C8Y        -0.4578
      2 SAP         9.3000   -1.6790    0.5040 S.o2      1 C8Y        -0.0327
      3 OAC         8.2010   -1.4320   -0.3160 O.co2     1 C8Y        -0.4578
      4 OAD         9.2470   -0.5490    1.4520 O.co2     1 C8Y        -0.4578
      5 OAL        10.6840   -1.6430   -0.1650 O.3       1 C8Y        -0.2010
      6 NAK        10.9270   -2.6050   -1.2040 N.4       1 C8Y         0.4138
      7 CAN        11.5270   -2.0690   -2.4760 C.3       1 C8Y         0.0314
      8 CAI        12.7130   -1.1080   -2.2140 C.3       1 C8Y        -0.0026
      9 CAH        12.4100    0.4160   -2.0370 C.3       1 C8Y         0.0004
     10 CAM        11.4760    0.8940   -3.1020 C.3       1 C8Y         0.1690
     11 CAF        12.1310    0.8650   -4.4000 C.1       1 C8Y         0.1186
     12 NAA        12.6300    0.8390   -5.3980 N.1       1 C8Y        -0.3010
     13 NAO        10.3350   -0.0260   -3.1590 N.am      1 C8Y        -0.2427
     14 CAG         9.0900    0.4750   -2.9770 C.2       1 C8Y         0.1739
     15 OAB         8.8000    1.4590   -2.3130 O.2       1 C8Y        -0.3828
     16 CAJ        10.5390   -1.4740   -3.4010 C.3       1 C8Y         0.0803
     17 H1         10.0460   -3.0359   -1.4369 H         1 C8Y         0.2382
     18 H2         11.5556   -3.3024   -0.8371 H         1 C8Y         0.2382
     19 H3         11.9464   -2.9405   -3.0001 H         1 C8Y         0.0881
     20 H4         13.4045   -1.2055   -3.0639 H         1 C8Y         0.0322
     21 H5         13.2113   -1.4494   -1.2947 H         1 C8Y         0.0322
     22 H6         13.3513    0.9816   -2.1012 H         1 C8Y         0.0311
     23 H7         11.9496    0.5810   -1.0517 H         1 C8Y         0.0311
     24 H8         11.1366    1.9150   -2.8731 H         1 C8Y         0.0865
     25 H9          8.2708   -0.0479   -3.4683 H         1 C8Y         0.1546
     26 H10         9.5774   -1.9922   -3.2711 H         1 C8Y         0.0582
     27 H11        10.8938   -1.6126   -4.4329 H         1 C8Y         0.0582
@<TRIPOS>BOND
     1    1    2 ar 
     2    2    3 ar 
     3    2    4 ar 
     4    2    5 1  
     5    5    6 1  
     6    6    7 1  
     7    7    8 1  
     8    7   16 1  
     9    8    9 1  
    10    9   10 1  
    11   10   11 1  
    12   10   13 1  
    13   11   12 3  
    14   13   14 am 
    15   13   16 1  
    16   14   15 2  
    17    6   17 1  
    18    6   18 1  
    19    7   19 1  
    20    8   20 1  
    21    8   21 1  
    22    9   22 1  
    23    9   23 1  
    24   10   24 1  
    25   14   25 1  
    26   16   26 1  
    27   16   27 1  
@<TRIPOS>SUBSTRUCTURE
     1 C8Y         1

