### 
### Created by X-TOOL on Wed Jan  1 15:39:35 2020
### 

@<TRIPOS>MOLECULE
6b1j_ligand
   50    51     1     0     0
SMALL
GAST_HUCK


@<TRIPOS>ATOM
      1 OAF        -9.1650   -0.5460   -1.6270 O.co2     1 C8V        -0.4578
      2 SAZ        -9.1310   -1.6640   -0.6340 S.o2      1 C8V        -0.0327
      3 OAD        -8.1260   -1.3930    0.4160 O.co2     1 C8V        -0.4578
      4 OAE        -9.0350   -3.0410   -1.1790 O.co2     1 C8V        -0.4578
      5 OAS       -10.5590   -1.6070   -0.0010 O.3       1 C8V        -0.2010
      6 NAR       -10.8130   -2.6450    1.0030 N.4       1 C8V         0.4138
      7 CAV       -11.4720   -2.1740    2.2710 C.3       1 C8V         0.0316
      8 CAK       -12.6550   -1.2890    1.8760 C.3       1 C8V        -0.0025
      9 CB        -12.2480    0.0820    1.5690 C.3       1 C8V        -0.0068
     10 CAN       -10.5690   -1.4860    3.3250 C.3       1 C8V         0.0807
     11 N         -10.3140   -0.0530    2.9080 N.am      1 C8V        -0.2478
     12 CAG        -9.0640    0.3940    2.6150 C.2       1 C8V         0.1743
     13 OAA        -8.7850    1.4870    2.1220 O.2       1 C8V        -0.3828
     14 CA        -11.5380    0.7010    2.7680 C.3       1 C8V         0.1361
     15 C         -12.2270    1.0700    3.9390 C.2       1 C8V         0.2230
     16 O         -11.8050    0.7640    5.0830 O.2       1 C8V        -0.3925
     17 NAQ       -13.4820    1.5590    3.7730 N.am      1 C8V        -0.1805
     18 NAP       -14.1560    2.0470    4.8450 N.am      1 C8V        -0.1820
     19 CAT       -13.8820    3.3470    5.1510 C.2       1 C8V         0.2052
     20 OAB       -12.9310    3.9900    4.7220 O.2       1 C8V        -0.3946
     21 CAW       -14.8950    4.0640    6.0830 C.3       1 C8V         0.0903
     22 CAJ       -16.1990    4.1540    5.3320 C.3       1 C8V        -0.0234
     23 CAH       -16.1260    5.0390    4.1040 C.3       1 C8V        -0.0101
     24 CAI       -15.7060    6.4480    4.5640 C.3       1 C8V        -0.0334
     25 NAO       -14.3920    6.3220    5.2400 N.4       1 C8V         0.2288
     26 CAM       -14.4710    5.4630    6.4580 C.3       1 C8V        -0.0137
     27 H1         -9.9288   -3.0617    1.2491 H         1 C8V         0.2382
     28 H2        -11.4083   -3.3425    0.5845 H         1 C8V         0.2382
     29 H3        -11.8766   -3.0700    2.7644 H         1 C8V         0.0882
     30 H4        -13.3727   -1.2661    2.7093 H         1 C8V         0.0323
     31 H5        -13.1383   -1.7213    0.9875 H         1 C8V         0.0323
     32 H6        -13.1388    0.6798    1.3258 H         1 C8V         0.0314
     33 H7        -11.5651    0.0740    0.7067 H         1 C8V         0.0314
     34 H8         -9.6120   -2.0237    3.3959 H         1 C8V         0.0583
     35 H9        -11.0708   -1.4999    4.3038 H         1 C8V         0.0583
     36 H10        -8.2342   -0.2755    2.8365 H         1 C8V         0.1547
     37 H11       -11.2123    1.6834    2.3953 H         1 C8V         0.0805
     38 H12       -13.9068    1.5597    2.8677 H         1 C8V         0.2166
     39 H13       -14.8040    1.4954    5.3702 H         1 C8V         0.2165
     40 H14       -15.0246    3.4714    7.0006 H         1 C8V         0.0592
     41 H15       -16.9644    4.5602    6.0096 H         1 C8V         0.0296
     42 H16       -16.4897    3.1415    5.0153 H         1 C8V         0.0296
     43 H17       -17.1104    5.0828    3.6151 H         1 C8V         0.0318
     44 H18       -15.3834    4.6390    3.3979 H         1 C8V         0.0318
     45 H19       -16.4516    6.8524    5.2644 H         1 C8V         0.0814
     46 H20       -15.6188    7.1166    3.6949 H         1 C8V         0.0814
     47 H21       -14.0749    7.2402    5.5092 H         1 C8V         0.2015
     48 H22       -13.7324    5.9141    4.5962 H         1 C8V         0.2015
     49 H23       -13.4835    5.4261    6.9411 H         1 C8V         0.0842
     50 H24       -15.2054    5.8902    7.1567 H         1 C8V         0.0842
@<TRIPOS>BOND
     1    1    2 ar 
     2    2    3 ar 
     3    2    4 ar 
     4    2    5 1  
     5    5    6 1  
     6    6    7 1  
     7    7    8 1  
     8    7   10 1  
     9    8    9 1  
    10    9   14 1  
    11   10   11 1  
    12   11   12 am 
    13   11   14 1  
    14   12   13 2  
    15   14   15 1  
    16   15   16 2  
    17   15   17 am 
    18   17   18 1  
    19   18   19 am 
    20   19   20 2  
    21   19   21 1  
    22   21   22 1  
    23   21   26 1  
    24   22   23 1  
    25   23   24 1  
    26   24   25 1  
    27   25   26 1  
    28    6   27 1  
    29    6   28 1  
    30    7   29 1  
    31    8   30 1  
    32    8   31 1  
    33    9   32 1  
    34    9   33 1  
    35   10   34 1  
    36   10   35 1  
    37   12   36 1  
    38   14   37 1  
    39   17   38 1  
    40   18   39 1  
    41   21   40 1  
    42   22   41 1  
    43   22   42 1  
    44   23   43 1  
    45   23   44 1  
    46   24   45 1  
    47   24   46 1  
    48   25   47 1  
    49   25   48 1  
    50   26   49 1  
    51   26   50 1  
@<TRIPOS>SUBSTRUCTURE
     1 C8V         1

