### 
### Created by X-TOOL on Wed Jan  1 15:39:34 2020
### 

@<TRIPOS>MOLECULE
6b1k_ligand
   37    40     1     0     0
SMALL
GAST_HUCK


@<TRIPOS>ATOM
      1 C4        -17.0430  -18.3660   20.2230 C.ar      1 C9G        -0.0491
      2 C5        -17.5880  -17.3360   19.4780 C.ar      1 C9G        -0.0390
      3 C6        -18.2030  -17.6550   18.2720 C.ar      1 C9G         0.0449
      4 N1        -19.4960  -14.7950   16.4950 N.pl3     1 C9G        -0.1287
      5 C7        -18.7680  -16.6200   17.3980 C.2       1 C9G         0.0838
      6 C8        -18.8580  -15.2670   17.5880 C.2       1 C9G         0.1018
      7 N2        -19.8040  -15.8120   15.6500 N.2       1 C9G        -0.0796
      8 C9        -19.8580  -13.4560   16.1700 C.ar      1 C9G         0.1125
      9 C10       -19.8960  -13.0480   14.8460 C.ar      1 C9G        -0.0309
     10 C11       -20.2020  -11.7330   14.5380 C.ar      1 C9G        -0.0353
     11 C12       -20.4590  -10.8240   15.5560 C.ar      1 C9G         0.0824
     12 N3        -19.3480  -16.9150   16.1960 N.2       1 C9G        -0.2146
     13 C13       -20.4270  -11.2370   16.8800 C.ar      1 C9G        -0.0353
     14 C14       -20.1370  -12.5520   17.1840 C.ar      1 C9G        -0.0309
     15 C15       -17.7610  -19.9070   18.5480 C.ar      1 C9G         0.1117
     16 N4        -18.2970  -18.9130   17.8140 N.ar      1 C9G        -0.2928
     17 N         -17.3100  -22.2730   18.7570 N.am      1 C9G        -0.2108
     18 C         -17.3910  -23.6370   18.2380 C.3       1 C9G         0.0558
     19 O         -20.7520   -9.5240   15.2890 O.3       1 C9G        -0.3365
     20 C1        -16.6790  -22.0350   19.9550 C.2       1 C9G         0.0545
     21 C16       -17.8880  -21.2610   17.9880 C.2       1 C9G         0.2457
     22 C2        -16.5660  -20.8150   20.4700 C.2       1 C9G        -0.0424
     23 C3        -17.1130  -19.6870   19.7710 C.ar      1 C9G        -0.0121
     24 O1        -18.4720  -21.5350   16.9560 O.2       1 C9G        -0.3875
     25 H1        -16.5568  -18.1468   21.1667 H         1 C9G         0.0656
     26 H2        -17.5373  -16.3099   19.8240 H         1 C9G         0.0675
     27 H3        -18.4930  -14.6937   18.4389 H         1 C9G         0.1085
     28 H4        -19.6866  -13.7569   14.0531 H         1 C9G         0.0572
     29 H5        -20.2409  -11.4134   13.5029 H         1 C9G         0.0531
     30 H6        -20.6294  -10.5281   17.6747 H         1 C9G         0.0531
     31 H7        -20.1273  -12.8787   18.2176 H         1 C9G         0.0572
     32 H8        -16.8988  -24.3262   18.9400 H         1 C9G         0.0594
     33 H9        -16.8883  -23.6880   17.2609 H         1 C9G         0.0594
     34 H10       -18.4468  -23.9233   18.1226 H         1 C9G         0.0594
     35 H11       -20.7386   -9.3841   14.3494 H         1 C9G         0.2465
     36 H12       -16.2564  -22.8766   20.5018 H         1 C9G         0.1156
     37 H13       -16.0583  -20.6711   21.4226 H         1 C9G         0.0301
@<TRIPOS>BOND
     1    1    2 ar 
     2   23    1 ar 
     3    3    2 ar 
     4    3    5 1  
     5   16    3 ar 
     6    6    4 1  
     7    7    4 1  
     8    4    8 1  
     9    5    6 2  
    10    5   12 1  
    11   12    7 2  
    12    8    9 ar 
    13    8   14 ar 
    14    9   10 ar 
    15   10   11 ar 
    16   13   11 ar 
    17   11   19 1  
    18   14   13 ar 
    19   15   16 ar 
    20   21   15 1  
    21   15   23 ar 
    22   17   18 1  
    23   17   20 1  
    24   17   21 am 
    25   20   22 2  
    26   21   24 2  
    27   22   23 1  
    28    1   25 1  
    29    2   26 1  
    30    6   27 1  
    31    9   28 1  
    32   10   29 1  
    33   13   30 1  
    34   14   31 1  
    35   18   32 1  
    36   18   33 1  
    37   18   34 1  
    38   19   35 1  
    39   20   36 1  
    40   22   37 1  
@<TRIPOS>SUBSTRUCTURE
     1 C9G         1

