### 
### Created by X-TOOL on Wed Jan  1 15:39:35 2020
### 

@<TRIPOS>MOLECULE
6b1x_ligand
   47    48     1     0     0
SMALL
GAST_HUCK


@<TRIPOS>ATOM
      1 OAF        -8.8630   -3.0100   -1.1870 O.co2     1 C9D        -0.4578
      2 SAY        -9.2110   -1.6520   -0.6510 S.o2      1 C9D        -0.0327
      3 OAD        -8.1350   -1.4790    0.3790 O.co2     1 C9D        -0.4578
      4 OAE        -9.1440   -0.6090   -1.7160 O.co2     1 C9D        -0.4578
      5 OAR       -10.5950   -1.5980   -0.0240 O.3       1 C9D        -0.2010
      6 NAQ       -10.8080   -2.6170    1.0010 N.4       1 C9D         0.4138
      7 CAU       -11.5440   -2.1280    2.1970 C.3       1 C9D         0.0316
      8 CAJ       -12.7190   -1.2020    1.9380 C.3       1 C9D        -0.0025
      9 CB        -12.2660    0.1740    1.6160 C.3       1 C9D        -0.0068
     10 CAM       -10.6160   -1.4600    3.2790 C.3       1 C9D         0.0807
     11 N         -10.3240   -0.0230    2.9200 N.am      1 C9D        -0.2478
     12 CAG        -9.0870    0.4250    2.6400 C.2       1 C9D         0.1743
     13 OAA        -8.7820    1.4690    2.0850 O.2       1 C9D        -0.3828
     14 CA        -11.5240    0.7770    2.8250 C.3       1 C9D         0.1361
     15 C         -12.1540    1.0800    4.0030 C.2       1 C9D         0.2230
     16 O         -11.7280    0.7260    5.1180 O.2       1 C9D        -0.3925
     17 NAP       -13.3880    1.6210    3.8730 N.am      1 C9D        -0.1805
     18 NAO       -14.0690    1.9710    5.0460 N.am      1 C9D        -0.1820
     19 CAS       -14.0560    3.2770    5.3870 C.2       1 C9D         0.2054
     20 OAB       -13.2020    4.0840    5.0460 O.2       1 C9D        -0.3946
     21 CAV       -15.0510    3.6360    6.5040 C.3       1 C9D         0.0949
     22 CAI       -16.3210    4.1900    5.8960 C.3       1 C9D         0.0122
     23 CAH       -16.0170    5.6340    5.6890 C.3       1 C9D        -0.0310
     24 NAN       -14.9760    5.9990    6.6850 N.4       1 C9D         0.2290
     25 CAL       -14.5490    4.7730    7.3600 C.3       1 C9D        -0.0135
     26 H1         -9.9080   -2.9583    1.3004 H         1 C9D         0.2382
     27 H2        -11.3348   -3.3727    0.5919 H         1 C9D         0.2382
     28 H3        -11.9665   -3.0317    2.6605 H         1 C9D         0.0882
     29 H4        -13.3527   -1.1686    2.8365 H         1 C9D         0.0323
     30 H5        -13.3028   -1.5933    1.0918 H         1 C9D         0.0323
     31 H6        -13.1388    0.7986    1.3749 H         1 C9D         0.0314
     32 H7        -11.5878    0.1418    0.7506 H         1 C9D         0.0314
     33 H8         -9.6693   -2.0171    3.3359 H         1 C9D         0.0583
     34 H9        -11.1199   -1.4925    4.2562 H         1 C9D         0.0583
     35 H10        -8.2620   -0.2178    2.9434 H         1 C9D         0.1547
     36 H11       -11.1948    1.7679    2.4790 H         1 C9D         0.0805
     37 H12       -13.7984    1.7655    2.9726 H         1 C9D         0.2166
     38 H13       -14.5411    1.2876    5.6029 H         1 C9D         0.2165
     39 H14       -15.2560    2.7456    7.1164 H         1 C9D         0.0594
     40 H15       -17.1714    4.0633    6.5821 H         1 C9D         0.0346
     41 H16       -16.5451    3.6959    4.9391 H         1 C9D         0.0346
     42 H17       -16.9221    6.2385    5.8481 H         1 C9D         0.0815
     43 H18       -15.6401    5.7995    4.6689 H         1 C9D         0.0815
     44 H19       -15.3576    6.6452    7.3580 H         1 C9D         0.2015
     45 H20       -14.1902    6.4245    6.2187 H         1 C9D         0.2015
     46 H21       -13.4521    4.7398    7.4361 H         1 C9D         0.0842
     47 H22       -14.9883    4.7173    8.3669 H         1 C9D         0.0842
@<TRIPOS>BOND
     1    1    2 ar 
     2    2    3 ar 
     3    2    4 ar 
     4    2    5 1  
     5    5    6 1  
     6    6    7 1  
     7    7    8 1  
     8    7   10 1  
     9    8    9 1  
    10    9   14 1  
    11   10   11 1  
    12   11   12 am 
    13   11   14 1  
    14   12   13 2  
    15   14   15 1  
    16   15   16 2  
    17   15   17 am 
    18   17   18 1  
    19   18   19 am 
    20   19   20 2  
    21   19   21 1  
    22   21   22 1  
    23   21   25 1  
    24   22   23 1  
    25   23   24 1  
    26   24   25 1  
    27    6   26 1  
    28    6   27 1  
    29    7   28 1  
    30    8   29 1  
    31    8   30 1  
    32    9   31 1  
    33    9   32 1  
    34   10   33 1  
    35   10   34 1  
    36   12   35 1  
    37   14   36 1  
    38   17   37 1  
    39   18   38 1  
    40   21   39 1  
    41   22   40 1  
    42   22   41 1  
    43   23   42 1  
    44   23   43 1  
    45   24   44 1  
    46   24   45 1  
    47   25   46 1  
    48   25   47 1  
@<TRIPOS>SUBSTRUCTURE
     1 C9D         1

