### 
### Created by X-TOOL on Wed Jan  1 15:39:36 2020
### 

@<TRIPOS>MOLECULE
6b22_ligand
   27    27     1     0     0
SMALL
GAST_HUCK


@<TRIPOS>ATOM
      1 OAE         2.9390  -32.0070  -11.2500 O.co2     1 C8Y        -0.4578
      2 SAP         2.1060  -31.9820  -10.0790 S.o2      1 C8Y        -0.0327
      3 OAC         2.7410  -30.9150   -9.3210 O.co2     1 C8Y        -0.4578
      4 OAD         2.1700  -33.2210   -9.2620 O.co2     1 C8Y        -0.4578
      5 OAL         0.6600  -31.5910  -10.4630 O.3       1 C8Y        -0.2010
      6 NAK        -0.4280  -32.4360  -10.2470 N.4       1 C8Y         0.4138
      7 CAN        -1.5370  -32.2270  -11.1960 C.3       1 C8Y         0.0314
      8 CAI        -1.4980  -33.3840  -12.2310 C.3       1 C8Y        -0.0026
      9 CAH        -0.4380  -33.1190  -13.3350 C.3       1 C8Y         0.0004
     10 CAM        -0.6930  -31.8240  -14.0990 C.3       1 C8Y         0.1690
     11 CAF        -1.9010  -31.7460  -14.6840 C.1       1 C8Y         0.1186
     12 NAA        -2.8070  -31.6870  -15.1020 N.1       1 C8Y        -0.3010
     13 NAO        -0.7230  -30.7180  -13.1290 N.am      1 C8Y        -0.2427
     14 CAG         0.3390  -29.8850  -13.1540 C.2       1 C8Y         0.1739
     15 OAB         1.4940  -29.9610  -13.6040 O.2       1 C8Y        -0.3828
     16 CAJ        -1.5870  -30.8590  -11.8850 C.3       1 C8Y         0.0803
     17 H1         -0.7737  -32.2777   -9.3135 H         1 C8Y         0.2382
     18 H2         -0.1123  -33.3896  -10.3313 H         1 C8Y         0.2382
     19 H3         -2.4715  -32.3173  -10.6228 H         1 C8Y         0.0881
     20 H4         -2.4883  -33.4782  -12.7005 H         1 C8Y         0.0322
     21 H5         -1.2478  -34.3209  -11.7117 H         1 C8Y         0.0322
     22 H6         -0.4553  -33.9568  -14.0475 H         1 C8Y         0.0311
     23 H7          0.5539  -33.0594  -12.8631 H         1 C8Y         0.0311
     24 H8          0.1008  -31.6835  -14.8474 H         1 C8Y         0.0865
     25 H9          0.1373  -28.9305  -12.6701 H         1 C8Y         0.1546
     26 H10        -1.2594  -30.1015  -11.1578 H         1 C8Y         0.0582
     27 H11        -2.6303  -30.6632  -12.1736 H         1 C8Y         0.0582
@<TRIPOS>BOND
     1    1    2 ar 
     2    2    3 ar 
     3    2    4 ar 
     4    2    5 1  
     5    5    6 1  
     6    6    7 1  
     7    7    8 1  
     8    7   16 1  
     9    8    9 1  
    10    9   10 1  
    11   10   11 1  
    12   10   13 1  
    13   11   12 3  
    14   13   14 am 
    15   13   16 1  
    16   14   15 2  
    17    6   17 1  
    18    6   18 1  
    19    7   19 1  
    20    8   20 1  
    21    8   21 1  
    22    9   22 1  
    23    9   23 1  
    24   10   24 1  
    25   14   25 1  
    26   16   26 1  
    27   16   27 1  
@<TRIPOS>SUBSTRUCTURE
     1 C8Y         1

