### 
### Created by X-TOOL on Wed Jan  1 15:39:36 2020
### 

@<TRIPOS>MOLECULE
6b2c_ligand
   40    43     1     0     0
SMALL
GAST_HUCK


@<TRIPOS>ATOM
      1 O3        -25.1570   48.5380  -19.2640 O.2       1 C9Y        -0.3875
      2 C4        -22.9860   49.5790  -16.5120 C.ar      1 C9Y        -0.0121
      3 C5        -22.7860   49.2810  -15.1580 C.ar      1 C9Y        -0.0491
      4 C6        -23.5580   48.3280  -14.5190 C.ar      1 C9Y        -0.0390
      5 N1        -26.3330   45.1680  -13.3480 N.pl3     1 C9Y        -0.1296
      6 C7        -24.5360   47.6710  -15.2610 C.ar      1 C9Y         0.0449
      7 C8        -25.3990   46.6450  -14.6420 C.2       1 C9Y         0.0839
      8 N2        -27.0890   45.2620  -14.4710 N.2       1 C9Y        -0.0797
      9 C9        -25.2810   46.0160  -13.4270 C.2       1 C9Y         0.1017
     10 C10       -26.7220   44.2740  -12.2920 C.ar      1 C9Y         0.1108
     11 C11       -25.7830   43.6650  -11.4570 C.ar      1 C9Y        -0.0349
     12 C12       -26.2000   42.8100  -10.4430 C.ar      1 C9Y        -0.0368
     13 N3        -26.5210   46.1560  -15.2490 N.2       1 C9Y        -0.2146
     14 C13       -27.5610   42.5470  -10.2370 C.ar      1 C9Y         0.1158
     15 C14       -28.4680   43.1810  -11.1010 C.ar      1 C9Y         0.1575
     16 C15       -28.0820   44.0290  -12.1050 C.ar      1 C9Y         0.0026
     17 N4        -24.7590   47.9370  -16.5640 N.ar      1 C9Y        -0.2928
     18 N         -23.4880   50.0840  -19.2310 N.am      1 C9Y        -0.2080
     19 C         -22.9710   49.4360  -21.5660 C.3       1 C9Y        -0.0361
     20 C1        -23.7100   50.3860  -20.6490 C.3       1 C9Y         0.0640
     21 C16       -24.0040   48.8680  -17.1880 C.ar      1 C9Y         0.1118
     22 C17       -24.2930   49.1140  -18.6230 C.2       1 C9Y         0.2459
     23 C2        -22.5040   50.7620  -18.5500 C.2       1 C9Y         0.0548
     24 C3        -22.2370   50.5500  -17.2600 C.2       1 C9Y        -0.0424
     25 F         -29.7830   42.9370  -10.9020 F         1 C9Y        -0.1913
     26 O4        -27.9580   41.7110   -9.2470 O.3       1 C9Y        -0.3363
     27 H1        -22.0156   49.8045  -14.6035 H         1 C9Y         0.0656
     28 H2        -23.4061   48.0990  -13.4704 H         1 C9Y         0.0675
     29 H3        -24.5021   46.1680  -12.6813 H         1 C9Y         0.1085
     30 H4        -24.7262   43.8593  -11.5997 H         1 C9Y         0.0538
     31 H5        -25.4620   42.3403   -9.8028 H         1 C9Y         0.0519
     32 H6        -28.8205   44.5012  -12.7428 H         1 C9Y         0.0556
     33 H7        -23.1717   49.7067  -22.6131 H         1 C9Y         0.0257
     34 H8        -23.3135   48.4071  -21.3812 H         1 C9Y         0.0257
     35 H9        -21.8906   49.5036  -21.3704 H         1 C9Y         0.0257
     36 H10       -23.3642   51.4107  -20.8499 H         1 C9Y         0.0627
     37 H11       -24.7871   50.3143  -20.8606 H         1 C9Y         0.0627
     38 H12       -21.9167   51.5049  -19.0876 H         1 C9Y         0.1157
     39 H13       -21.4461   51.1168  -16.7710 H         1 C9Y         0.0301
     40 H14       -28.5238   42.1805   -8.6454 H         1 C9Y         0.2452
@<TRIPOS>BOND
     1   22    1 2  
     2    2    3 ar 
     3   21    2 ar 
     4    2   24 1  
     5    3    4 ar 
     6    6    4 ar 
     7    8    5 1  
     8    9    5 1  
     9    5   10 1  
    10    6    7 1  
    11   17    6 ar 
    12    7    9 2  
    13    7   13 1  
    14   13    8 2  
    15   10   11 ar 
    16   10   16 ar 
    17   11   12 ar 
    18   12   14 ar 
    19   15   14 ar 
    20   14   26 1  
    21   16   15 ar 
    22   15   25 1  
    23   21   17 ar 
    24   18   20 1  
    25   22   18 am 
    26   18   23 1  
    27   20   19 1  
    28   21   22 1  
    29   23   24 2  
    30    3   27 1  
    31    4   28 1  
    32    9   29 1  
    33   11   30 1  
    34   12   31 1  
    35   16   32 1  
    36   19   33 1  
    37   19   34 1  
    38   19   35 1  
    39   20   36 1  
    40   20   37 1  
    41   23   38 1  
    42   24   39 1  
    43   26   40 1  
@<TRIPOS>SUBSTRUCTURE
     1 C9Y         1

