### 
### Created by X-TOOL on Wed Jan  1 15:39:37 2020
### 

@<TRIPOS>MOLECULE
6b2p_ligand
   38    41     1     0     0
SMALL
GAST_HUCK


@<TRIPOS>ATOM
      1 C5         87.5220   78.4010   28.2860 C.2       1 CJJ         0.0714
      2 C6         87.8010   77.4650   29.3670 C.ar      1 CJJ         0.1103
      3 C8         88.4680   77.0480   31.5300 C.ar      1 CJJ         0.0222
      4 C10        87.6540   75.2690   30.1190 C.ar      1 CJJ         0.1532
      5 N12        87.3140   73.9440   29.8270 N.pl3     1 CJJ        -0.2559
      6 C13        86.8870   73.5510   28.5390 C.2       1 CJJ         0.0975
      7 C15        86.1160   73.6960   26.4460 C.2       1 CJJ         0.0621
      8 C20        85.7890   73.6330   23.8560 C.3       1 CJJ        -0.0344
      9 C21        84.4110   73.6100   24.5270 C.3       1 CJJ        -0.0344
     10 C1         88.2530   79.4790   27.9420 C.2       1 CJJ        -0.0537
     11 C2         87.7240   80.1920   26.8960 C.2       1 CJJ        -0.0356
     12 C3         86.5740   79.7030   26.4180 C.2       1 CJJ         0.1725
     13 S4         86.0870   78.2640   27.2930 S.3       1 CJJ         0.0012
     14 N7         88.2660   77.9000   30.5290 N.ar      1 CJJ        -0.2857
     15 C9         88.1800   75.6950   31.3680 C.ar      1 CJJ         0.1071
     16 N11        87.4880   76.1950   29.1750 N.ar      1 CJJ        -0.2537
     17 C14        86.4230   74.4060   27.5380 C.2       1 CJJ        -0.0252
     18 N16        86.3520   72.4040   26.7210 N.pl3     1 CJJ        -0.2331
     19 N18        86.8330   72.3370   28.0390 N.2       1 CJJ        -0.2283
     20 C19        85.5760   74.3190   25.1960 C.3       1 CJJ         0.0197
     21 CL22       88.4600   74.6500   32.7320 Cl        1 CJJ        -0.0670
     22 S23        85.6450   80.3840   25.0940 S.o2      1 CJJ         0.0805
     23 O24        84.3840   80.7260   25.6600 O.2       1 CJJ        -0.1483
     24 O25        86.5140   81.3080   24.4360 O.2       1 CJJ        -0.1483
     25 N26        85.3390   79.1560   24.0200 N.am      1 CJJ        -0.2591
     26 H1         88.8581   77.4078   32.4752 H         1 CJJ         0.0877
     27 H2         87.3767   73.2352   30.5717 H         1 CJJ         0.2129
     28 H3         85.9501   74.2340   22.9489 H         1 CJJ         0.0295
     29 H4         86.3887   72.7127   23.7974 H         1 CJJ         0.0295
     30 H5         84.0202   72.6730   24.9503 H         1 CJJ         0.0295
     31 H6         83.5816   74.1943   24.1018 H         1 CJJ         0.0295
     32 H7         89.1768   79.7582   28.4466 H         1 CJJ         0.0536
     33 H8         88.2007   81.0823   26.4885 H         1 CJJ         0.0473
     34 H9         86.3256   75.4866   27.6315 H         1 CJJ         0.0219
     35 H10        86.2072   71.6082   26.0833 H         1 CJJ         0.2454
     36 H11        85.6099   75.4161   25.2678 H         1 CJJ         0.0507
     37 H12        84.8164   79.3387   23.1872 H         1 CJJ         0.1636
     38 H13        85.6772   78.2334   24.2057 H         1 CJJ         0.1636
@<TRIPOS>BOND
     1    2    1 1  
     2    1   10 2  
     3    1   13 1  
     4    2   14 ar 
     5   16    2 ar 
     6    3   14 ar 
     7   15    3 ar 
     8    5    4 1  
     9    4   15 ar 
    10    4   16 ar 
    11    6    5 1  
    12   17    6 1  
    13    6   19 2  
    14    7   17 2  
    15    7   18 1  
    16   20    7 1  
    17    8    9 1  
    18    8   20 1  
    19    9   20 1  
    20   10   11 1  
    21   11   12 2  
    22   12   13 1  
    23   12   22 1  
    24   15   21 1  
    25   18   19 1  
    26   22   23 2  
    27   22   24 2  
    28   22   25 am 
    29    3   26 1  
    30    5   27 1  
    31    8   28 1  
    32    8   29 1  
    33    9   30 1  
    34    9   31 1  
    35   10   32 1  
    36   11   33 1  
    37   17   34 1  
    38   18   35 1  
    39   20   36 1  
    40   25   37 1  
    41   25   38 1  
@<TRIPOS>SUBSTRUCTURE
     1 CJJ         1

