### 
### Created by X-TOOL on Wed Jan  1 15:39:38 2020
### 

@<TRIPOS>MOLECULE
6b2q_ligand
   38    41     1     0     0
SMALL
GAST_HUCK


@<TRIPOS>ATOM
      1 C5        -20.0220  -38.7740  -11.8110 C.2       1 CJJ         0.0714
      2 C6        -19.8400  -37.6700  -10.8570 C.ar      1 CJJ         0.1103
      3 C8        -20.5290  -36.3200   -9.1060 C.ar      1 CJJ         0.0222
      4 C10       -18.4090  -35.9630  -10.1890 C.ar      1 CJJ         0.1532
      5 N12       -17.2090  -35.2680  -10.3180 N.pl3     1 CJJ        -0.2559
      6 C13       -16.2160  -35.5660  -11.2700 C.2       1 CJJ         0.0975
      7 C15       -14.9120  -36.6240  -12.7430 C.2       1 CJJ         0.0621
      8 C20       -15.1390  -38.7940  -14.1920 C.3       1 CJJ        -0.0344
      9 C21       -14.7460  -37.6180  -15.0880 C.3       1 CJJ        -0.0344
     10 C1        -21.0850  -39.5890  -11.9470 C.2       1 CJJ        -0.0537
     11 C2        -20.9500  -40.5350  -12.9440 C.2       1 CJJ        -0.0356
     12 C3        -19.7950  -40.5050  -13.6310 C.2       1 CJJ         0.1725
     13 S4        -18.8090  -39.1910  -13.0090 S.3       1 CJJ         0.0012
     14 N7        -20.7380  -37.3550   -9.9210 N.ar      1 CJJ        -0.2857
     15 C9        -19.3410  -35.5940   -9.2090 C.ar      1 CJJ         0.1071
     16 N11       -18.7060  -36.9910  -10.9740 N.ar      1 CJJ        -0.2537
     17 C14       -15.9790  -36.7840  -11.9310 C.2       1 CJJ        -0.0252
     18 N16       -14.4730  -35.3590  -12.6080 N.pl3     1 CJJ        -0.2331
     19 N18       -15.2980  -34.7260  -11.6760 N.2       1 CJJ        -0.2283
     20 C19       -14.2830  -37.6560  -13.6370 C.3       1 CJJ         0.0197
     21 CL22      -18.9740  -34.2720   -8.1410 Cl        1 CJJ        -0.0670
     22 S23       -19.3290  -41.5720  -14.9720 S.o2      1 CJJ         0.0805
     23 O24       -18.9650  -42.8500  -14.4390 O.2       1 CJJ        -0.1483
     24 O25       -20.3440  -41.4010  -15.9600 O.2       1 CJJ        -0.1483
     25 N26       -17.9340  -40.9390  -15.6240 N.am      1 CJJ        -0.2591
     26 H1        -21.2755  -36.0448   -8.3697 H         1 CJJ         0.0877
     27 H2        -17.0366  -34.4833   -9.6735 H         1 CJJ         0.2129
     28 H3        -14.6946  -39.7862  -14.3592 H         1 CJJ         0.0295
     29 H4        -16.1818  -38.9102  -13.8617 H         1 CJJ         0.0295
     30 H5        -15.5068  -36.8888  -15.4034 H         1 CJJ         0.0295
     31 H6        -14.0196  -37.7649  -15.9009 H         1 CJJ         0.0295
     32 H7        -21.9748  -39.5091  -11.3243 H         1 CJJ         0.0536
     33 H8        -21.7320  -41.2613  -13.1605 H         1 CJJ         0.0473
     34 H9        -16.5566  -37.6991  -11.8091 H         1 CJJ         0.0219
     35 H10       -13.6746  -34.9353  -13.1018 H         1 CJJ         0.2454
     36 H11       -13.2314  -37.8284  -13.3643 H         1 CJJ         0.0507
     37 H12       -17.4953  -41.3908  -16.4008 H         1 CJJ         0.1636
     38 H13       -17.5348  -40.1070  -15.2388 H         1 CJJ         0.1636
@<TRIPOS>BOND
     1    2    1 1  
     2    1   10 2  
     3    1   13 1  
     4    2   14 ar 
     5   16    2 ar 
     6    3   14 ar 
     7   15    3 ar 
     8    5    4 1  
     9    4   15 ar 
    10    4   16 ar 
    11    6    5 1  
    12   17    6 1  
    13    6   19 2  
    14    7   17 2  
    15    7   18 1  
    16   20    7 1  
    17    8    9 1  
    18    8   20 1  
    19    9   20 1  
    20   10   11 1  
    21   11   12 2  
    22   12   13 1  
    23   12   22 1  
    24   15   21 1  
    25   18   19 1  
    26   22   23 2  
    27   22   24 2  
    28   22   25 am 
    29    3   26 1  
    30    5   27 1  
    31    8   28 1  
    32    8   29 1  
    33    9   30 1  
    34    9   31 1  
    35   10   32 1  
    36   11   33 1  
    37   17   34 1  
    38   18   35 1  
    39   20   36 1  
    40   25   37 1  
    41   25   38 1  
@<TRIPOS>SUBSTRUCTURE
     1 CJJ         1

