### 
### Created by X-TOOL on Wed Jan  1 15:39:35 2020
### 

@<TRIPOS>MOLECULE
6b31_ligand
   61    63     1     0     0
SMALL
GAST_HUCK


@<TRIPOS>ATOM
      1 N3         31.3360   -9.9600    0.7190 N.am      1 CFJ        -0.2033
      2 C4         30.4290   -8.8990    0.9300 C.ar      1 CFJ         0.0794
      3 C5         29.0380   -9.0300    0.7830 C.ar      1 CFJ        -0.0455
      4 C6         28.2110   -7.9310    0.9460 C.ar      1 CFJ        -0.0478
      5 C7         28.7290   -6.6770    1.2930 C.ar      1 CFJ         0.0576
      6 C13        26.8160   -0.9490    0.0720 C.3       1 CFJ        -0.0582
      7 C15        27.5090   -4.3510   -1.3980 C.2       1 CFJ         0.2077
      8 C20        32.0800   -6.0150   -1.7750 C.ar      1 CFJ        -0.0401
      9 C21        31.6380   -7.3290   -2.0690 C.ar      1 CFJ         0.0922
     10 C22        32.5420   -8.4130   -2.2710 C.1       1 CFJ         0.0831
     11 C24        30.2670   -7.6360   -2.1810 C.ar      1 CFJ         0.0627
     12 C26        29.3480   -6.6120   -1.9820 C.ar      1 CFJ        -0.0151
     13 C28        30.9680   -7.6220    1.2430 C.ar      1 CFJ         0.0636
     14 C1         30.4200  -12.0070    1.6360 C.3       1 CFJ        -0.0396
     15 C2         30.8520  -11.2950    0.3560 C.3       1 CFJ         0.0535
     16 N8         27.8520   -5.5720    1.3970 N.am      1 CFJ        -0.2413
     17 C9         28.2290   -4.2590    1.5240 C.2       1 CFJ         0.2002
     18 O10        29.4140   -3.9500    1.6280 O.2       1 CFJ        -0.3868
     19 C11        27.1800   -3.1490    1.4800 C.3       1 CFJ         0.0470
     20 C12        27.3330   -2.3950    0.1070 C.3       1 CFJ        -0.0092
     21 C14        26.7000   -3.1000   -1.1100 C.3       1 CFJ         0.0486
     22 O16        26.9090   -5.4180   -1.4770 O.2       1 CFJ        -0.3828
     23 N17        28.8800   -4.2450   -1.4880 N.am      1 CFJ        -0.2273
     24 C18        29.7750   -5.2970   -1.6940 C.ar      1 CFJ         0.0779
     25 C19        31.1400   -5.0000   -1.5810 C.ar      1 CFJ        -0.0288
     26 N23        33.2520   -9.2780   -2.4350 N.1       1 CFJ        -0.3422
     27 CL         29.7880   -9.2900   -2.5470 Cl        1 CFJ        -0.0633
     28 C27        30.1090   -6.5370    1.4150 C.ar      1 CFJ        -0.0331
     29 C29        32.4440   -7.4490    1.3700 C.2       1 CFJ         0.2223
     30 O30        32.9130   -6.3400    1.6380 O.2       1 CFJ        -0.3863
     31 N31        33.2450   -8.5390    1.1300 N.am      1 CFJ        -0.1682
     32 C32        34.7190   -8.4250    1.2400 C.3       1 CFJ         0.0566
     33 C33        35.3280   -7.6350    0.0900 C.3       1 CFJ        -0.0402
     34 C34        32.6850   -9.7480    0.8100 C.2       1 CFJ         0.3204
     35 O35        33.4290  -10.6940    0.5980 O.2       1 CFJ        -0.3850
     36 H1         28.6099   -9.9960    0.5408 H         1 CFJ         0.0487
     37 H2         27.1425   -8.0436    0.8023 H         1 CFJ         0.0512
     38 H3         27.2347   -0.3893    0.9213 H         1 CFJ         0.0235
     39 H4         25.7181   -0.9504    0.1394 H         1 CFJ         0.0235
     40 H5         27.1250   -0.4718   -0.8697 H         1 CFJ         0.0235
     41 H6         33.1397   -5.7991   -1.7012 H         1 CFJ         0.0678
     42 H7         28.2875   -6.8262   -2.0489 H         1 CFJ         0.0538
     43 H8         30.0518  -13.0137    1.3892 H         1 CFJ         0.0254
     44 H9         29.6180  -11.4324    2.1224 H         1 CFJ         0.0254
     45 H10        31.2789  -12.0878    2.3184 H         1 CFJ         0.0254
     46 H11        31.6569  -11.8632   -0.1332 H         1 CFJ         0.0583
     47 H12        29.9959  -11.2077   -0.3292 H         1 CFJ         0.0583
     48 H13        26.8710   -5.7648    1.3761 H         1 CFJ         0.2209
     49 H14        27.3423   -2.4478    2.3118 H         1 CFJ         0.0511
     50 H15        26.1724   -3.5833    1.5579 H         1 CFJ         0.0511
     51 H16        28.4169   -2.3509   -0.0753 H         1 CFJ         0.0347
     52 H17        25.6585   -3.3724   -0.8840 H         1 CFJ         0.0513
     53 H18        26.7229   -2.4310   -1.9829 H         1 CFJ         0.0513
     54 H19        29.2706   -3.3289   -1.3973 H         1 CFJ         0.2306
     55 H20        31.4632   -3.9925   -1.3454 H         1 CFJ         0.0534
     56 H21        30.5246   -5.5635    1.6487 H         1 CFJ         0.0513
     57 H22        35.1522   -9.4361    1.2423 H         1 CFJ         0.0573
     58 H23        34.9645   -7.9187    2.1852 H         1 CFJ         0.0573
     59 H24        36.4190   -7.5807    0.2197 H         1 CFJ         0.0253
     60 H25        34.9087   -6.6181    0.0811 H         1 CFJ         0.0253
     61 H26        35.0965   -8.1354   -0.8618 H         1 CFJ         0.0253
@<TRIPOS>BOND
     1    2    1 1  
     2    1   15 1  
     3    1   34 am 
     4    3    2 ar 
     5   13    2 ar 
     6    4    3 ar 
     7    5    4 ar 
     8   16    5 1  
     9    5   28 ar 
    10   20    6 1  
    11    7   21 1  
    12    7   22 2  
    13   23    7 am 
    14    9    8 ar 
    15    8   25 ar 
    16    9   10 1  
    17   11    9 ar 
    18   10   26 3  
    19   12   11 ar 
    20   11   27 1  
    21   24   12 ar 
    22   28   13 ar 
    23   13   29 1  
    24   15   14 1  
    25   17   16 am 
    26   17   18 2  
    27   19   17 1  
    28   20   19 1  
    29   21   20 1  
    30   23   24 1  
    31   24   25 ar 
    32   29   30 2  
    33   29   31 am 
    34   31   32 1  
    35   31   34 am 
    36   32   33 1  
    37   34   35 2  
    38    3   36 1  
    39    4   37 1  
    40    6   38 1  
    41    6   39 1  
    42    6   40 1  
    43    8   41 1  
    44   12   42 1  
    45   14   43 1  
    46   14   44 1  
    47   14   45 1  
    48   15   46 1  
    49   15   47 1  
    50   16   48 1  
    51   19   49 1  
    52   19   50 1  
    53   20   51 1  
    54   21   52 1  
    55   21   53 1  
    56   23   54 1  
    57   25   55 1  
    58   28   56 1  
    59   32   57 1  
    60   32   58 1  
    61   33   59 1  
    62   33   60 1  
    63   33   61 1  
@<TRIPOS>SUBSTRUCTURE
     1 CFJ         1

