### 
### Created by X-TOOL on Mon Aug  2 16:12:39 2021
### 

@<TRIPOS>MOLECULE
6b33_ligand
   69    73     1     0     0
SMALL
GAST_HUCK


@<TRIPOS>ATOM
      1 C5        -27.4150  109.3050    0.6420 C.ar      1 CF7         0.0795
      2 C6        -27.9790  108.0060    0.4950 C.ar      1 CF7        -0.0456
      3 C7        -29.3520  107.7990    0.6260 C.ar      1 CF7        -0.0481
      4 C8        -30.1700  108.8780    0.9870 C.ar      1 CF7         0.0579
      5 C10       -32.5040  109.6410    1.3810 C.2       1 CF7         0.2861
      6 N12       -33.7910  109.4050    0.9870 N.am      1 CF7        -0.2479
      7 C13       -34.8810  110.3550    1.2730 C.3       1 CF7         0.0585
      8 C17       -34.1700  108.3650    0.0020 C.3       1 CF7         0.0788
      9 C21       -30.5370  110.6340   -1.9600 C.ar      1 CF7         0.0780
     10 C22       -30.0340  111.9400   -1.8860 C.ar      1 CF7        -0.0288
     11 C24       -27.8130  111.1790   -2.5140 C.ar      1 CF7         0.0922
     12 C1        -24.5390  107.7740    1.4700 C.3       1 CF7        -0.0370
     13 C2        -25.1710  108.3620    0.1920 C.3       1 CF7         0.0616
     14 C3        -24.1780  108.5490   -0.9650 C.3       1 CF7        -0.0370
     15 N4        -26.0320  109.5520    0.4980 N.am      1 CF7        -0.2006
     16 N9        -31.5450  108.7640    0.9830 N.am      1 CF7        -0.2268
     17 O11       -32.2450  110.5960    2.1010 O.2       1 CF7        -0.3919
     18 C14       -35.3830  110.8500   -0.1110 C.3       1 CF7         0.0713
     19 O15       -34.5300  110.4770   -1.2270 O.3       1 CF7        -0.3517
     20 C16       -34.0620  109.1230   -1.3670 C.3       1 CF7         0.1736
     21 C18       -32.6170  109.2270   -1.8360 C.2       1 CF7         0.2385
     22 O19       -32.1140  108.2610   -2.3800 O.2       1 CF7        -0.3799
     23 N20       -31.8950  110.3810   -1.6250 N.am      1 CF7        -0.2251
     24 C23       -28.6940  112.2160   -2.1640 C.ar      1 CF7        -0.0401
     25 C25       -26.4130  111.3690   -2.8290 C.1       1 CF7         0.0831
     26 N26       -25.2950  111.5000   -3.0790 N.1       1 CF7        -0.3422
     27 C27       -28.3260  109.8640   -2.5980 C.ar      1 CF7         0.0627
     28 CL        -27.2800  108.5380   -3.0510 Cl        1 CF7        -0.0633
     29 C29       -29.6590  109.6040   -2.3130 C.ar      1 CF7        -0.0151
     30 C30       -29.6530  110.1830    1.0550 C.ar      1 CF7        -0.0334
     31 C31       -28.2790  110.4170    0.9240 C.ar      1 CF7         0.0635
     32 C32       -27.7010  111.7790    1.0960 C.2       1 CF7         0.2223
     33 O33       -28.3880  112.7540    1.3700 O.2       1 CF7        -0.3863
     34 N34       -26.3640  111.9280    0.9440 N.am      1 CF7        -0.1676
     35 C35       -25.8960  113.3180    1.1520 C.3       1 CF7         0.0622
     36 C36       -25.1450  113.9680   -0.0100 C.3       1 CF7        -0.0162
     37 C37       -25.9740  114.7170   -1.0370 C.3       1 CF7        -0.0477
     38 C38       -25.1440  115.4960   -0.0090 C.3       1 CF7        -0.0477
     39 C39       -25.5410  110.8490    0.6510 C.2       1 CF7         0.3206
     40 O40       -24.3150  111.0390    0.5330 O.2       1 CF7        -0.3850
     41 H1        -27.3310  107.1646    0.2778 H         1 CF7         0.0487
     42 H2        -29.7798  106.8184    0.4512 H         1 CF7         0.0511
     43 H3        -34.5064  111.1999    1.8694 H         1 CF7         0.0543
     44 H4        -35.6938  109.8530    1.8183 H         1 CF7         0.0543
     45 H5        -35.1959  108.0090    0.1773 H         1 CF7         0.0572
     46 H6        -33.4750  107.5132    0.0386 H         1 CF7         0.0572
     47 H7        -30.6976  112.7508   -1.6078 H         1 CF7         0.0534
     48 H8        -23.9170  106.9061    1.2055 H         1 CF7         0.0257
     49 H9        -25.3347  107.4580    2.1606 H         1 CF7         0.0257
     50 H10       -23.9144  108.5384    1.9553 H         1 CF7         0.0257
     51 H11       -25.8693  107.5912   -0.1661 H         1 CF7         0.0616
     52 H12       -24.7035  108.9702   -1.8347 H         1 CF7         0.0257
     53 H13       -23.7428  107.5757   -1.2356 H         1 CF7         0.0257
     54 H14       -23.3767  109.2351   -0.6532 H         1 CF7         0.0257
     55 H15       -31.8923  107.8952    0.6300 H         1 CF7         0.2207
     56 H16       -35.4495  111.9476   -0.0806 H         1 CF7         0.0582
     57 H17       -36.3831  110.4267   -0.2859 H         1 CF7         0.0582
     58 H18       -34.6622  108.5908   -2.1197 H         1 CF7         0.0867
     59 H19       -32.3857  111.1317   -1.1826 H         1 CF7         0.2307
     60 H20       -28.3312  113.2361   -2.1095 H         1 CF7         0.0678
     61 H21       -30.0261  108.5853   -2.3648 H         1 CF7         0.0538
     62 H22       -30.3261  111.0183    1.2107 H         1 CF7         0.0511
     63 H23       -25.2256  113.3176    2.0241 H         1 CF7         0.0579
     64 H24       -26.7782  113.9385    1.3680 H         1 CF7         0.0579
     65 H25       -24.2604  113.3831   -0.3021 H         1 CF7         0.0324
     66 H26       -27.0717  114.7119   -0.9669 H         1 CF7         0.0269
     67 H27       -25.6741  114.7117   -2.0953 H         1 CF7         0.0269
     68 H28       -24.2471  116.0472   -0.3279 H         1 CF7         0.0269
     69 H29       -25.6448  116.0474    0.8004 H         1 CF7         0.0269
@<TRIPOS>BOND
     1    2    1 ar 
     2    1   15 1  
     3    1   31 ar 
     4    3    2 ar 
     5    4    3 ar 
     6   16    4 1  
     7    4   30 ar 
     8    6    5 am 
     9    5   16 am 
    10    5   17 2  
    11    6    7 1  
    12    8    6 1  
    13   18    7 1  
    14   20    8 1  
    15    9   10 ar 
    16   23    9 1  
    17    9   29 ar 
    18   10   24 ar 
    19   24   11 ar 
    20   11   25 1  
    21   11   27 ar 
    22   13   12 1  
    23   13   14 1  
    24   15   13 1  
    25   15   39 am 
    26   19   18 1  
    27   20   19 1  
    28   21   20 1  
    29   21   22 2  
    30   21   23 am 
    31   25   26 3  
    32   27   28 1  
    33   27   29 ar 
    34   30   31 ar 
    35   31   32 1  
    36   32   33 2  
    37   32   34 am 
    38   34   35 1  
    39   34   39 am 
    40   35   36 1  
    41   36   37 1  
    42   36   38 1  
    43   37   38 1  
    44   39   40 2  
    45    2   41 1  
    46    3   42 1  
    47    7   43 1  
    48    7   44 1  
    49    8   45 1  
    50    8   46 1  
    51   10   47 1  
    52   12   48 1  
    53   12   49 1  
    54   12   50 1  
    55   13   51 1  
    56   14   52 1  
    57   14   53 1  
    58   14   54 1  
    59   16   55 1  
    60   18   56 1  
    61   18   57 1  
    62   20   58 1  
    63   23   59 1  
    64   24   60 1  
    65   29   61 1  
    66   30   62 1  
    67   35   63 1  
    68   35   64 1  
    69   36   65 1  
    70   37   66 1  
    71   37   67 1  
    72   38   68 1  
    73   38   69 1  
@<TRIPOS>SUBSTRUCTURE
     1 CF7         1

