### 
### Created by X-TOOL on Mon Sep 10 21:13:32 2018
### 

@<TRIPOS>MOLECULE
6b3e_ligand
   59    63     1     0     0
SMALL
GAST_HUCK


@<TRIPOS>ATOM
      1 C1         -0.0330   14.5170   -6.8490 C.3       1 CJM        -0.0375
      2 C2          0.8910   15.1610   -7.8030 C.3       1 CJM         0.0567
      3 C7          0.3150   17.6030   -7.8230 C.ar      1 CJM         0.1421
      4 C9          0.7350   19.2680   -6.4200 C.ar      1 CJM         0.1569
      5 C11        -0.4090   19.7780   -8.3560 C.ar      1 CJM         0.1229
      6 C13        -1.3580   21.9980   -8.6270 C.3       1 CJM         0.1109
      7 C14        -0.2050   22.8820   -8.7810 C.2       1 CJM         0.1418
      8 C16         1.4050   24.2170   -8.1700 C.ar      1 CJM         0.0534
      9 N18         0.4510   23.1360   -9.8930 N.pl3     1 CJM        -0.2480
     10 C19         2.4940   24.5770  -10.2660 C.ar      1 CJM        -0.0473
     11 C20         3.4280   25.3930   -9.6600 C.ar      1 CJM        -0.0446
     12 C21         3.3430   25.5990   -8.3120 C.ar      1 CJM         0.1474
     13 C22         2.3480   25.0280   -7.5680 C.ar      1 CJM         0.1614
     14 N25         1.3440   19.7570   -5.2710 N.pl3     1 CJM        -0.2806
     15 C27         1.9230   21.5490   -3.6550 C.3       1 CJM        -0.0323
     16 C30         1.8560   18.7860   -4.2920 C.3       1 CJM         0.0457
     17 C31         0.7610   18.3600   -3.3250 C.3       1 CJM        -0.0062
     18 C32         0.1980   16.9970   -3.6330 C.3       1 CJM         0.0463
     19 N3          0.3150   16.3580   -8.3910 N.pl3     1 CJM        -0.2276
     20 C4         -0.3010   16.5050   -9.5930 C.2       1 CJM         0.1045
     21 N5         -0.7010   17.7250   -9.8440 N.2       1 CJM        -0.3043
     22 C6         -0.3120   18.4310   -8.7190 C.ar      1 CJM         0.0919
     23 N8          0.8490   17.9530   -6.6610 N.ar      1 CJM        -0.2644
     24 N10         0.1280   20.1750   -7.2010 N.ar      1 CJM        -0.2558
     25 N12        -1.0480   20.6800   -9.1020 N.pl3     1 CJM        -0.2836
     26 N15         0.3250   23.5140   -7.7170 N.2       1 CJM        -0.3174
     27 C17         1.4820   23.9870   -9.5090 C.ar      1 CJM         0.0735
     28 F23         2.2950   25.2430   -6.2460 F         1 CJM        -0.1918
     29 F24         4.2710   26.3390   -7.6880 F         1 CJM        -0.1953
     30 C26         1.0010   21.0840   -4.7570 C.3       1 CJM         0.0328
     31 C28         3.2560   20.8450   -3.7190 C.3       1 CJM        -0.0491
     32 C29         3.0960   19.3340   -3.5910 C.3       1 CJM        -0.0294
     33 O33         1.2180   16.1050   -3.9830 O.3       1 CJM        -0.3949
     34 H1          0.4416   13.6179   -6.4290 H         1 CJM         0.0256
     35 H2         -0.9591   14.2332   -7.3702 H         1 CJM         0.0256
     36 H3         -0.2700   15.2199   -6.0367 H         1 CJM         0.0256
     37 H4          1.1263   14.4479   -8.6068 H         1 CJM         0.0609
     38 H5          1.8154   15.4345   -7.2733 H         1 CJM         0.0609
     39 H6         -2.2030   22.4013   -9.2043 H         1 CJM         0.0796
     40 H7         -1.6332   21.9439   -7.5634 H         1 CJM         0.0796
     41 H8          0.2463   22.7828  -10.8386 H         1 CJM         0.2311
     42 H9          2.5472   24.3943  -11.3332 H         1 CJM         0.0497
     43 H10         4.2135   25.8612  -10.2422 H         1 CJM         0.0512
     44 H11         1.4534   21.3385   -2.6828 H         1 CJM         0.0285
     45 H12         2.0851   22.6322   -3.7571 H         1 CJM         0.0285
     46 H13         2.1664   17.8875   -4.8454 H         1 CJM         0.0561
     47 H14        -0.0555   19.0954   -3.3747 H         1 CJM         0.0310
     48 H15         1.1790   18.3443   -2.3076 H         1 CJM         0.0310
     49 H16        -0.5109   17.0804   -4.4700 H         1 CJM         0.0558
     50 H17        -0.3265   16.6144   -2.7450 H         1 CJM         0.0558
     51 H18        -0.4489   15.6791  -10.2872 H         1 CJM         0.1309
     52 H19        -1.3304   20.4200  -10.0578 H         1 CJM         0.1893
     53 H20        -0.0260   21.0526   -4.3642 H         1 CJM         0.0525
     54 H21         1.0547   21.8051   -5.5859 H         1 CJM         0.0525
     55 H22         3.8919   21.2080   -2.8981 H         1 CJM         0.0267
     56 H23         3.7351   21.0734   -4.6825 H         1 CJM         0.0267
     57 H24         3.9832   18.8528   -4.0283 H         1 CJM         0.0288
     58 H25         3.0309   19.0812   -2.5224 H         1 CJM         0.0288
     59 H26         1.6716   16.4302   -4.7517 H         1 CJM         0.2094
@<TRIPOS>BOND
     1    2    1 1  
     2   19    2 1  
     3    3   19 1  
     4   22    3 ar 
     5    3   23 ar 
     6    4   14 1  
     7    4   23 ar 
     8   24    4 ar 
     9    5   22 ar 
    10    5   24 ar 
    11   25    5 1  
    12    7    6 1  
    13    6   25 1  
    14    9    7 1  
    15    7   26 2  
    16    8   13 ar 
    17    8   26 1  
    18   27    8 ar 
    19   27    9 1  
    20   10   11 ar 
    21   10   27 ar 
    22   11   12 ar 
    23   12   13 ar 
    24   12   29 1  
    25   13   28 1  
    26   14   16 1  
    27   14   30 1  
    28   30   15 1  
    29   15   31 1  
    30   16   17 1  
    31   16   32 1  
    32   17   18 1  
    33   18   33 1  
    34   19   20 1  
    35   20   21 2  
    36   21   22 1  
    37   31   32 1  
    38    1   34 1  
    39    1   35 1  
    40    1   36 1  
    41    2   37 1  
    42    2   38 1  
    43    6   39 1  
    44    6   40 1  
    45    9   41 1  
    46   10   42 1  
    47   11   43 1  
    48   15   44 1  
    49   15   45 1  
    50   16   46 1  
    51   17   47 1  
    52   17   48 1  
    53   18   49 1  
    54   18   50 1  
    55   20   51 1  
    56   25   52 1  
    57   30   53 1  
    58   30   54 1  
    59   31   55 1  
    60   31   56 1  
    61   32   57 1  
    62   32   58 1  
    63   33   59 1  
@<TRIPOS>SUBSTRUCTURE
     1 CJM         1

