### 
### Created by X-TOOL on Wed Jan  1 15:39:36 2020
### 

@<TRIPOS>MOLECULE
6b3v_ligand
   49    51     1     0     0
SMALL
GAST_HUCK


@<TRIPOS>ATOM
      1 C17       -35.5100   -6.9760  -17.8150 C.ar      1 7DQ         0.1981
      2 C20       -34.1850   -7.4010  -17.6800 C.ar      1 7DQ         0.0251
      3 C21       -33.8340   -8.0680  -16.4940 C.ar      1 7DQ         0.0216
      4 C22       -33.1590   -9.0540  -13.8400 C.3       1 7DQ         0.0553
      5 C26       -31.9880  -12.0760   -6.6430 C.ar      1 7DQ        -0.0661
      6 C01       -30.6370  -15.2390   -5.5770 C.3       1 7DQ        -0.0537
      7 C02       -31.8590  -14.3290   -5.5090 C.3       1 7DQ        -0.0160
      8 C03       -33.1510  -15.1160   -5.3310 C.3       1 7DQ        -0.0537
      9 C04       -31.9770  -13.4620   -6.7620 C.ar      1 7DQ        -0.0469
     10 C05       -32.0940  -14.0490   -8.0180 C.ar      1 7DQ        -0.0661
     11 C06       -32.2280  -13.2400   -9.1320 C.ar      1 7DQ        -0.0644
     12 C07       -32.2250  -11.8560   -9.0130 C.ar      1 7DQ        -0.0310
     13 C08       -32.3540  -10.9870  -10.2540 C.3       1 7DQ         0.0675
     14 C09       -33.8000  -10.8810  -10.7090 C.2       1 7DQ         0.1890
     15 C11       -35.3730  -10.4070  -12.5480 C.3       1 7DQ         0.0551
     16 C12       -35.5710   -9.0780  -13.2360 C.3       1 7DQ         0.0553
     17 C14       -34.8510   -8.2440  -15.5490 C.ar      1 7DQ         0.1330
     18 C18       -35.9430   -6.2640  -19.0770 C.1       1 7DQ         0.1475
     19 C23       -32.9870  -10.2700  -12.9520 C.3       1 7DQ         0.0551
     20 C25       -32.1130  -11.2710   -7.7610 C.ar      1 7DQ        -0.0644
     21 N10       -34.0540  -10.5170  -12.0630 N.am      1 7DQ        -0.2677
     22 N13       -34.5540   -8.9170  -14.3150 N.pl3     1 7DQ        -0.2778
     23 N15       -36.0570   -7.8070  -15.7550 N.ar      1 7DQ        -0.2431
     24 N16       -36.3910   -7.1850  -16.8810 N.ar      1 7DQ        -0.2098
     25 N19       -36.2410   -5.7320  -20.0200 N.1       1 7DQ        -0.3024
     26 O24       -34.7170  -11.0960  -10.0000 O.2       1 7DQ        -0.3941
     27 H1        -33.4552   -7.2226  -18.4615 H         1 7DQ         0.0888
     28 H2        -32.8264   -8.4280  -16.3199 H         1 7DQ         0.0855
     29 H3        -32.4938   -9.1512  -14.7106 H         1 7DQ         0.0552
     30 H4        -32.8867   -8.1541  -13.2691 H         1 7DQ         0.0552
     31 H5        -31.8976  -11.6216   -5.6630 H         1 7DQ         0.0541
     32 H6        -30.5818  -15.8477   -4.6624 H         1 7DQ         0.0253
     33 H7        -29.7278  -14.6261   -5.6649 H         1 7DQ         0.0253
     34 H8        -30.7200  -15.8996   -6.4526 H         1 7DQ         0.0253
     35 H9        -31.7364  -13.6670   -4.6391 H         1 7DQ         0.0443
     36 H10       -34.0014  -14.4197   -5.2875 H         1 7DQ         0.0253
     37 H11       -33.1024  -15.6942   -4.3965 H         1 7DQ         0.0253
     38 H12       -33.2823  -15.8024   -6.1805 H         1 7DQ         0.0253
     39 H13       -32.0803  -15.1279   -8.1224 H         1 7DQ         0.0541
     40 H14       -32.3368  -13.6922  -10.1112 H         1 7DQ         0.0544
     41 H15       -31.7554  -11.4290  -11.0642 H         1 7DQ         0.0646
     42 H16       -31.9758   -9.9795  -10.0263 H         1 7DQ         0.0646
     43 H17       -35.5643  -11.2187  -13.2653 H         1 7DQ         0.0543
     44 H18       -36.0766  -10.4880  -11.7064 H         1 7DQ         0.0543
     45 H19       -35.4585   -8.2658  -12.5028 H         1 7DQ         0.0552
     46 H20       -36.5791   -9.0393  -13.6744 H         1 7DQ         0.0552
     47 H21       -32.0726  -10.1307  -12.3566 H         1 7DQ         0.0543
     48 H22       -32.8721  -11.1516  -13.5997 H         1 7DQ         0.0543
     49 H23       -32.1233  -10.1918   -7.6591 H         1 7DQ         0.0544
@<TRIPOS>BOND
     1    2    1 ar 
     2    1   18 1  
     3    1   24 ar 
     4    3    2 ar 
     5   17    3 ar 
     6    4   19 1  
     7   22    4 1  
     8    5    9 ar 
     9   20    5 ar 
    10    7    6 1  
    11    7    8 1  
    12    9    7 1  
    13   10    9 ar 
    14   11   10 ar 
    15   12   11 ar 
    16   13   12 1  
    17   12   20 ar 
    18   14   13 1  
    19   21   14 am 
    20   14   26 2  
    21   16   15 1  
    22   15   21 1  
    23   22   16 1  
    24   17   22 1  
    25   17   23 ar 
    26   18   25 3  
    27   19   21 1  
    28   23   24 ar 
    29    2   27 1  
    30    3   28 1  
    31    4   29 1  
    32    4   30 1  
    33    5   31 1  
    34    6   32 1  
    35    6   33 1  
    36    6   34 1  
    37    7   35 1  
    38    8   36 1  
    39    8   37 1  
    40    8   38 1  
    41   10   39 1  
    42   11   40 1  
    43   13   41 1  
    44   13   42 1  
    45   15   43 1  
    46   15   44 1  
    47   16   45 1  
    48   16   46 1  
    49   19   47 1  
    50   19   48 1  
    51   20   49 1  
@<TRIPOS>SUBSTRUCTURE
     1 7DQ         1

