### 
### Created by X-TOOL on Wed Jan  1 15:39:37 2020
### 

@<TRIPOS>MOLECULE
6b41_ligand
  107   112     1     0     0
SMALL
GAST_HUCK


@<TRIPOS>ATOM
      1 O1         12.4100  -21.9740   20.3920 O.2       1 CJV        -0.3775
      2 C8         11.7220  -21.9670   21.4360 C.2       1 CJV         0.3194
      3 O          12.3520  -21.8980   22.6720 O.3       1 CJV        -0.2673
      4 C9         11.6510  -21.8370   23.8920 C.3       1 CJV         0.0663
      5 N          10.3180  -22.0030   21.4640 N.am      1 CJV        -0.2599
      6 C7          9.5890  -22.3190   20.2200 C.3       1 CJV         0.0419
      7 C10         8.9680  -23.7120   20.3990 C.3       1 CJV        -0.0303
      8 C11         7.6060  -23.6350   19.7180 C.3       1 CJV        -0.0513
      9 C12         7.6490  -22.3090   18.9280 C.3       1 CJV        -0.0531
     10 C6          8.3670  -21.3770   19.9140 C.3       1 CJV        -0.0119
     11 C5          8.6030  -19.9070   19.3500 C.3       1 CJV         0.0927
     12 C13         7.2690  -19.3260   19.2960 C.1       1 CJV         0.0577
     13 N1          6.2500  -18.8080   19.2920 N.1       1 CJV        -0.3138
     14 C4          9.1860  -19.9500   17.9030 C.ar      1 CJV        -0.0231
     15 C38        10.5490  -20.2640   17.7300 C.ar      1 CJV        -0.0039
     16 C          11.0730  -20.3300   16.4390 C.ar      1 CJV         0.1608
     17 F          12.3620  -20.4870   16.3480 F         1 CJV        -0.1755
     18 C1         10.3050  -20.1610   15.2740 C.ar      1 CJV         0.0004
     19 C2          8.9540  -19.8500   15.4210 C.ar      1 CJV        -0.0335
     20 C3          8.3960  -19.7240   16.7020 C.ar      1 CJV        -0.0409
     21 C14         9.1930  -18.7800   20.3380 C.3       1 CJV        -0.0253
     22 C15        10.5770  -18.1830   19.9930 C.3       1 CJV        -0.0144
     23 C16        10.7930  -16.9380   20.8660 C.3       1 CJV        -0.0323
     24 C37         9.1650  -19.1080   21.8300 C.3       1 CJV        -0.0144
     25 C36         9.4630  -17.8700   22.6730 C.3       1 CJV        -0.0323
     26 N2         10.7750  -17.3570   22.2910 N.4       1 CJV         0.2355
     27 C17        11.4600  -16.4000   23.2070 C.3       1 CJV        -0.0253
     28 C18        10.7790  -15.8340   24.4560 C.3       1 CJV         0.0383
     29 C19        11.7960  -15.0560   25.3500 C.3       1 CJV         0.0362
     30 C35        10.0500  -14.4870   24.2570 C.3       1 CJV         0.0362
     31 N3         10.7720  -14.0210   25.4770 N.pl3     1 CJV        -0.3078
     32 C20        10.9300  -12.7240   25.9430 C.ar      1 CJV         0.0403
     33 C21        10.2450  -11.6300   25.3990 C.ar      1 CJV        -0.0426
     34 C22        10.4160  -10.3970   25.9550 C.ar      1 CJV        -0.0489
     35 C34        11.8020  -12.5120   27.0720 C.ar      1 CJV        -0.0426
     36 C33        11.9420  -11.2510   27.5980 C.ar      1 CJV        -0.0489
     37 C23        11.2660  -10.1530   27.0650 C.ar      1 CJV         0.0752
     38 S          11.4830   -8.6670   27.6940 S.o2      1 CJV        -0.0021
     39 O4         12.8880   -8.3540   27.7850 O.2       1 CJV        -0.1706
     40 O3         10.5530   -7.7350   27.0780 O.2       1 CJV        -0.1706
     41 C24        10.9780   -8.6770   29.3380 C.3       1 CJV         0.1206
     42 C25        10.3370   -9.9010   30.0560 C.3       1 CJV         0.0583
     43 N4          9.7220   -8.8650   30.9420 N.am      1 CJV        -0.2694
     44 C32         9.6850   -7.9360   29.7520 C.3       1 CJV         0.0583
     45 C26        10.1460   -8.5310   32.2480 C.2       1 CJV         0.1787
     46 O2         10.5740   -9.4210   32.9890 O.2       1 CJV        -0.3969
     47 C27        10.0370   -7.0580   32.5680 C.3       1 CJV         0.0422
     48 C28        10.0150   -6.5680   34.0320 C.3       1 CJV         0.0044
     49 C29         9.5160   -7.5780   35.1040 C.3       1 CJV        -0.0303
     50 N5          8.6620   -6.8440   36.1020 N.4       1 CJV         0.2310
     51 C30         8.7190   -7.4840   37.4520 C.3       1 CJV        -0.0433
     52 C31         7.2490   -6.7960   35.6100 C.3       1 CJV        -0.0433
     53 H1         12.3680  -21.7889   24.7248 H         1 CJV         0.0575
     54 H2         11.0236  -22.7341   23.9997 H         1 CJV         0.0575
     55 H3         11.0140  -20.9403   23.9045 H         1 CJV         0.0575
     56 H4          9.8211  -21.8178   22.3118 H         1 CJV         0.1870
     57 H5         10.2920  -22.3010   19.3742 H         1 CJV         0.0551
     58 H6          8.8520  -23.9480   21.4671 H         1 CJV         0.0287
     59 H7          9.5955  -24.4782   19.9202 H         1 CJV         0.0287
     60 H8          6.7977  -23.6181   20.4639 H         1 CJV         0.0266
     61 H9          7.4609  -24.4884   19.0393 H         1 CJV         0.0266
     62 H10         6.6360  -21.9461   18.6997 H         1 CJV         0.0262
     63 H11         8.2187  -22.4182   17.9934 H         1 CJV         0.0262
     64 H12         7.7711  -21.2558   20.8306 H         1 CJV         0.0254
     65 H13        11.1822  -20.4519   18.5895 H         1 CJV         0.0830
     66 H14        10.7496  -20.2692   14.2913 H         1 CJV         0.0847
     67 H15         8.3336  -19.7053   14.5440 H         1 CJV         0.0689
     68 H16         7.3513  -19.4518   16.7995 H         1 CJV         0.0821
     69 H17         8.4888  -17.9437   20.2169 H         1 CJV         0.0235
     70 H18        10.6070  -17.9022   18.9299 H         1 CJV         0.0313
     71 H19        11.3639  -18.9234   20.1991 H         1 CJV         0.0313
     72 H20         9.9883  -16.2110   20.6822 H         1 CJV         0.0814
     73 H21        11.7635  -16.4793   20.6257 H         1 CJV         0.0814
     74 H22         9.9218  -19.8775   22.0425 H         1 CJV         0.0313
     75 H23         8.1683  -19.4909   22.0946 H         1 CJV         0.0313
     76 H24         9.4655  -18.1387   23.7397 H         1 CJV         0.0814
     77 H25         8.6965  -17.1026   22.4899 H         1 CJV         0.0814
     78 H26        11.3681  -18.1714   22.3242 H         1 CJV         0.2033
     79 H27        11.7398  -15.5328   22.5909 H         1 CJV         0.0818
     80 H28        12.3696  -16.9093   23.5580 H         1 CJV         0.0818
     81 H29        10.1892  -16.6136   24.9604 H         1 CJV         0.0391
     82 H30        12.7131  -14.7362   24.8337 H         1 CJV         0.0519
     83 H31        12.0617  -15.5595   26.2912 H         1 CJV         0.0519
     84 H32         8.9556  -14.5341   24.3568 H         1 CJV         0.0519
     85 H33        10.3112  -13.9518   23.3322 H         1 CJV         0.0519
     86 H34         9.5876  -11.7620   24.5472 H         1 CJV         0.0515
     87 H35         9.8752   -9.5604   25.5275 H         1 CJV         0.0601
     88 H36        12.3450  -13.3449   27.5039 H         1 CJV         0.0515
     89 H37        12.5955  -11.1049   28.4504 H         1 CJV         0.0601
     90 H38        11.8533   -8.3134   29.8962 H         1 CJV         0.0579
     91 H39        11.0457  -10.5826   30.5492 H         1 CJV         0.0542
     92 H40         9.6279  -10.4846   29.4505 H         1 CJV         0.0542
     93 H41         8.8276   -8.0692   29.0759 H         1 CJV         0.0542
     94 H42         9.8069   -6.8676   29.9835 H         1 CJV         0.0542
     95 H43         9.1043   -6.7041   32.1045 H         1 CJV         0.0504
     96 H44        10.8953   -6.5675   32.0856 H         1 CJV         0.0504
     97 H45         9.3606   -5.6850   34.0772 H         1 CJV         0.0341
     98 H46        11.0414   -6.2779   34.3009 H         1 CJV         0.0341
     99 H47        10.3784   -8.0292   35.6166 H         1 CJV         0.0816
    100 H48         8.9227   -8.3678   34.6200 H         1 CJV         0.0816
    101 H49         9.0076   -5.9007   36.1845 H         1 CJV         0.2028
    102 H50         8.0841   -6.9208   38.1518 H         1 CJV         0.0777
    103 H51         9.7572   -7.4815   37.8155 H         1 CJV         0.0777
    104 H52         8.3575   -8.5205   37.3820 H         1 CJV         0.0777
    105 H53         7.2224   -6.3233   34.6171 H         1 CJV         0.0777
    106 H54         6.6362   -6.2107   36.3113 H         1 CJV         0.0777
    107 H55         6.8502   -7.8187   35.5399 H         1 CJV         0.0777
@<TRIPOS>BOND
     1    1    2 2  
     2    2    3 1  
     3    2    5 am 
     4    3    4 1  
     5    5    6 1  
     6    6    7 1  
     7    6   10 1  
     8    7    8 1  
     9    8    9 1  
    10    9   10 1  
    11   10   11 1  
    12   11   12 1  
    13   11   14 1  
    14   11   21 1  
    15   12   13 3  
    16   14   15 ar 
    17   14   20 ar 
    18   15   16 ar 
    19   16   17 1  
    20   16   18 ar 
    21   18   19 ar 
    22   19   20 ar 
    23   21   22 1  
    24   21   24 1  
    25   22   23 1  
    26   23   26 1  
    27   24   25 1  
    28   25   26 1  
    29   26   27 1  
    30   27   28 1  
    31   28   29 1  
    32   28   30 1  
    33   29   31 1  
    34   30   31 1  
    35   31   32 1  
    36   32   33 ar 
    37   32   35 ar 
    38   33   34 ar 
    39   34   37 ar 
    40   35   36 ar 
    41   36   37 ar 
    42   37   38 1  
    43   38   39 2  
    44   38   40 2  
    45   38   41 1  
    46   41   42 1  
    47   41   44 1  
    48   42   43 1  
    49   43   44 1  
    50   43   45 am 
    51   45   46 2  
    52   45   47 1  
    53   47   48 1  
    54   48   49 1  
    55   49   50 1  
    56   50   51 1  
    57   50   52 1  
    58    4   53 1  
    59    4   54 1  
    60    4   55 1  
    61    5   56 1  
    62    6   57 1  
    63    7   58 1  
    64    7   59 1  
    65    8   60 1  
    66    8   61 1  
    67    9   62 1  
    68    9   63 1  
    69   10   64 1  
    70   15   65 1  
    71   18   66 1  
    72   19   67 1  
    73   20   68 1  
    74   21   69 1  
    75   22   70 1  
    76   22   71 1  
    77   23   72 1  
    78   23   73 1  
    79   24   74 1  
    80   24   75 1  
    81   25   76 1  
    82   25   77 1  
    83   26   78 1  
    84   27   79 1  
    85   27   80 1  
    86   28   81 1  
    87   29   82 1  
    88   29   83 1  
    89   30   84 1  
    90   30   85 1  
    91   33   86 1  
    92   34   87 1  
    93   35   88 1  
    94   36   89 1  
    95   41   90 1  
    96   42   91 1  
    97   42   92 1  
    98   44   93 1  
    99   44   94 1  
   100   47   95 1  
   101   47   96 1  
   102   48   97 1  
   103   48   98 1  
   104   49   99 1  
   105   49  100 1  
   106   50  101 1  
   107   51  102 1  
   108   51  103 1  
   109   51  104 1  
   110   52  105 1  
   111   52  106 1  
   112   52  107 1  
@<TRIPOS>SUBSTRUCTURE
     1 CJV         1

