### 
### Created by X-TOOL on Wed Jan  1 15:39:34 2020
### 

@<TRIPOS>MOLECULE
6b4d_ligand
   34    36     1     0     0
SMALL
GAST_HUCK


@<TRIPOS>ATOM
      1 OAS        -5.5760    1.6660   15.7470 O.co2     1 53X        -0.5580
      2 CAO        -4.3810    2.0390   15.8290 C.2       1 53X         0.0920
      3 OAT        -3.5470    1.3420   16.4700 O.co2     1 53X        -0.5580
      4 CAL        -3.9650    3.3340   15.1570 C.2       1 53X         0.1165
      5 CAK        -2.6760    3.7040   14.7630 C.2       1 53X        -0.0323
      6 NAM        -4.7690    4.3420   14.8470 N.pl3     1 53X        -0.2050
      7 CAP        -6.2020    4.4190   15.0820 C.3       1 53X         0.0589
      8 NAN        -4.0830    5.3230   14.2800 N.2       1 53X        -0.2228
      9 CAJ        -2.8250    4.9800   14.1930 C.2       1 53X         0.0184
     10 CAI        -1.6950    5.8070   13.6130 C.2       1 53X        -0.0093
     11 CAH        -0.6730    5.3780   12.7670 C.2       1 53X         0.0381
     12 CAF        -1.4740    7.1680   13.8450 C.ar      1 53X        -0.0160
     13 CAA        -2.1310    8.1480   14.5910 C.ar      1 53X        -0.0734
     14 CAB        -1.6280    9.4480   14.6030 C.ar      1 53X        -0.0783
     15 CAC        -0.4810    9.7720   13.8790 C.ar      1 53X        -0.0757
     16 CAD         0.1730    8.8000   13.1440 C.ar      1 53X        -0.0421
     17 CAE        -0.3340    7.4930   13.1260 C.ar      1 53X         0.0691
     18 NAG         0.1170    6.4050   12.4970 N.pl3     1 53X        -0.2618
     19 CAQ         1.3150    6.4020   11.6610 C.3       1 53X         0.0502
     20 CAR         1.3430    5.2400   10.6760 C.3       1 53X        -0.0382
     21 H1         -1.7575    3.1295   14.8735 H         1 53X         0.0383
     22 H2         -6.5829    5.3826   14.7125 H         1 53X         0.0601
     23 H3         -6.4018    4.3350   16.1604 H         1 53X         0.0601
     24 H4         -6.7054    3.5978   14.5507 H         1 53X         0.0601
     25 H5         -0.5457    4.3642   12.3902 H         1 53X         0.0979
     26 H6         -3.0230    7.9007   15.1551 H         1 53X         0.0542
     27 H7         -2.1330   10.2140   15.1803 H         1 53X         0.0517
     28 H8         -0.1014   10.7873   13.8923 H         1 53X         0.0534
     29 H9          1.0696    9.0465   12.5868 H         1 53X         0.0547
     30 H10         2.1984    6.3320   12.3126 H         1 53X         0.0602
     31 H11         1.3509    7.3442   11.0945 H         1 53X         0.0602
     32 H12         2.2639    5.2897   10.0765 H         1 53X         0.0256
     33 H13         0.4689    5.3018   10.0111 H         1 53X         0.0256
     34 H14         1.3164    4.2896   11.2292 H         1 53X         0.0256
@<TRIPOS>BOND
     1    1    2 ar 
     2    2    3 ar 
     3    2    4 1  
     4    4    5 2  
     5    4    6 1  
     6    5    9 1  
     7    6    7 1  
     8    6    8 1  
     9    8    9 2  
    10    9   10 1  
    11   10   11 2  
    12   10   12 1  
    13   11   18 1  
    14   12   13 ar 
    15   12   17 ar 
    16   13   14 ar 
    17   14   15 ar 
    18   15   16 ar 
    19   16   17 ar 
    20   17   18 1  
    21   18   19 1  
    22   19   20 1  
    23    5   21 1  
    24    7   22 1  
    25    7   23 1  
    26    7   24 1  
    27   11   25 1  
    28   13   26 1  
    29   14   27 1  
    30   15   28 1  
    31   16   29 1  
    32   19   30 1  
    33   19   31 1  
    34   20   32 1  
    35   20   33 1  
    36   20   34 1  
@<TRIPOS>SUBSTRUCTURE
     1 53X         1

