### 
### Created by X-TOOL on Mon Sep 10 21:13:34 2018
### 

@<TRIPOS>MOLECULE
6b4l_ligand
   44    47     1     0     0
SMALL
GAST_HUCK


@<TRIPOS>ATOM
      1 C4         13.5980  -12.6650   13.1730 C.ar      1 CJY        -0.0752
      2 C5         10.0970   -8.9290    9.1350 C.ar      1 CJY        -0.0744
      3 C6         12.0380   -5.8730    8.7370 C.ar      1 CJY        -0.0587
      4 C7         11.7320   -5.8890   11.4760 C.ar      1 CJY        -0.0532
      5 C8         12.8120  -10.3980   13.4890 C.ar      1 CJY        -0.0720
      6 C10        12.7380  -13.1360   14.1410 C.ar      1 CJY        -0.0425
      7 C13        11.1670   -6.9010   10.7130 C.ar      1 CJY         0.0178
      8 C15        11.0120  -10.2060   15.3330 C.2       1 CJY        -0.0280
      9 C17        10.4460   -7.9330   11.2920 C.ar      1 CJY         0.1043
     10 C20         9.2330   -8.5480   13.2590 C.3       1 CJY         0.0736
     11 C24         9.4620  -11.0940   17.1780 C.2       1 CJY         0.0763
     12 C1         12.6040   -4.8730    9.5090 C.ar      1 CJY        -0.0640
     13 C2         12.4510   -4.8800   10.8780 C.ar      1 CJY        -0.0633
     14 C3         13.6270  -11.3220   12.8610 C.ar      1 CJY        -0.0775
     15 C9         10.7970   -7.9010    8.5500 C.ar      1 CJY        -0.0685
     16 C11         9.9200   -8.9500   10.5010 C.ar      1 CJY        -0.0340
     17 C12        11.3230   -6.8910    9.3350 C.ar      1 CJY        -0.0261
     18 C14        11.9490  -10.8500   14.4730 C.ar      1 CJY        -0.0145
     19 C16        11.9340  -12.2020   14.7680 C.ar      1 CJY         0.0629
     20 C23        10.4560  -11.1880   16.1400 C.2       1 CJY         0.0878
     21 C18        10.7070   -8.7540   15.3440 C.3       1 CJY        -0.0292
     22 C19         9.3480   -8.4090   14.7660 C.3       1 CJY        -0.0190
     23 N22        11.0250  -12.3790   15.7760 N.pl3     1 CJY        -0.2795
     24 O25         9.0320  -10.0900   17.7250 O.co2     1 CJY        -0.5634
     25 O26         9.0570  -12.3380   17.5130 O.co2     1 CJY        -0.5634
     26 O21        10.3520   -7.8890   12.6880 O.3       1 CJY        -0.3129
     27 H1         14.2551  -13.3535   12.6541 H         1 CJY         0.0543
     28 H2          9.6846   -9.7224    8.5222 H         1 CJY         0.0581
     29 H3         12.1567   -5.8565    7.6596 H         1 CJY         0.0599
     30 H4         11.6057   -5.8935   12.5526 H         1 CJY         0.0631
     31 H5         12.8478   -9.3489   13.2184 H         1 CJY         0.0554
     32 H6         12.6938  -14.1880   14.3986 H         1 CJY         0.0544
     33 H7          8.3013   -8.0805   12.9078 H         1 CJY         0.0620
     34 H8          9.2384   -9.6114   12.9775 H         1 CJY         0.0620
     35 H9         13.1705   -4.0804    9.0338 H         1 CJY         0.0614
     36 H10        12.8944   -4.0954   11.4803 H         1 CJY         0.0591
     37 H11        14.3135  -10.9782   12.0958 H         1 CJY         0.0515
     38 H12        10.9366   -7.8818    7.4752 H         1 CJY         0.0493
     39 H13         9.3688   -9.7619   10.9616 H         1 CJY         0.0499
     40 H14        11.4765   -8.2336   14.7549 H         1 CJY         0.0369
     41 H15        10.7408   -8.4005   16.3851 H         1 CJY         0.0369
     42 H16         8.6032   -9.0744   15.2270 H         1 CJY         0.0308
     43 H17         9.1208   -7.3656   15.0299 H         1 CJY         0.0308
     44 H18        10.7989  -13.2881   16.2041 H         1 CJY         0.2209
@<TRIPOS>BOND
     1    6    1 ar 
     2   14    1 ar 
     3    2   15 ar 
     4   16    2 ar 
     5    3   12 ar 
     6   17    3 ar 
     7    7    4 ar 
     8    4   13 ar 
     9    5   14 ar 
    10   18    5 ar 
    11   19    6 ar 
    12    9    7 ar 
    13    7   17 ar 
    14    8   18 1  
    15    8   20 2  
    16   21    8 1  
    17    9   16 ar 
    18   26    9 1  
    19   22   10 1  
    20   10   26 1  
    21   20   11 1  
    22   11   24 ar 
    23   11   25 ar 
    24   13   12 ar 
    25   17   15 ar 
    26   18   19 ar 
    27   23   19 1  
    28   20   23 1  
    29   21   22 1  
    30    1   27 1  
    31    2   28 1  
    32    3   29 1  
    33    4   30 1  
    34    5   31 1  
    35    6   32 1  
    36   10   33 1  
    37   10   34 1  
    38   12   35 1  
    39   13   36 1  
    40   14   37 1  
    41   15   38 1  
    42   16   39 1  
    43   21   40 1  
    44   21   41 1  
    45   22   42 1  
    46   22   43 1  
    47   23   44 1  
@<TRIPOS>SUBSTRUCTURE
     1 CJY         1

