### 
### Created by X-TOOL on Mon Sep 10 21:13:30 2018
### 

@<TRIPOS>MOLECULE
6b4n_ligand
   85    89     1     0     0
SMALL
GAST_HUCK


@<TRIPOS>ATOM
      1 C2         21.4010   27.5510   15.0370 C.ar      1 G53         0.0406
      2 C3         20.0450   27.7630   14.7640 C.ar      1 G53        -0.0445
      3 C4         19.0900   26.7710   15.0010 C.ar      1 G53        -0.0323
      4 C5         19.4900   25.5450   15.4660 C.ar      1 G53         0.1101
      5 C6         20.8340   25.3230   15.7560 C.ar      1 G53        -0.0323
      6 C7         21.7890   26.2920   15.4990 C.ar      1 G53        -0.0445
      7 S8         18.3520   24.2450   15.8920 S.o2      1 G53         0.0714
      8 O9         17.2340   24.3030   14.9080 O.2       1 G53        -0.1499
      9 O10        19.1330   23.0220   16.0040 O.2       1 G53        -0.1499
     10 N11        17.7150   24.6070   17.3520 N.am      1 G53        -0.2311
     11 C12        18.6560   24.7670   18.4270 C.3       1 G53         0.0320
     12 C13        18.3260   24.0620   19.7650 C.3       1 G53        -0.0296
     13 C14        18.3020   22.5410   19.5990 C.3       1 G53        -0.0612
     14 C15        19.3060   24.5250   20.8320 C.3       1 G53        -0.0612
     15 C16        16.4130   25.2580   17.3710 C.3       1 G53         0.0579
     16 C17        15.3090   24.3110   17.9530 C.3       1 G53         0.0967
     17 O18        14.1710   25.1120   18.2880 O.3       1 G53        -0.3877
     18 C19        14.9200   23.2000   16.9600 C.3       1 G53         0.0807
     19 N20        14.0480   22.2610   17.7050 N.am      1 G53        -0.2550
     20 C21        14.3650   21.0200   18.0370 C.2       1 G53         0.3203
     21 O22        15.4370   20.4340   17.8590 O.2       1 G53        -0.3775
     22 O23        13.3080   20.4240   18.7150 O.3       1 G53        -0.2578
     23 C24        13.4800   19.0240   18.9550 C.3       1 G53         0.1189
     24 C25        12.8490   18.8300   20.3570 C.3       1 G53         0.0815
     25 O26        11.4590   18.8010   20.1200 O.3       1 G53        -0.3480
     26 C27        11.1830   18.1890   18.8480 C.3       1 G53         0.1648
     27 O28        10.2460   19.0480   18.1270 O.3       1 G53        -0.3509
     28 C29        10.9380   19.6880   17.0460 C.3       1 G53         0.0512
     29 C30        12.1630   18.8270   16.7360 C.3       1 G53        -0.0191
     30 C31        12.5040   18.2040   18.0940 C.3       1 G53         0.0449
     31 C32        14.1610   23.6970   15.7260 C.3       1 G53         0.0064
     32 C33        12.4940   22.0840   14.6780 C.ar      1 G53        -0.0603
     33 C34        12.1770   20.9480   13.9080 C.ar      1 G53        -0.0686
     34 C35        13.1610   20.2430   13.2040 C.ar      1 G53        -0.0687
     35 C36        14.4830   20.6980   13.3390 C.ar      1 G53        -0.0686
     36 C37        14.8190   21.8310   14.1460 C.ar      1 G53        -0.0603
     37 C38        13.8060   22.5120   14.8260 C.ar      1 G53        -0.0408
     38 C39        22.3480   28.4970   14.9020 C.2       1 G53         0.2058
     39 O40        23.6620   28.2150   14.9490 O.3       1 G53        -0.2193
     40 C41        24.4000   29.4040   14.8590 C.2       1 G53         0.1308
     41 C42        23.5030   30.3590   14.5840 C.2       1 G53         0.1241
     42 N43        22.2890   29.7880   14.6940 N.2       1 G53        -0.2849
     43 C44        23.8690   31.6060   14.7380 C.2       1 G53         0.2554
     44 O45        23.0970   32.5530   14.9430 O.2       1 G53        -0.3683
     45 O46        25.2350   31.7820   14.6790 O.3       1 G53        -0.2838
     46 C47        25.7930   30.6750   15.4190 C.3       1 G53         0.0642
     47 H1         19.7286   28.7178   14.3598 H         1 G53         0.0645
     48 H2         18.0401   26.9695   14.8184 H         1 G53         0.0642
     49 H3         21.1371   24.3769   16.1897 H         1 G53         0.0642
     50 H4         22.8389   26.0729   15.6566 H         1 G53         0.0645
     51 H5         18.7436   25.8440   18.6330 H         1 G53         0.0480
     52 H6         19.6252   24.3802   18.0791 H         1 G53         0.0480
     53 H7         17.3184   24.3746   20.0765 H         1 G53         0.0311
     54 H8         18.0654   22.0705   20.5647 H         1 G53         0.0233
     55 H9         19.2872   22.1942   19.2538 H         1 G53         0.0233
     56 H10        17.5362   22.2649   18.8592 H         1 G53         0.0233
     57 H11        19.2779   25.6223   20.9043 H         1 G53         0.0233
     58 H12        20.3220   24.2013   20.5620 H         1 G53         0.0233
     59 H13        19.0269   24.0864   21.8014 H         1 G53         0.0233
     60 H14        16.1382   25.5389   16.3436 H         1 G53         0.0504
     61 H15        16.4740   26.1622   17.9945 H         1 G53         0.0504
     62 H16        15.6953   23.8363   18.8670 H         1 G53         0.0634
     63 H17        13.8513   25.5484   17.5070 H         1 G53         0.2100
     64 H18        15.8321   22.6844   16.6251 H         1 G53         0.0604
     65 H19        13.1455   22.5929   17.9794 H         1 G53         0.1873
     66 H20        14.5264   18.6974   18.8640 H         1 G53         0.0675
     67 H21        13.1124   19.6667   21.0207 H         1 G53         0.0590
     68 H22        13.1860   17.8847   20.8072 H         1 G53         0.0590
     69 H23        10.7868   17.1691   18.9613 H         1 G53         0.0913
     70 H24        11.2514   20.6998   17.3429 H         1 G53         0.0561
     71 H25        10.2855   19.7506   16.1626 H         1 G53         0.0561
     72 H26        12.9949   19.4434   16.3645 H         1 G53         0.0293
     73 H27        11.9224   18.0506   15.9949 H         1 G53         0.0293
     74 H28        12.9023   17.1887   17.9508 H         1 G53         0.0380
     75 H29        14.7933   24.4032   15.1679 H         1 G53         0.0449
     76 H30        13.2379   24.2036   16.0442 H         1 G53         0.0449
     77 H31        11.6974   22.6350   15.1647 H         1 G53         0.0557
     78 H32        11.1476   20.6117   13.8593 H         1 G53         0.0599
     79 H33        12.9145   19.3879   12.5851 H         1 G53         0.0559
     80 H34        15.2742   20.1740   12.8150 H         1 G53         0.0599
     81 H35        15.8493   22.1577   14.2289 H         1 G53         0.0557
     82 H36        25.4748   29.5249   14.9859 H         1 G53         0.1174
     83 H37        26.8906   30.7480   15.4159 H         1 G53         0.0574
     84 H38        25.4872   29.7286   14.9492 H         1 G53         0.0574
     85 H39        25.4265   30.7050   16.4557 H         1 G53         0.0574
@<TRIPOS>BOND
     1    2    1 ar 
     2    6    1 ar 
     3    1   38 1  
     4    3    2 ar 
     5    4    3 ar 
     6    4    5 ar 
     7    7    4 1  
     8    5    6 ar 
     9    7    8 2  
    10    7    9 2  
    11   10    7 am 
    12   10   11 1  
    13   15   10 1  
    14   11   12 1  
    15   12   13 1  
    16   12   14 1  
    17   16   15 1  
    18   16   17 1  
    19   18   16 1  
    20   18   19 1  
    21   31   18 1  
    22   19   20 am 
    23   20   21 2  
    24   20   22 1  
    25   22   23 1  
    26   23   24 1  
    27   23   30 1  
    28   24   25 1  
    29   26   25 1  
    30   26   27 1  
    31   30   26 1  
    32   28   27 1  
    33   29   28 1  
    34   30   29 1  
    35   37   31 1  
    36   32   33 ar 
    37   32   37 ar 
    38   33   34 ar 
    39   34   35 ar 
    40   35   36 ar 
    41   36   37 ar 
    42   38   39 1  
    43   38   42 2  
    44   39   40 1  
    45   40   41 2  
    46   41   42 1  
    47   41   43 1  
    48   43   44 2  
    49   43   45 1  
    50   45   46 1  
    51    2   47 1  
    52    3   48 1  
    53    5   49 1  
    54    6   50 1  
    55   11   51 1  
    56   11   52 1  
    57   12   53 1  
    58   13   54 1  
    59   13   55 1  
    60   13   56 1  
    61   14   57 1  
    62   14   58 1  
    63   14   59 1  
    64   15   60 1  
    65   15   61 1  
    66   16   62 1  
    67   17   63 1  
    68   18   64 1  
    69   19   65 1  
    70   23   66 1  
    71   24   67 1  
    72   24   68 1  
    73   26   69 1  
    74   28   70 1  
    75   28   71 1  
    76   29   72 1  
    77   29   73 1  
    78   30   74 1  
    79   31   75 1  
    80   31   76 1  
    81   32   77 1  
    82   33   78 1  
    83   34   79 1  
    84   35   80 1  
    85   36   81 1  
    86   40   82 1  
    87   46   83 1  
    88   46   84 1  
    89   46   85 1  
@<TRIPOS>SUBSTRUCTURE
     1 G53         1

