### 
### Created by X-TOOL on Mon Sep 10 21:13:34 2018
### 

@<TRIPOS>MOLECULE
6b4u_ligand
   77    82     1     0     0
SMALL
GAST_HUCK


@<TRIPOS>ATOM
      1 C4        -10.2250   17.0970   -6.4580 C.ar      1 CN7        -0.0695
      2 C5         -7.2780   15.3410   -1.1050 C.ar      1 CN7        -0.0774
      3 C6         -1.7160   15.8990    0.8190 C.ar      1 CN7        -0.0744
      4 C7         -2.2290   13.9250    3.8350 C.ar      1 CN7        -0.0587
      5 C8         -4.3300   15.6720    4.0390 C.ar      1 CN7        -0.0532
      6 C10        -1.5300   14.9580    1.8070 C.ar      1 CN7        -0.0685
      7 C13       -11.0070   17.0960   -5.3250 C.ar      1 CN7        -0.0607
      8 C15        -2.4050   14.8950    2.8700 C.ar      1 CN7        -0.0261
      9 C17        -7.6600   17.6090   -0.5060 C.ar      1 CN7        -0.0140
     10 C20       -10.4260   16.9940   -4.0780 C.ar      1 CN7        -0.0390
     11 C21        -7.6940   18.8330    0.2230 C.2       1 CN7        -0.0281
     12 C22        -8.2450   17.8170   -1.7520 C.ar      1 CN7         0.0736
     13 C24        -8.2680   19.7820   -0.5930 C.2       1 CN7         0.0906
     14 C26        -8.1980   20.4750   -6.0920 C.3       1 CN7        -0.0077
     15 C28        -8.1260   21.4590   -7.2500 C.3       1 CN7         0.0878
     16 C1         -3.0850   13.8320    4.9090 C.ar      1 CN7        -0.0640
     17 C2         -4.1390   14.7150    5.0090 C.ar      1 CN7        -0.0633
     18 C3         -8.8600   16.9840   -6.3440 C.ar      1 CN7        -0.0693
     19 C9         -7.1890   16.3460   -0.1690 C.ar      1 CN7        -0.0724
     20 C11        -8.2760   16.8790   -5.1010 C.ar      1 CN7        -0.0624
     21 C12        -7.8690   15.5590   -2.3270 C.ar      1 CN7        -0.0681
     22 C14        -2.7720   16.7840    0.8880 C.ar      1 CN7        -0.0340
     23 C16        -3.4610   15.7840    2.9620 C.ar      1 CN7         0.0178
     24 C18        -9.0460   16.8970   -3.9590 C.ar      1 CN7        -0.0195
     25 C19        -8.3820   16.7910   -2.6830 C.ar      1 CN7        -0.0005
     26 C23        -3.6390   16.7350    1.9730 C.ar      1 CN7         0.1043
     27 C25        -8.6050   21.1480   -0.2950 C.2       1 CN7         0.0762
     28 C27        -6.6450   21.9820   -4.8770 C.3       1 CN7        -0.0077
     29 C29        -6.6520   22.8740   -6.1080 C.3       1 CN7         0.0878
     30 C30       -11.3520   16.9970   -2.9010 C.3       1 CN7        -0.0304
     31 C31        -7.2400   19.0320    1.6180 C.3       1 CN7        -0.0292
     32 C32        -5.8600   19.6420    1.7730 C.3       1 CN7        -0.0190
     33 C33        -9.0430   19.9100   -2.9330 C.3       1 CN7         0.0888
     34 C34        -7.7690   20.2430   -3.7010 C.3       1 CN7        -0.0052
     35 C35        -4.7430   18.7310    1.3040 C.3       1 CN7         0.0736
     36 N36        -8.6000   19.1510   -1.7680 N.pl3     1 CN7        -0.2590
     37 N37        -7.9250   21.2130   -4.8190 N.4       1 CN7         0.2403
     38 O38        -9.7270   21.6040   -0.4380 O.co2     1 CN7        -0.5635
     39 O39        -6.8240   22.0470   -7.2590 O.3       1 CN7        -0.3693
     40 O40        -7.5820   21.8610    0.2210 O.co2     1 CN7        -0.5635
     41 O41        -4.7350   17.5760    2.1410 O.3       1 CN7        -0.3129
     42 H1        -10.6839   17.1865   -7.4360 H         1 CN7         0.0591
     43 H2         -6.8754   14.3612   -0.8749 H         1 CN7         0.0516
     44 H3         -1.0286   15.9446   -0.0179 H         1 CN7         0.0581
     45 H4         -1.4050   13.2262    3.7463 H         1 CN7         0.0599
     46 H5         -5.1726   16.3495    4.1170 H         1 CN7         0.0631
     47 H6         -0.6963   14.2676    1.7488 H         1 CN7         0.0493
     48 H7        -12.0845   17.1757   -5.4132 H         1 CN7         0.0553
     49 H8         -7.4457   19.6845   -6.2304 H         1 CN7         0.0837
     50 H9         -9.2005   20.0241   -6.0509 H         1 CN7         0.0837
     51 H10        -8.8870   22.2426   -7.1201 H         1 CN7         0.0613
     52 H11        -8.3019   20.9306   -8.1986 H         1 CN7         0.0613
     53 H12        -2.9320   13.0730    5.6676 H         1 CN7         0.0614
     54 H13        -4.8176   14.6553    5.8522 H         1 CN7         0.0591
     55 H14        -8.2417   16.9775   -7.2343 H         1 CN7         0.0558
     56 H15        -6.7612   16.1566    0.8088 H         1 CN7         0.0551
     57 H16        -7.1994   16.7812   -5.0206 H         1 CN7         0.0592
     58 H17        -7.9344   14.7388   -3.0328 H         1 CN7         0.0540
     59 H18        -2.9246   17.5133    0.1006 H         1 CN7         0.0499
     60 H19        -6.5475   22.6023   -3.9739 H         1 CN7         0.0837
     61 H20        -5.7981   21.2825   -4.9346 H         1 CN7         0.0837
     62 H21        -5.6981   23.4172   -6.1794 H         1 CN7         0.0613
     63 H22        -7.4803   23.5947   -6.0406 H         1 CN7         0.0613
     64 H23       -12.3909   17.0829   -3.2521 H         1 CN7         0.0394
     65 H24       -11.1136   17.8502   -2.2490 H         1 CN7         0.0394
     66 H25       -11.2318   16.0600   -2.3374 H         1 CN7         0.0394
     67 H26        -7.2353   18.0514    2.1164 H         1 CN7         0.0369
     68 H27        -7.9617   19.6943    2.1185 H         1 CN7         0.0369
     69 H28        -5.6983   19.8730    2.8362 H         1 CN7         0.0308
     70 H29        -5.8216   20.5714    1.1859 H         1 CN7         0.0308
     71 H30        -9.7202   19.3044   -3.5532 H         1 CN7         0.0648
     72 H31        -9.5570   20.8310   -2.6207 H         1 CN7         0.0648
     73 H32        -7.3716   19.3064   -4.1191 H         1 CN7         0.0841
     74 H33        -7.0443   20.6628   -2.9879 H         1 CN7         0.0841
     75 H34        -3.7782   19.2538    1.3802 H         1 CN7         0.0620
     76 H35        -4.9175   18.4337    0.2594 H         1 CN7         0.0620
     77 H36        -8.6913   21.8406   -4.6322 H         1 CN7         0.2036
@<TRIPOS>BOND
     1    7    1 ar 
     2   18    1 ar 
     3   19    2 ar 
     4    2   21 ar 
     5    3    6 ar 
     6   22    3 ar 
     7    8    4 ar 
     8    4   16 ar 
     9    5   17 ar 
    10   23    5 ar 
    11    8    6 ar 
    12   10    7 ar 
    13   23    8 ar 
    14   11    9 1  
    15    9   12 ar 
    16    9   19 ar 
    17   24   10 ar 
    18   10   30 1  
    19   11   13 2  
    20   31   11 1  
    21   12   25 ar 
    22   36   12 1  
    23   13   27 1  
    24   13   36 1  
    25   14   15 1  
    26   37   14 1  
    27   15   39 1  
    28   17   16 ar 
    29   20   18 ar 
    30   24   20 ar 
    31   25   21 ar 
    32   26   22 ar 
    33   26   23 ar 
    34   25   24 1  
    35   41   26 1  
    36   27   38 ar 
    37   27   40 ar 
    38   28   29 1  
    39   37   28 1  
    40   29   39 1  
    41   32   31 1  
    42   35   32 1  
    43   33   34 1  
    44   36   33 1  
    45   34   37 1  
    46   35   41 1  
    47    1   42 1  
    48    2   43 1  
    49    3   44 1  
    50    4   45 1  
    51    5   46 1  
    52    6   47 1  
    53    7   48 1  
    54   14   49 1  
    55   14   50 1  
    56   15   51 1  
    57   15   52 1  
    58   16   53 1  
    59   17   54 1  
    60   18   55 1  
    61   19   56 1  
    62   20   57 1  
    63   21   58 1  
    64   22   59 1  
    65   28   60 1  
    66   28   61 1  
    67   29   62 1  
    68   29   63 1  
    69   30   64 1  
    70   30   65 1  
    71   30   66 1  
    72   31   67 1  
    73   31   68 1  
    74   32   69 1  
    75   32   70 1  
    76   33   71 1  
    77   33   72 1  
    78   34   73 1  
    79   34   74 1  
    80   35   75 1  
    81   35   76 1  
    82   37   77 1  
@<TRIPOS>SUBSTRUCTURE
     1 CN7         1

