### 
### Created by X-TOOL on Mon Sep 10 21:13:32 2018
### 

@<TRIPOS>MOLECULE
6b4w_ligand
   66    71     1     0     0
SMALL
GAST_HUCK


@<TRIPOS>ATOM
      1 C1          4.2570   32.2580   19.6340 C.3       1 CQ7         0.0296
      2 C2          3.9310   32.4580   18.1630 C.2       1 CQ7         0.1802
      3 C3          3.9130   33.2600   16.1590 C.ar      1 CQ7         0.0333
      4 C4          4.0850   33.9500   14.9680 C.ar      1 CQ7        -0.0655
      5 C5          3.3730   33.5700   13.8310 C.ar      1 CQ7        -0.0762
      6 C6          3.0230   32.1950   16.2040 C.ar      1 CQ7         0.1363
      7 N1          4.4580   33.3970   17.3740 N.2       1 CQ7        -0.3034
      8 N2          0.7440   30.7410   11.3650 N.pl3     1 CQ7        -0.2666
      9 N3          0.6360   34.5820   10.2060 N.ar      1 CQ7        -0.2419
     10 O1          3.0420   31.6960   17.4770 O.3       1 CQ7        -0.2198
     11 C7          2.3150   31.8270   15.0720 C.ar      1 CQ7        -0.0318
     12 C8          2.4690   32.5150   13.8770 C.ar      1 CQ7        -0.0509
     13 C9          1.7440   32.0820   12.7570 C.2       1 CQ7        -0.0150
     14 C10         1.4190   30.8170   12.5120 C.2       1 CQ7         0.0343
     15 C11         0.6250   31.9550   10.8470 C.ar      1 CQ7         0.1271
     16 C12         1.2450   32.8480   11.6970 C.ar      1 CQ7         0.0545
     17 C13         1.2360   34.1900   11.3430 C.ar      1 CQ7         0.1648
     18 C14         1.6410   36.4410   11.9620 C.3       1 CQ7         0.0883
     19 C15         2.7310   37.4540   11.9870 C.3       1 CQ7        -0.0210
     20 O2          1.8520   35.0690   12.1600 O.3       1 CQ7        -0.2904
     21 C28         0.3090   34.1340    5.0690 C.3       1 CQ7         0.0570
     22 O4         -0.9740   34.4580    5.5480 O.3       1 CQ7        -0.3242
     23 C21        -0.9630   35.4970    6.4360 C.ar      1 CQ7         0.1205
     24 C22        -1.1820   36.7850    5.9600 C.ar      1 CQ7        -0.0226
     25 C23        -1.1920   37.8650    6.8330 C.ar      1 CQ7         0.0288
     26 C26        -1.4400   39.2750    6.2820 C.2       1 CQ7         0.1934
     27 O3         -2.1280   39.4220    5.2730 O.2       1 CQ7        -0.3902
     28 N5         -0.9070   40.2800    6.9870 N.am      1 CQ7        -0.2911
     29 C27        -1.1370   41.6650    6.5210 C.3       1 CQ7         0.0188
     30 C24        -0.9990   37.6500    8.1940 C.ar      1 CQ7        -0.0624
     31 C25        -0.7920   36.3620    8.6820 C.ar      1 CQ7        -0.0400
     32 C20        -0.7640   35.2760    7.8070 C.ar      1 CQ7         0.0999
     33 N4         -0.5780   34.0190    8.2460 N.pl3     1 CQ7        -0.2500
     34 C19         0.0330   33.6860    9.3970 C.ar      1 CQ7         0.1766
     35 N6          0.0330   32.3870    9.7300 N.ar      1 CQ7        -0.2610
     36 C16         2.3900   38.1290   13.3140 C.3       1 CQ7        -0.0502
     37 C17         0.8430   38.1710   13.3370 C.3       1 CQ7        -0.0502
     38 C18         0.3880   37.1940   12.2340 C.3       1 CQ7        -0.0210
     39 H1          5.0042   33.0016   19.9483 H         1 CQ7         0.0513
     40 H2          4.6604   31.2460   19.7859 H         1 CQ7         0.0513
     41 H3          3.3424   32.3818   20.2324 H         1 CQ7         0.0513
     42 H4          4.7738   34.7857   14.9212 H         1 CQ7         0.0537
     43 H5          3.5262   34.1037   12.9000 H         1 CQ7         0.0494
     44 H6          0.3735   29.8755   10.9473 H         1 CQ7         0.2326
     45 H7          1.6299   30.9884   15.1204 H         1 CQ7         0.0504
     46 H8          1.6665   29.9708   13.1512 H         1 CQ7         0.0935
     47 H9          1.5281   36.3533   10.8713 H         1 CQ7         0.0664
     48 H10         2.6664   38.1521   11.1394 H         1 CQ7         0.0295
     49 H11         3.7276   36.9888   12.0038 H         1 CQ7         0.0295
     50 H12         0.2352   33.2947    4.3618 H         1 CQ7         0.0573
     51 H13         0.9537   33.8469    5.9127 H         1 CQ7         0.0573
     52 H14         0.7409   35.0071    4.5579 H         1 CQ7         0.0573
     53 H15        -1.3460   36.9471    4.9008 H         1 CQ7         0.0554
     54 H16        -0.3665   40.0991    7.8087 H         1 CQ7         0.1838
     55 H17        -0.6375   42.3690    7.2029 H         1 CQ7         0.0483
     56 H18        -2.2172   41.8725    6.5067 H         1 CQ7         0.0483
     57 H19        -0.7273   41.7835    5.5071 H         1 CQ7         0.0483
     58 H20        -1.0098   38.4902    8.8789 H         1 CQ7         0.0549
     59 H21        -0.6522   36.2030    9.7451 H         1 CQ7         0.0517
     60 H22        -0.9304   33.2521    7.6556 H         1 CQ7         0.2150
     61 H23         2.8077   39.1459   13.3523 H         1 CQ7         0.0266
     62 H24         2.7762   37.5418   14.1602 H         1 CQ7         0.0266
     63 H25         0.4828   39.1879   13.1223 H         1 CQ7         0.0266
     64 H26         0.4641   37.8471   14.3176 H         1 CQ7         0.0266
     65 H27        -0.4102   36.5277   12.5930 H         1 CQ7         0.0295
     66 H28         0.0416   37.7324   11.3395 H         1 CQ7         0.0295
@<TRIPOS>BOND
     1    2    1 1  
     2    2    7 2  
     3   10    2 1  
     4    4    3 ar 
     5    6    3 ar 
     6    3    7 1  
     7    5    4 ar 
     8   12    5 ar 
     9    6   10 1  
    10   11    6 ar 
    11    8   14 1  
    12   15    8 1  
    13    9   17 ar 
    14   34    9 ar 
    15   12   11 ar 
    16   13   12 1  
    17   13   14 2  
    18   16   13 1  
    19   16   15 ar 
    20   15   35 ar 
    21   17   16 ar 
    22   17   20 1  
    23   18   19 1  
    24   20   18 1  
    25   18   38 1  
    26   19   36 1  
    27   22   21 1  
    28   23   22 1  
    29   23   24 ar 
    30   32   23 ar 
    31   24   25 ar 
    32   25   26 1  
    33   30   25 ar 
    34   26   27 2  
    35   26   28 am 
    36   28   29 1  
    37   31   30 ar 
    38   32   31 ar 
    39   33   32 1  
    40   33   34 1  
    41   34   35 ar 
    42   36   37 1  
    43   37   38 1  
    44    1   39 1  
    45    1   40 1  
    46    1   41 1  
    47    4   42 1  
    48    5   43 1  
    49    8   44 1  
    50   11   45 1  
    51   14   46 1  
    52   18   47 1  
    53   19   48 1  
    54   19   49 1  
    55   21   50 1  
    56   21   51 1  
    57   21   52 1  
    58   24   53 1  
    59   28   54 1  
    60   29   55 1  
    61   29   56 1  
    62   29   57 1  
    63   30   58 1  
    64   31   59 1  
    65   33   60 1  
    66   36   61 1  
    67   36   62 1  
    68   37   63 1  
    69   37   64 1  
    70   38   65 1  
    71   38   66 1  
@<TRIPOS>SUBSTRUCTURE
     1 CQ7         1

