### 
### Created by X-TOOL on Wed Jan  1 15:39:34 2020
### 

@<TRIPOS>MOLECULE
6b59_ligand
   43    45     1     0     0
SMALL
GAST_HUCK


@<TRIPOS>ATOM
      1 C10        -1.4820    8.4730   14.0990 C.2       1 CQS         0.2069
      2 C11        -1.0110    9.2830   12.9390 C.3       1 CQS         0.1490
      3 C14        -2.0320   11.4480   13.1060 C.2       1 CQS         0.1121
      4 C16        -0.6020   12.2780   14.4730 C.ar      1 CQS         0.1046
      5 C17        -0.2680   11.0200   14.1880 C.ar      1 CQS         0.1613
      6 C18         0.2470   12.9460   15.3410 C.ar      1 CQS         0.1298
      7 C01        -6.0760    3.5380   15.6450 C.ar      1 CQS        -0.0419
      8 C02        -5.5530    4.5690   14.9240 C.ar      1 CQS        -0.0584
      9 C03        -4.2590    4.5210   14.5650 C.ar      1 CQS        -0.0410
     10 C04        -3.4620    3.4770   14.8870 C.ar      1 CQS        -0.0584
     11 C05        -3.9930    2.4650   15.6020 C.ar      1 CQS        -0.0419
     12 C06        -5.2820    2.5060   15.9840 C.ar      1 CQS         0.1009
     13 C07        -3.7070    5.6610   13.7310 C.3       1 CQS         0.0011
     14 C08        -2.9870    6.6800   14.5580 C.3       1 CQS         0.0405
     15 C20         1.5470   11.1340   15.4920 C.ar      1 CQS         0.0533
     16 N09        -2.4210    7.5900   13.6400 N.am      1 CQS        -0.2827
     17 N12        -1.1560   10.5720   13.3880 N.pl3     1 CQS        -0.2026
     18 N15        -1.7150   12.5340   13.7440 N.2       1 CQS        -0.2957
     19 N19         1.2880   12.3620   15.8100 N.ar      1 CQS        -0.2698
     20 N21         0.8280   10.4630   14.7030 N.ar      1 CQS        -0.2713
     21 N22         0.0360   14.2950   15.7630 N.pl3     1 CQS        -0.3152
     22 N26        -5.1690   -0.2550   16.3590 N.am      1 CQS        -0.2617
     23 O13        -1.1490    8.6340   15.1780 O.2       1 CQS        -0.3940
     24 O24        -5.4480    1.2760   18.1840 O.2       1 CQS        -0.1514
     25 O25        -7.2100    1.1260   16.8780 O.2       1 CQS        -0.1514
     26 S23        -5.9250    1.0860   16.9440 S.o2      1 CQS         0.0628
     27 H1         -1.6330    9.1009   12.0502 H         1 CQS         0.0859
     28 H2          0.0403    9.0620   12.7024 H         1 CQS         0.0859
     29 H3         -2.8907   11.3131   12.4500 H         1 CQS         0.1349
     30 H4         -7.1185    3.5490   15.9418 H         1 CQS         0.0619
     31 H5         -6.1710    5.4146   14.6444 H         1 CQS         0.0557
     32 H6         -2.4232    3.4545   14.5782 H         1 CQS         0.0557
     33 H7         -3.3779    1.6137   15.8705 H         1 CQS         0.0619
     34 H8         -4.5416    6.1543   13.2114 H         1 CQS         0.0446
     35 H9         -3.0061    5.2489   12.9901 H         1 CQS         0.0446
     36 H10        -2.1989    6.1999   15.1567 H         1 CQS         0.0542
     37 H11        -3.6909    7.1979   15.2260 H         1 CQS         0.0542
     38 H12         2.4218   10.6612   15.9237 H         1 CQS         0.0996
     39 H13        -2.6988    7.5895   12.6794 H         1 CQS         0.1853
     40 H14         0.7007   14.7420   16.4106 H         1 CQS         0.1820
     41 H15        -0.7807   14.8203   15.4196 H         1 CQS         0.1820
     42 H16        -5.3745   -1.1538   16.7462 H         1 CQS         0.1634
     43 H17        -4.5044   -0.1705   15.6166 H         1 CQS         0.1634
@<TRIPOS>BOND
     1    1    2 1  
     2   16    1 am 
     3    1   23 2  
     4    2   17 1  
     5   17    3 1  
     6    3   18 2  
     7    5    4 ar 
     8    4    6 ar 
     9    4   18 1  
    10   17    5 1  
    11    5   20 ar 
    12    6   19 ar 
    13    6   21 1  
    14    8    7 ar 
    15    7   12 ar 
    16    9    8 ar 
    17    9   10 ar 
    18   13    9 1  
    19   10   11 ar 
    20   11   12 ar 
    21   12   26 1  
    22   14   13 1  
    23   14   16 1  
    24   19   15 ar 
    25   15   20 ar 
    26   26   22 am 
    27   26   24 2  
    28   26   25 2  
    29    2   27 1  
    30    2   28 1  
    31    3   29 1  
    32    7   30 1  
    33    8   31 1  
    34   10   32 1  
    35   11   33 1  
    36   13   34 1  
    37   13   35 1  
    38   14   36 1  
    39   14   37 1  
    40   15   38 1  
    41   16   39 1  
    42   21   40 1  
    43   21   41 1  
    44   22   42 1  
    45   22   43 1  
@<TRIPOS>SUBSTRUCTURE
     1 CQS         1

