### 
### Created by X-TOOL on Wed Jan  1 15:39:35 2020
### 

@<TRIPOS>MOLECULE
6b5a_ligand
   43    45     1     0     0
SMALL
GAST_HUCK


@<TRIPOS>ATOM
      1 C10         0.2110    9.2390   82.3670 C.2       1 CQS         0.2069
      2 C11         0.6290   10.3570   81.3190 C.3       1 CQS         0.1490
      3 C14        -0.3180    9.0360   79.5710 C.2       1 CQS         0.1121
      4 C16        -1.8880   10.1690   78.7180 C.ar      1 CQS         0.1046
      5 C17        -1.3180   10.9370   79.6860 C.ar      1 CQS         0.1613
      6 C18        -2.9650   10.6680   77.9900 C.ar      1 CQS         0.1298
      7 C01         0.5560    2.8260   85.3440 C.ar      1 CQS        -0.0419
      8 C02         0.9740    3.9380   84.7080 C.ar      1 CQS        -0.0584
      9 C03         0.1170    4.9230   84.3170 C.ar      1 CQS        -0.0410
     10 C04        -1.2260    4.7530   84.5850 C.ar      1 CQS        -0.0584
     11 C05        -1.6560    3.6250   85.2480 C.ar      1 CQS        -0.0419
     12 C06        -0.7640    2.6870   85.6400 C.ar      1 CQS         0.1009
     13 C07         0.6540    6.1820   83.5750 C.3       1 CQS         0.0011
     14 C08         0.4720    7.5370   84.2290 C.3       1 CQS         0.0405
     15 C20        -2.8350   12.5860   79.1800 C.ar      1 CQS         0.0533
     16 N09         1.0570    8.5960   83.4070 N.am      1 CQS        -0.2827
     17 N12        -0.2910   10.2140   80.1780 N.pl3     1 CQS        -0.2026
     18 N15        -1.3040    8.9920   78.6930 N.2       1 CQS        -0.2957
     19 N19        -3.3930   11.8790   78.2300 N.ar      1 CQS        -0.2698
     20 N21        -1.8310   12.1560   79.8810 N.ar      1 CQS        -0.2713
     21 N22        -3.5320    9.7890   77.0080 N.pl3     1 CQS        -0.3152
     22 N26        -0.6550   -0.0940   85.8430 N.am      1 CQS        -0.2617
     23 O13        -0.8670    8.8740   82.3010 O.2       1 CQS        -0.3940
     24 O24        -0.9880    1.2970   87.8150 O.2       1 CQS        -0.1514
     25 O25        -2.6360    1.2450   86.4450 O.2       1 CQS        -0.1514
     26 S23        -1.4020    1.2060   86.5110 S.o2      1 CQS         0.0628
     27 H1          1.6682   10.2043   80.9925 H         1 CQS         0.0859
     28 H2          0.5285   11.3566   81.7670 H         1 CQS         0.0859
     29 H3          0.3750    8.2195   79.7683 H         1 CQS         0.1349
     30 H4          1.2636    2.0513   85.6165 H         1 CQS         0.0619
     31 H5          2.0315    4.0535   84.4995 H         1 CQS         0.0557
     32 H6         -1.9412    5.5059   84.2742 H         1 CQS         0.0557
     33 H7         -2.7111    3.4888   85.4560 H         1 CQS         0.0619
     34 H8          0.1510    6.2226   82.5976 H         1 CQS         0.0446
     35 H9          1.7339    6.0355   83.4258 H         1 CQS         0.0446
     36 H10         0.9643    7.5312   85.2127 H         1 CQS         0.0542
     37 H11        -0.6026    7.7333   84.3579 H         1 CQS         0.0542
     38 H12        -3.2288   13.5738   79.3903 H         1 CQS         0.0996
     39 H13         2.0059    8.8815   83.5416 H         1 CQS         0.1853
     40 H14        -4.3308   10.1010   76.4375 H         1 CQS         0.1820
     41 H15        -3.1402    8.8460   76.8735 H         1 CQS         0.1820
     42 H16        -0.8609   -1.0144   86.1754 H         1 CQS         0.1634
     43 H17         0.0060    0.0344   85.1037 H         1 CQS         0.1634
@<TRIPOS>BOND
     1    1    2 1  
     2   16    1 am 
     3    1   23 2  
     4    2   17 1  
     5   17    3 1  
     6    3   18 2  
     7    5    4 ar 
     8    4    6 ar 
     9    4   18 1  
    10   17    5 1  
    11    5   20 ar 
    12    6   19 ar 
    13    6   21 1  
    14    8    7 ar 
    15    7   12 ar 
    16    9    8 ar 
    17    9   10 ar 
    18   13    9 1  
    19   10   11 ar 
    20   11   12 ar 
    21   12   26 1  
    22   14   13 1  
    23   14   16 1  
    24   19   15 ar 
    25   15   20 ar 
    26   26   22 am 
    27   26   24 2  
    28   26   25 2  
    29    2   27 1  
    30    2   28 1  
    31    3   29 1  
    32    7   30 1  
    33    8   31 1  
    34   10   32 1  
    35   11   33 1  
    36   13   34 1  
    37   13   35 1  
    38   14   36 1  
    39   14   37 1  
    40   15   38 1  
    41   16   39 1  
    42   21   40 1  
    43   21   41 1  
    44   22   42 1  
    45   22   43 1  
@<TRIPOS>SUBSTRUCTURE
     1 CQS         1

