### 
### Created by X-TOOL on Wed Jan  1 15:39:38 2020
### 

@<TRIPOS>MOLECULE
6b5i_ligand
   50    53     1     0     0
SMALL
GAST_HUCK


@<TRIPOS>ATOM
      1 C01        45.2550  146.7790  361.1900 C.3       1 CU4         0.0595
      2 C05        45.1610  149.1330  363.0060 C.ar      1 CU4         0.0876
      3 C06        44.4980  148.7370  364.1890 C.ar      1 CU4        -0.0367
      4 C07        43.6510  149.6330  364.8820 C.ar      1 CU4        -0.0522
      5 C08        43.4230  150.9390  364.3910 C.ar      1 CU4        -0.0105
      6 C09        44.0940  151.3310  363.2080 C.ar      1 CU4        -0.0522
      7 C10        44.9450  150.4410  362.5210 C.ar      1 CU4        -0.0367
      8 C11        42.5860  151.8790  365.0490 C.2       1 CU4         0.0607
      9 C14        40.9790  153.0200  366.0450 C.2       1 CU4         0.0950
     10 C15        41.2460  151.7710  365.4820 C.2       1 CU4         0.0830
     11 C16        40.3330  150.6830  365.3890 C.2       1 CU4         0.2135
     12 C19        37.9870  149.9130  365.7610 C.ar      1 CU4         0.0633
     13 C20        36.7000  150.3820  366.1140 C.ar      1 CU4        -0.0453
     14 C21        35.5930  149.5080  366.1070 C.ar      1 CU4        -0.0772
     15 C22        35.7520  148.1580  365.7440 C.ar      1 CU4        -0.0437
     16 C23        37.0240  147.6710  365.3840 C.ar      1 CU4         0.1191
     17 C25        38.1180  148.5480  365.3950 C.ar      1 CU4        -0.0084
     18 C26        42.2600  155.0720  366.3600 C.ar      1 CU4         0.1251
     19 C27        43.1540  155.9170  365.6640 C.ar      1 CU4        -0.0126
     20 C28        43.3440  157.2530  366.0680 C.ar      1 CU4        -0.0303
     21 C29        42.6370  157.7640  367.1790 C.ar      1 CU4         0.0884
     22 C30        41.7420  156.9250  367.8760 C.ar      1 CU4        -0.0303
     23 C31        41.5530  155.5900  367.4680 C.ar      1 CU4        -0.0126
     24 C32        42.8120  158.9990  367.5520 C.1       1 CU4         0.0930
     25 F24        37.2070  146.4210  365.0410 F         1 CU4        -0.1876
     26 N12        43.0240  153.1120  365.3550 N.2       1 CU4        -0.1891
     27 N13        42.0880  153.7850  365.9450 N.pl3     1 CU4        -0.1490
     28 N18        39.0240  150.8220  365.7800 N.am      1 CU4        -0.2385
     29 N33        42.9730  160.0890  367.8750 N.1       1 CU4        -0.3342
     30 O03        47.1810  148.7940  361.1090 O.2       1 CU4        -0.1697
     31 O04        47.1900  147.2020  363.1480 O.2       1 CU4        -0.1697
     32 O17        40.7540  149.5940  364.9340 O.2       1 CU4        -0.3874
     33 S02        46.2340  148.0060  362.1390 S.o2      1 CU4        -0.0060
     34 H1         45.9363  146.0945  360.6635 H         1 CU4         0.0468
     35 H2         44.6225  147.3020  360.4576 H         1 CU4         0.0468
     36 H3         44.6191  146.2047  361.8798 H         1 CU4         0.0468
     37 H4         44.6404  147.7325  364.5709 H         1 CU4         0.0636
     38 H5         43.1711  149.3146  365.8003 H         1 CU4         0.0621
     39 H6         43.9510  152.3342  362.8229 H         1 CU4         0.0621
     40 H7         45.4382  150.7644  361.6115 H         1 CU4         0.0636
     41 H8         40.0339  153.3268  366.4907 H         1 CU4         0.1119
     42 H9         36.5635  151.4208  366.3920 H         1 CU4         0.0470
     43 H10        34.6127  149.8791  366.3833 H         1 CU4         0.0568
     44 H11        34.8961  147.4928  365.7413 H         1 CU4         0.0476
     45 H12        39.0951  148.1714  365.1150 H         1 CU4         0.0485
     46 H13        43.6995  155.5327  364.8098 H         1 CU4         0.0618
     47 H14        44.0336  157.8897  365.5257 H         1 CU4         0.0702
     48 H15        41.1968  157.3099  368.7302 H         1 CU4         0.0702
     49 H16        40.8599  154.9554  368.0083 H         1 CU4         0.0618
     50 H17        38.7847  151.7258  366.1348 H         1 CU4         0.2243
@<TRIPOS>BOND
     1   33    1 1  
     2    3    2 ar 
     3    7    2 ar 
     4    2   33 1  
     5    4    3 ar 
     6    5    4 ar 
     7    5    6 ar 
     8    8    5 1  
     9    6    7 ar 
    10   10    8 1  
    11    8   26 2  
    12    9   10 2  
    13   27    9 1  
    14   10   11 1  
    15   11   28 am 
    16   11   32 2  
    17   12   13 ar 
    18   12   17 ar 
    19   28   12 1  
    20   13   14 ar 
    21   14   15 ar 
    22   16   15 ar 
    23   17   16 ar 
    24   16   25 1  
    25   18   19 ar 
    26   18   23 ar 
    27   18   27 1  
    28   19   20 ar 
    29   20   21 ar 
    30   21   22 ar 
    31   21   24 1  
    32   22   23 ar 
    33   24   29 3  
    34   26   27 1  
    35   33   30 2  
    36   33   31 2  
    37    1   34 1  
    38    1   35 1  
    39    1   36 1  
    40    3   37 1  
    41    4   38 1  
    42    6   39 1  
    43    7   40 1  
    44    9   41 1  
    45   13   42 1  
    46   14   43 1  
    47   15   44 1  
    48   17   45 1  
    49   19   46 1  
    50   20   47 1  
    51   22   48 1  
    52   23   49 1  
    53   28   50 1  
@<TRIPOS>SUBSTRUCTURE
     1 CU4         1

