### 
### Created by X-TOOL on Wed Jan  1 15:39:37 2020
### 

@<TRIPOS>MOLECULE
6b5j_ligand
   45    47     1     0     0
SMALL
GAST_HUCK


@<TRIPOS>ATOM
      1 C10        53.7590   48.4710   -7.8940 C.ar      1 CV4         0.0653
      2 C13        54.6250   45.4960   -5.8510 C.ar      1 CV4         0.0345
      3 C17        54.3030   42.5130   -6.1030 C.ar      1 CV4        -0.0040
      4 C20        54.6280   40.2530   -4.5730 C.ar      1 CV4        -0.0402
      5 C21        55.0790   41.4680   -4.1130 C.ar      1 CV4        -0.0040
      6 C22        53.5490   38.7830   -6.2500 C.3       1 CV4         0.3580
      7 C01        57.5430   51.4170   -8.8110 C.3       1 CV4         0.0151
      8 N02        56.8320   51.5280   -7.5310 N.am      1 CV4        -0.2507
      9 S03        55.2540   52.1840   -7.5900 S.o2      1 CV4         0.0654
     10 O04        55.1670   53.1870   -8.6410 O.2       1 CV4        -0.1505
     11 O05        54.8560   52.4090   -6.2120 O.2       1 CV4        -0.1505
     12 C06        54.3150   50.7820   -8.1060 C.ar      1 CV4         0.0987
     13 C07        53.4030   50.9490   -9.1240 C.ar      1 CV4        -0.0468
     14 C08        52.6570   49.8650   -9.5340 C.ar      1 CV4        -0.0696
     15 C09        52.8430   48.6420   -8.9220 C.ar      1 CV4        -0.0383
     16 N11        53.8760   47.1720   -7.3320 N.pl3     1 CV4        -0.2564
     17 C12        54.7090   46.8000   -6.2740 C.ar      1 CV4         0.1367
     18 C14        55.4400   45.1090   -4.8040 C.ar      1 CV4         0.1455
     19 N15        55.4280   43.7990   -4.2950 N.pl3     1 CV4        -0.2356
     20 C16        54.9250   42.6100   -4.8680 C.ar      1 CV4         0.1008
     21 C18        53.8460   41.2980   -6.5710 C.ar      1 CV4        -0.0402
     22 C19        54.0090   40.1520   -5.8040 C.ar      1 CV4         0.0285
     23 F23        52.6710   38.1970   -5.3680 F         1 CV4        -0.2370
     24 F24        53.0180   38.7240   -7.5170 F         1 CV4        -0.2370
     25 F25        54.5980   37.9170   -6.3170 F         1 CV4        -0.2370
     26 N26        56.2850   45.9620   -4.2040 N.ar      1 CV4        -0.2611
     27 C27        56.2960   47.2070   -4.6940 C.ar      1 CV4         0.0615
     28 N28        55.5480   47.6740   -5.7010 N.ar      1 CV4        -0.2626
     29 C29        54.5050   49.5680   -7.4830 C.ar      1 CV4        -0.0118
     30 H1         53.9442   44.7957   -6.3213 H         1 CV4         0.0599
     31 H2         54.1740   43.4027   -6.7087 H         1 CV4         0.0647
     32 H3         54.7594   39.3660   -3.9639 H         1 CV4         0.0817
     33 H4         55.5617   41.5279   -3.1442 H         1 CV4         0.0647
     34 H5         58.5396   50.9839   -8.6404 H         1 CV4         0.0439
     35 H6         57.6492   52.4159   -9.2593 H         1 CV4         0.0439
     36 H7         56.9729   50.7681   -9.4921 H         1 CV4         0.0439
     37 H8         57.2486   51.2354   -6.6703 H         1 CV4         0.1669
     38 H9         53.2739   51.9167   -9.5950 H         1 CV4         0.0538
     39 H10        51.9299   49.9722  -10.3308 H         1 CV4         0.0588
     40 H11        52.2576   47.7920   -9.2535 H         1 CV4         0.0536
     41 H12        53.2898   46.4323   -7.7445 H         1 CV4         0.2154
     42 H13        55.8503   43.6893   -3.3620 H         1 CV4         0.2297
     43 H14        53.3595   41.2381   -7.5379 H         1 CV4         0.0817
     44 H15        56.9795   47.9080   -4.2286 H         1 CV4         0.1053
     45 H16        55.2282   49.4702   -6.6815 H         1 CV4         0.0555
@<TRIPOS>BOND
     1    1   15 ar 
     2   16    1 1  
     3    1   29 ar 
     4    2   17 ar 
     5   18    2 ar 
     6   20    3 ar 
     7    3   21 ar 
     8    5    4 ar 
     9    4   22 ar 
    10   20    5 ar 
    11   22    6 1  
    12    6   23 1  
    13    6   24 1  
    14    6   25 1  
    15    8    7 1  
    16    9    8 am 
    17    9   10 2  
    18    9   11 2  
    19   12    9 1  
    20   12   13 ar 
    21   29   12 ar 
    22   14   13 ar 
    23   15   14 ar 
    24   17   16 1  
    25   17   28 ar 
    26   19   18 1  
    27   18   26 ar 
    28   19   20 1  
    29   21   22 ar 
    30   26   27 ar 
    31   27   28 ar 
    32    2   30 1  
    33    3   31 1  
    34    4   32 1  
    35    5   33 1  
    36    7   34 1  
    37    7   35 1  
    38    7   36 1  
    39    8   37 1  
    40   13   38 1  
    41   14   39 1  
    42   15   40 1  
    43   16   41 1  
    44   19   42 1  
    45   21   43 1  
    46   27   44 1  
    47   29   45 1  
@<TRIPOS>SUBSTRUCTURE
     1 CV4         1

