### 
### Created by X-TOOL on Wed Jan  1 15:39:37 2020
### 

@<TRIPOS>MOLECULE
6b5q_ligand
  100   104     1     0     0
SMALL
GAST_HUCK


@<TRIPOS>ATOM
      1 C1          4.2900   21.7650   20.6080 C.2       1 PPI         0.1781
      2 C2          5.2030   20.7800   21.2780 C.3       1 PPI         0.0345
      3 C3          5.6490   21.2220   22.6630 C.3       1 PPI        -0.0482
      4 O1          4.5740   22.9580   20.5050 O.2       1 PPI        -0.3969
      5 N           3.1650   21.2410   20.1120 N.am      1 CZS        -0.2628
      6 C3          2.0890   22.0540   19.5680 C.3       1 CZS         0.1487
      7 C29         1.3490   21.3130   18.4530 C.3       1 CZS         0.0627
      8 C30         2.2810   20.8590   17.3720 C.2       1 CZS         0.1021
      9 S           3.0130   19.2770   17.4340 S.3       1 CZS         0.0083
     10 C36         3.9300   19.6830   16.0130 C.ar      1 CZS         0.0533
     11 C35         4.8820   18.9270   15.3410 C.ar      1 CZS        -0.0365
     12 C34         5.5060   19.4990   14.2450 C.ar      1 CZS         0.0297
     13 CL          6.7200   18.5760   13.3880 Cl        1 CZS        -0.0776
     14 C33         5.2030   20.7790   13.8150 C.ar      1 CZS        -0.0591
     15 C32         4.2490   21.5230   14.4960 C.ar      1 CZS        -0.0582
     16 C31         3.6020   20.9790   15.6030 C.ar      1 CZS         0.0224
     17 N5          2.6500   21.6230   16.3960 N.2       1 CZS        -0.3076
     18 C4          1.1430   22.4840   20.6890 C.2       1 CZS         0.2071
     19 O3          0.0240   21.9890   20.7930 O.2       1 CZS        -0.3941
     20 C5         -0.4290   24.3360   22.5760 C.2       1 2KY         0.2042
     21 C6          0.9550   23.7300   22.7730 C.3       1 2KY         0.1338
     22 N7          1.6180   23.4060   21.5260 N.am      1 2KY        -0.2632
     23 O32        -1.3410   24.0090   23.3210 O.2       1 2KY        -0.3944
     24 C33         1.8350   24.6100   23.6440 C.3       1 2KY        -0.0006
     25 C34         2.9890   23.8230   24.2720 C.3       1 2KY        -0.0460
     26 C35         3.3360   24.5670   25.5310 C.3       1 2KY        -0.0526
     27 C36         2.1980   25.4800   25.8220 C.3       1 2KY        -0.0526
     28 C37         1.1150   25.1530   24.8810 C.3       1 2KY        -0.0460
     29 N          -0.6020   25.1580   21.5330 N.am      1 MLY        -0.2637
     30 CA         -1.8990   25.7450   21.2520 C.3       1 MLY         0.1310
     31 CB         -1.7840   26.9950   20.3760 C.3       1 MLY        -0.0122
     32 CG         -1.2470   28.1890   21.1570 C.3       1 MLY        -0.0440
     33 CD         -1.2190   29.4730   20.3580 C.3       1 MLY        -0.0123
     34 CE         -0.2270   29.4230   19.2030 C.3       1 MLY        -0.0324
     35 NZ          0.1490   30.7350   18.6640 N.4       1 MLY         0.2309
     36 CH1         1.3740   30.6460   17.8640 C.3       1 MLY        -0.0433
     37 CH2        -0.9380   31.3210   17.8700 C.3       1 MLY        -0.0433
     38 C          -2.9280   24.7700   20.6820 C.2       1 MLY         0.2035
     39 O          -4.0570   25.1710   20.4340 O.2       1 MLY        -0.3944
     40 N34        -2.5620   23.4930   20.5170 N.am      1 1XY        -0.2724
     41 C35        -3.4870   22.3980   20.2250 C.3       1 1XY         0.0763
     42 C37        -3.4880   21.3630   21.3470 C.3       1 1XY         0.0061
     43 C38        -3.4240   19.9490   20.8240 C.3       1 1XY         0.0724
     44 O39        -2.3800   19.7390   19.8580 O.3       1 1XY        -0.3214
     45 C40        -2.4480   20.5860   18.7850 C.ar      1 1XY         0.0950
     46 C41        -1.9650   20.1010   17.5780 C.ar      1 1XY        -0.0395
     47 C42        -2.1090   20.8710   16.4330 C.ar      1 1XY        -0.0776
     48 C43        -2.7150   22.1130   16.5020 C.ar      1 1XY        -0.0796
     49 C44        -3.1620   22.6030   17.7180 C.ar      1 1XY        -0.0666
     50 C45        -3.0280   21.8510   18.8820 C.ar      1 1XY         0.0114
     51 H1          6.0957   20.6471   20.6492 H         1 PPI         0.0500
     52 H2          4.6738   19.8202   21.3710 H         1 PPI         0.0500
     53 H3          6.3125   20.4587   23.0955 H         1 PPI         0.0254
     54 H4          4.7676   21.3500   23.3086 H         1 PPI         0.0254
     55 H5          6.1895   22.1770   22.5868 H         1 PPI         0.0254
     56 H6          3.0586   20.2467   20.1151 H         1 CZS         0.1885
     57 H7          2.5325   22.9610   19.1313 H         1 CZS         0.0836
     58 H8          0.5978   21.9869   18.0154 H         1 CZS         0.0592
     59 H9          0.8468   20.4336   18.8824 H         1 CZS         0.0592
     60 H10         5.1285   17.9220   15.6640 H         1 CZS         0.0570
     61 H11         5.7074   21.1981   12.9519 H         1 CZS         0.0558
     62 H12         4.0077   22.5271   14.1663 H         1 CZS         0.0558
     63 H13         0.8107   22.7822   23.3123 H         1 2KY         0.0803
     64 H14         2.4594   23.8900   21.2856 H         1 2KY         0.1883
     65 H15         2.2178   25.4375   23.0286 H         1 2KY         0.0348
     66 H16         3.8521   23.7947   23.5907 H         1 2KY         0.0270
     67 H17         2.6727   22.7958   24.5060 H         1 2KY         0.0270
     68 H18         4.2588   25.1477   25.3850 H         1 2KY         0.0265
     69 H19         3.4754   23.8598   26.3619 H         1 2KY         0.0265
     70 H20         2.5111   26.5255   25.6851 H         1 2KY         0.0265
     71 H21         1.8537   25.3328   26.8563 H         1 2KY         0.0265
     72 H22         0.4459   24.3912   25.3075 H         1 2KY         0.0270
     73 H23         0.5336   26.0522   24.6294 H         1 2KY         0.0270
     74 H24         0.1740   25.3704   20.9391 H         1 MLY         0.1883
     75 H25        -2.2971   26.0761   22.2225 H         1 MLY         0.0800
     76 H26        -2.7800   27.2464   19.9825 H         1 MLY         0.0312
     77 H27        -1.1023   26.7816   19.5395 H         1 MLY         0.0312
     78 H28        -0.2214   27.9592   21.4817 H         1 MLY         0.0269
     79 H29        -1.8853   28.3427   22.0396 H         1 MLY         0.0269
     80 H30        -0.9380   30.2988   21.0281 H         1 MLY         0.0317
     81 H31        -2.2243   29.6567   19.9511 H         1 MLY         0.0317
     82 H32        -0.6763   28.8340   18.3899 H         1 MLY         0.0814
     83 H33         0.6866   28.9227   19.5566 H         1 MLY         0.0814
     84 H34         0.3296   31.3481   19.4435 H         1 MLY         0.2028
     85 H35         1.6305   31.6421   17.4742 H         1 MLY         0.0777
     86 H36         1.2141   29.9537   17.0243 H         1 MLY         0.0777
     87 H37         2.1967   30.2755   18.4931 H         1 MLY         0.0777
     88 H38        -1.8490   31.3809   18.4835 H         1 MLY         0.0777
     89 H39        -1.1299   30.6905   16.9893 H         1 MLY         0.0777
     90 H40        -0.6496   32.3307   17.5423 H         1 MLY         0.0777
     91 H41        -1.5900   23.2726   20.5989 H         1 1XY         0.1878
     92 H42        -4.5095   22.7912   20.1252 H         1 1XY         0.0696
     93 H43        -4.4098   21.4807   21.9356 H         1 1XY         0.0333
     94 H44        -2.6154   21.5408   21.9927 H         1 1XY         0.0333
     95 H45        -4.3880   19.7090   20.3518 H         1 1XY         0.0613
     96 H46        -3.2530   19.2715   21.6735 H         1 1XY         0.0613
     97 H47        -1.4810   19.1322   17.5303 H         1 1XY         0.0521
     98 H48        -1.7459   20.4987   15.4819 H         1 1XY         0.0531
     99 H49        -2.8403   22.7041   15.6020 H         1 1XY         0.0505
    100 H50        -3.6216   23.5837   17.7639 H         1 1XY         0.0526
@<TRIPOS>BOND
     1    1    2 1  
     2    1    4 2  
     3    5    1 am 
     4    2    3 1  
     5    6    5 1  
     6    6    7 1  
     7   18    6 1  
     8    7    8 1  
     9    8    9 1  
    10    8   17 2  
    11    9   10 1  
    12   10   11 ar 
    13   16   10 ar 
    14   11   12 ar 
    15   12   13 1  
    16   14   12 ar 
    17   15   14 ar 
    18   16   15 ar 
    19   17   16 1  
    20   18   19 2  
    21   22   18 am 
    22   21   20 1  
    23   20   23 2  
    24   20   29 am 
    25   21   22 1  
    26   21   24 1  
    27   24   25 1  
    28   24   28 1  
    29   25   26 1  
    30   26   27 1  
    31   27   28 1  
    32   29   30 1  
    33   30   31 1  
    34   30   38 1  
    35   31   32 1  
    36   32   33 1  
    37   33   34 1  
    38   34   35 1  
    39   35   36 1  
    40   35   37 1  
    41   38   39 2  
    42   38   40 am 
    43   40   41 1  
    44   41   42 1  
    45   41   50 1  
    46   42   43 1  
    47   43   44 1  
    48   44   45 1  
    49   45   46 ar 
    50   45   50 ar 
    51   46   47 ar 
    52   47   48 ar 
    53   48   49 ar 
    54   49   50 ar 
    55    2   51 1  
    56    2   52 1  
    57    3   53 1  
    58    3   54 1  
    59    3   55 1  
    60    5   56 1  
    61    6   57 1  
    62    7   58 1  
    63    7   59 1  
    64   11   60 1  
    65   14   61 1  
    66   15   62 1  
    67   21   63 1  
    68   22   64 1  
    69   24   65 1  
    70   25   66 1  
    71   25   67 1  
    72   26   68 1  
    73   26   69 1  
    74   27   70 1  
    75   27   71 1  
    76   28   72 1  
    77   28   73 1  
    78   29   74 1  
    79   30   75 1  
    80   31   76 1  
    81   31   77 1  
    82   32   78 1  
    83   32   79 1  
    84   33   80 1  
    85   33   81 1  
    86   34   82 1  
    87   34   83 1  
    88   35   84 1  
    89   36   85 1  
    90   36   86 1  
    91   36   87 1  
    92   37   88 1  
    93   37   89 1  
    94   37   90 1  
    95   40   91 1  
    96   41   92 1  
    97   42   93 1  
    98   42   94 1  
    99   43   95 1  
   100   43   96 1  
   101   46   97 1  
   102   47   98 1  
   103   48   99 1  
   104   49  100 1  
@<TRIPOS>SUBSTRUCTURE
     1 PPI         1

