### 
### Created by X-TOOL on Mon Sep 10 21:13:31 2018
### 

@<TRIPOS>MOLECULE
6b7a_ligand
   19    20     1     0     0
SMALL
GAST_HUCK


@<TRIPOS>ATOM
      1 C1        -34.1910  -32.4170   55.2970 C.ar      1 CWM        -0.0502
      2 C2        -35.2560  -32.6920   54.4510 C.ar      1 CWM        -0.0867
      3 C3        -35.9280  -33.9020   54.5240 C.ar      1 CWM        -0.0544
      4 C11       -35.4240  -37.8860   57.4130 C.3       1 CWM         0.0164
      5 C4        -33.7750  -33.3580   56.2350 C.ar      1 CWM         0.0870
      6 C6        -34.4650  -34.5790   56.2820 C.ar      1 CWM         0.0519
      7 C7        -35.5170  -34.8490   55.4600 C.ar      1 CWM         0.0702
      8 C9        -35.2710  -36.5640   56.7440 C.2       1 CWM         0.1136
      9 N10       -34.3090  -35.6760   57.0990 N.2       1 CWM        -0.3212
     10 N8        -36.0330  -36.1150   55.7530 N.pl3     1 CWM        -0.2509
     11 O5        -32.7480  -33.0730   57.0780 O.3       1 CWM        -0.3372
     12 H1        -33.6798  -31.4637   55.2271 H         1 CWM         0.0425
     13 H2        -35.5664  -31.9508   53.7235 H         1 CWM         0.0500
     14 H3        -36.7614  -34.1087   53.8624 H         1 CWM         0.0438
     15 H4        -34.6586  -37.9914   58.1960 H         1 CWM         0.0490
     16 H5        -35.3023  -38.6888   56.6709 H         1 CWM         0.0490
     17 H6        -36.4240  -37.9541   57.8662 H         1 CWM         0.0490
     18 H7        -36.8262  -36.5924   55.3016 H         1 CWM         0.2311
     19 H8        -32.4156  -32.2036   56.8878 H         1 CWM         0.2471
@<TRIPOS>BOND
     1    1    2 ar 
     2    5    1 ar 
     3    3    2 ar 
     4    7    3 ar 
     5    8    4 1  
     6    6    5 ar 
     7    5   11 1  
     8    6    7 ar 
     9    9    6 1  
    10    7   10 1  
    11    8    9 2  
    12    8   10 1  
    13    1   12 1  
    14    2   13 1  
    15    3   14 1  
    16    4   15 1  
    17    4   16 1  
    18    4   17 1  
    19   10   18 1  
    20   11   19 1  
@<TRIPOS>SUBSTRUCTURE
     1 CWM         1

