### 
### Created by X-TOOL on Mon Sep 10 21:13:31 2018
### 

@<TRIPOS>MOLECULE
6b7b_ligand
   23    24     1     0     0
SMALL
GAST_HUCK


@<TRIPOS>ATOM
      1 C1        -38.2170   32.3540   54.7750 C.ar      1 CWJ         0.0495
      2 C2        -38.3520   31.1750   54.0690 C.ar      1 CWJ        -0.0481
      3 C12       -34.8720   30.1670   51.6790 C.3       1 CWJ         0.0567
      4 C10       -41.7940   32.0960   55.1920 C.3       1 CWJ        -0.0067
      5 C4        -36.9780   32.9620   54.9490 C.ar      1 CWJ        -0.0527
      6 C5        -37.2610   30.5320   53.4970 C.ar      1 CWJ        -0.0541
      7 C6        -39.8300   30.8970   54.1360 C.2       1 CWJ        -0.0709
      8 C7        -40.3490   31.9100   54.8450 C.2       1 CWJ         0.0358
      9 C8        -35.8680   32.3270   54.3790 C.ar      1 CWJ        -0.0489
     10 C9        -36.0020   31.1240   53.6590 C.ar      1 CWJ         0.0691
     11 N3        -39.4220   32.7520   55.2150 N.pl3     1 CWJ        -0.2784
     12 O11       -34.9050   30.4740   53.0810 O.3       1 CWJ        -0.3308
     13 H1        -33.9264   29.6599   51.4369 H         1 CWJ         0.0573
     14 H2        -34.9480   31.0979   51.0979 H         1 CWJ         0.0573
     15 H3        -35.7162   29.5080   51.4280 H         1 CWJ         0.0573
     16 H4        -42.3813   31.2650   54.7742 H         1 CWJ         0.0436
     17 H5        -42.1528   33.0467   54.7708 H         1 CWJ         0.0436
     18 H6        -41.9092   32.1128   56.2858 H         1 CWJ         0.0436
     19 H7        -36.8762   33.8884   55.5026 H         1 CWJ         0.0517
     20 H8        -37.3799   29.6063   52.9457 H         1 CWJ         0.0403
     21 H9        -40.3639   30.0532   53.7014 H         1 CWJ         0.0155
     22 H10       -34.8855   32.7703   54.4942 H         1 CWJ         0.0453
     23 H11       -39.5916   33.6041   55.7682 H         1 CWJ         0.2237
@<TRIPOS>BOND
     1    2    1 ar 
     2    5    1 ar 
     3    1   11 1  
     4    6    2 ar 
     5    2    7 1  
     6   12    3 1  
     7    8    4 1  
     8    9    5 ar 
     9   10    6 ar 
    10    7    8 2  
    11   11    8 1  
    12   10    9 ar 
    13   10   12 1  
    14    3   13 1  
    15    3   14 1  
    16    3   15 1  
    17    4   16 1  
    18    4   17 1  
    19    4   18 1  
    20    5   19 1  
    21    6   20 1  
    22    7   21 1  
    23    9   22 1  
    24   11   23 1  
@<TRIPOS>SUBSTRUCTURE
     1 CWJ         1

