### 
### Created by X-TOOL on Mon Sep 10 21:13:31 2018
### 

@<TRIPOS>MOLECULE
6b7c_ligand
   35    37     1     0     0
SMALL
GAST_HUCK


@<TRIPOS>ATOM
      1 C1         37.3480   99.6320  192.6180 C.2       1 CWP         0.2202
      2 C3         35.4370   99.9240  191.7180 C.ar      1 CWP         0.0696
      3 C12        40.3210  100.1200  192.1230 C.2       1 CWP         0.0852
      4 C13        39.9390  101.3590  191.7760 C.2       1 CWP        -0.0470
      5 C14        40.9030  101.7670  190.7500 C.2       1 CWP        -0.0097
      6 C16        42.1180   98.5450  191.5130 C.3       1 CWP         0.0554
      7 C17        40.9610  103.0630  189.9950 C.3       1 CWP        -0.0313
      8 C18        39.6630   99.2510  193.1560 C.3       1 CWP         0.0948
      9 C10        32.2430  100.2060  189.9440 C.3       1 CWP        -0.0222
     10 C4         36.1590   98.9970  190.9790 C.ar      1 CWP         0.0946
     11 C7         33.6520   99.7460  190.2880 C.ar      1 CWP         0.0023
     12 C8         34.3350   98.7980  189.5140 C.ar      1 CWP        -0.0490
     13 C9         35.6330   98.3960  189.8380 C.ar      1 CWP        -0.0309
     14 N11        41.3840   99.7960  191.4310 N.pl3     1 CWP        -0.2167
     15 N15        41.7080  100.8080  190.6100 N.2       1 CWP        -0.2431
     16 N19        38.3340   99.7710  193.4600 N.pl3     1 CWP        -0.2575
     17 N2         36.2600  100.2730  192.7180 N.2       1 CWP        -0.2976
     18 N5         37.3620   98.8470  191.5710 N.pl3     1 CWP        -0.2255
     19 N6         34.2010  100.2910  191.3930 N.ar      1 CWP        -0.3159
     20 H1         39.1007  101.9326  192.1687 H         1 CWP         0.0216
     21 H2         42.9632   98.5690  190.8093 H         1 CWP         0.0589
     22 H3         41.4498   97.7102  191.2550 H         1 CWP         0.0589
     23 H4         42.4969   98.4086  192.5366 H         1 CWP         0.0589
     24 H5         41.8111  103.0431  189.2972 H         1 CWP         0.0373
     25 H6         41.0877  103.8948  190.7035 H         1 CWP         0.0373
     26 H7         40.0268  103.2009  189.4309 H         1 CWP         0.0373
     27 H8         40.2722   99.2461  194.0719 H         1 CWP         0.0739
     28 H9         39.5747   98.2252  192.7688 H         1 CWP         0.0739
     29 H10        31.9039   99.6966  189.0299 H         1 CWP         0.0403
     30 H11        32.2423  101.2936  189.7794 H         1 CWP         0.0403
     31 H12        31.5642   99.9603  190.7739 H         1 CWP         0.0403
     32 H13        33.8465   98.3683  188.6470 H         1 CWP         0.0546
     33 H14        36.1865   97.6741  189.2485 H         1 CWP         0.0645
     34 H15        38.1720  100.2558  194.3542 H         1 CWP         0.1939
     35 H16        38.1338   98.2389  191.2620 H         1 CWP         0.2322
@<TRIPOS>BOND
     1    1   16 1  
     2   17    1 2  
     3    1   18 1  
     4    2   10 ar 
     5    2   17 1  
     6   19    2 ar 
     7    3    4 2  
     8    8    3 1  
     9    3   14 1  
    10    4    5 1  
    11    5    7 1  
    12    5   15 2  
    13   14    6 1  
    14   16    8 1  
    15   11    9 1  
    16   10   13 ar 
    17   10   18 1  
    18   11   12 ar 
    19   11   19 ar 
    20   12   13 ar 
    21   14   15 1  
    22    4   20 1  
    23    6   21 1  
    24    6   22 1  
    25    6   23 1  
    26    7   24 1  
    27    7   25 1  
    28    7   26 1  
    29    8   27 1  
    30    8   28 1  
    31    9   29 1  
    32    9   30 1  
    33    9   31 1  
    34   12   32 1  
    35   13   33 1  
    36   16   34 1  
    37   18   35 1  
@<TRIPOS>SUBSTRUCTURE
     1 CWP         1

