### 
### Created by X-TOOL on Mon Sep 10 21:13:32 2018
### 

@<TRIPOS>MOLECULE
6b7d_ligand
   30    31     1     0     0
SMALL
GAST_HUCK


@<TRIPOS>ATOM
      1 C1       -100.0090   38.5750  192.0730 C.ar      1 CWG         0.0622
      2 C2        -99.8530   37.2800  191.3660 C.ar      1 CWG         0.0115
      3 C3        -99.1570   38.8040  193.1520 C.ar      1 CWG         0.0153
      4 C11       -98.6740   35.8870  189.7480 C.ar      1 CWG        -0.0414
      5 C12      -100.1770   40.9260  193.4710 C.ar      1 CWG         0.1772
      6 C13       -98.2910   40.2700  195.0680 C.3       1 CWG        -0.0178
      7 C14       -99.4940   34.8090  190.0960 C.ar      1 CWG         0.0462
      8 C17      -101.0660   42.0710  195.3660 C.3       1 CWG         0.0686
      9 C10      -100.4720   34.9740  191.0750 C.ar      1 CWG        -0.0414
     10 C5       -100.6560   36.1960  191.7220 C.ar      1 CWG        -0.0445
     11 C6        -98.8570   37.1180  190.3870 C.ar      1 CWG        -0.0445
     12 C7        -99.2260   39.9870  193.8740 C.ar      1 CWG         0.0439
     13 C8        -98.1590   37.7060  193.5010 C.3       1 CWG        -0.0201
     14 N4       -100.9160   39.5050  191.7210 N.ar      1 CWG        -0.2827
     15 N9       -100.9890   40.6600  192.4180 N.ar      1 CWG        -0.2681
     16 O15      -100.2830   42.1270  194.1690 O.3       1 CWG        -0.2891
     17 CL1       -99.3160   33.2440  189.3280 Cl        1 CWG        -0.0653
     18 H1        -97.9058   35.7702  188.9922 H         1 CWG         0.0638
     19 H2        -97.6213   39.4109  195.2209 H         1 CWG         0.0414
     20 H3        -98.8926   40.4318  195.9746 H         1 CWG         0.0414
     21 H4        -97.6923   41.1690  194.8599 H         1 CWG         0.0414
     22 H5       -101.0860   43.0645  195.8378 H         1 CWG         0.0594
     23 H6       -100.6214   41.3438  196.0613 H         1 CWG         0.0594
     24 H7       -102.0923   41.7618  195.1187 H         1 CWG         0.0594
     25 H8       -101.1039   34.1339  191.3396 H         1 CWG         0.0638
     26 H9       -101.4126   36.3020  192.4910 H         1 CWG         0.0673
     27 H10       -98.2231   37.9572  190.1241 H         1 CWG         0.0673
     28 H11       -98.2799   36.8650  192.8023 H         1 CWG         0.0419
     29 H12       -98.3411   37.3580  194.5285 H         1 CWG         0.0419
     30 H13       -97.1358   38.1024  193.4240 H         1 CWG         0.0419
@<TRIPOS>BOND
     1    2    1 1  
     2    1    3 ar 
     3    1   14 ar 
     4    2   10 ar 
     5   11    2 ar 
     6    3   12 ar 
     7    3   13 1  
     8    4    7 ar 
     9    4   11 ar 
    10   12    5 ar 
    11    5   15 ar 
    12    5   16 1  
    13   12    6 1  
    14    7    9 ar 
    15    7   17 1  
    16   16    8 1  
    17    9   10 ar 
    18   14   15 ar 
    19    4   18 1  
    20    6   19 1  
    21    6   20 1  
    22    6   21 1  
    23    8   22 1  
    24    8   23 1  
    25    8   24 1  
    26    9   25 1  
    27   10   26 1  
    28   11   27 1  
    29   13   28 1  
    30   13   29 1  
    31   13   30 1  
@<TRIPOS>SUBSTRUCTURE
     1 CWG         1

