### 
### Created by X-TOOL on Mon Sep 10 21:13:31 2018
### 

@<TRIPOS>MOLECULE
6b7e_ligand
   35    37     1     0     0
SMALL
GAST_HUCK


@<TRIPOS>ATOM
      1 C1         12.1060  164.6260  300.9910 C.ar      1 CWA        -0.0639
      2 C2         11.0070  165.4950  300.8660 C.ar      1 CWA        -0.0627
      3 C3          9.8300  165.2250  301.5820 C.ar      1 CWA        -0.0470
      4 C12         9.0330  160.5320  304.6850 C.3       1 CWA        -0.0267
      5 C13         8.8710  160.9300  302.1840 C.3       1 CWA        -0.0267
      6 C15        10.9640  163.7980  305.3200 C.2       1 CWA         0.0926
      7 C17        12.0940  162.6710  306.8440 C.2       1 CWA        -0.0218
      8 C18        11.8510  161.9360  305.7430 C.2       1 CWA         0.1226
      9 C19        12.2580  160.5110  305.5360 C.3       1 CWA         0.2950
     10 C10        10.7510  162.0790  303.5370 C.3       1 CWA         0.1390
     11 C4         12.0550  163.5060  301.8350 C.ar      1 CWA        -0.0510
     12 C5         10.8810  163.2580  302.5630 C.ar      1 CWA         0.0155
     13 C6          9.7820  164.1070  302.4280 C.ar      1 CWA         0.0665
     14 C7          8.5560  163.7980  303.2490 C.2       1 CWA         0.2590
     15 C9          9.2790  161.5640  303.5550 C.3       1 CWA         0.1324
     16 F20        13.2390  160.4300  304.5710 F         1 CWA        -0.1917
     17 F21        12.5710  159.9920  306.7510 F         1 CWA        -0.1917
     18 N14        11.1730  162.6000  304.8460 N.pl3     1 CWA        -0.2247
     19 N16        11.4650  163.9070  306.4640 N.2       1 CWA        -0.3433
     20 O11         7.7260  164.6700  303.3930 O.2       1 CWA        -0.3610
     21 O8          8.3520  162.6270  303.8650 O.3       1 CWA        -0.2671
     22 H1         13.0088  164.8251  300.4250 H         1 CWA         0.0637
     23 H2         11.0683  166.3653  300.2226 H         1 CWA         0.0572
     24 H3          8.9673  165.8737  301.4822 H         1 CWA         0.0654
     25 H4          7.9847  160.2000  304.6564 H         1 CWA         0.0263
     26 H5          9.2437  160.9976  305.6591 H         1 CWA         0.0263
     27 H6          9.6959  159.6660  304.5414 H         1 CWA         0.0263
     28 H7          9.0434  161.6580  301.3776 H         1 CWA         0.0263
     29 H8          7.8060  160.6561  302.2091 H         1 CWA         0.0263
     30 H9          9.4768  160.0302  302.0013 H         1 CWA         0.0263
     31 H10        10.4305  164.5899  304.7964 H         1 CWA         0.1152
     32 H11        12.6177  162.4054  307.7611 H         1 CWA         0.0326
     33 H12        11.3904  159.9522  305.1552 H         1 CWA         0.1206
     34 H13        11.4142  161.2564  303.2312 H         1 CWA         0.0869
     35 H14        12.9083  162.8433  301.9232 H         1 CWA         0.0570
@<TRIPOS>BOND
     1    1    2 ar 
     2   11    1 ar 
     3    2    3 ar 
     4    3   13 ar 
     5   15    4 1  
     6   15    5 1  
     7   18    6 1  
     8    6   19 2  
     9    8    7 2  
    10    7   19 1  
    11    8    9 1  
    12   18    8 1  
    13    9   16 1  
    14    9   17 1  
    15   12   10 1  
    16   10   15 1  
    17   10   18 1  
    18   11   12 ar 
    19   12   13 ar 
    20   13   14 1  
    21   14   20 2  
    22   14   21 1  
    23   15   21 1  
    24    1   22 1  
    25    2   23 1  
    26    3   24 1  
    27    4   25 1  
    28    4   26 1  
    29    4   27 1  
    30    5   28 1  
    31    5   29 1  
    32    5   30 1  
    33    6   31 1  
    34    7   32 1  
    35    9   33 1  
    36   10   34 1  
    37   11   35 1  
@<TRIPOS>SUBSTRUCTURE
     1 CWA         1

