### 
### Created by X-TOOL on Mon Sep 10 21:13:31 2018
### 

@<TRIPOS>MOLECULE
6b7f_ligand
   36    38     1     0     0
SMALL
GAST_HUCK


@<TRIPOS>ATOM
      1 C1         29.1440  123.6840  165.8090 C.ar      1 CW4        -0.0639
      2 C2         29.9770  124.7900  165.6040 C.ar      1 CW4        -0.0627
      3 C3         29.7720  125.9680  166.3400 C.ar      1 CW4        -0.0470
      4 C12        25.3640  126.8340  169.7980 C.3       1 CW4        -0.0267
      5 C13        25.3530  126.8110  167.3010 C.3       1 CW4        -0.0267
      6 C15        28.5110  124.8630  170.2130 C.2       1 CW4         0.1040
      7 C17        27.5520  123.8390  171.8990 C.2       1 CW4        -0.0080
      8 C18        26.6580  124.0240  170.8860 C.2       1 CW4         0.0764
      9 C19        25.2410  123.5640  171.0090 C.2       1 CW4        -0.0450
     10 C20        24.2760  123.5420  170.0730 C.2       1 CW4        -0.1048
     11 C10        26.7800  125.0970  168.5440 C.3       1 CW4         0.1387
     12 C4         28.1120  123.7920  166.7550 C.ar      1 CW4        -0.0510
     13 C5         27.9030  124.9660  167.4940 C.ar      1 CW4         0.0154
     14 C6         28.7430  126.0590  167.2790 C.ar      1 CW4         0.0665
     15 C7         28.4910  127.3170  168.0790 C.2       1 CW4         0.2590
     16 C9         26.2500  126.5670  168.5500 C.3       1 CW4         0.1323
     17 N14        27.2720  124.6640  169.8690 N.pl3     1 CW4        -0.2259
     18 N16        28.7470  124.4200  171.3630 N.2       1 CW4        -0.3196
     19 O11        29.3770  128.1420  168.2490 O.2       1 CW4        -0.3610
     20 O8         27.2930  127.5810  168.6200 O.3       1 CW4        -0.2671
     21 H1         29.2920  122.7665  165.2511 H         1 CW4         0.0637
     22 H2         30.7798  124.7371  164.8775 H         1 CW4         0.0572
     23 H3         30.4225  126.8196  166.1766 H         1 CW4         0.0654
     24 H4         25.0051  127.8736  169.7772 H         1 CW4         0.0263
     25 H5         25.9561  126.6688  170.7102 H         1 CW4         0.0263
     26 H6         24.5035  126.1488  169.7902 H         1 CW4         0.0263
     27 H7         25.9399  126.6332  166.3878 H         1 CW4         0.0263
     28 H8         24.9902  127.8494  167.3073 H         1 CW4         0.0263
     29 H9         24.4953  126.1227  167.3254 H         1 CW4         0.0263
     30 H10        29.2508  125.3529  169.5816 H         1 CW4         0.1257
     31 H11        27.3970  123.3690  172.8691 H         1 CW4         0.0521
     32 H12        24.9503  123.1961  171.9919 H         1 CW4         0.0615
     33 H13        23.2827  123.1726  170.3236 H         1 CW4         0.0449
     34 H14        24.4877  123.8936  169.0643 H         1 CW4         0.0449
     35 H15        25.9501  124.4346  168.2567 H         1 CW4         0.0868
     36 H16        27.4577  122.9435  166.9191 H         1 CW4         0.0570
@<TRIPOS>BOND
     1    1    2 ar 
     2   12    1 ar 
     3    2    3 ar 
     4    3   14 ar 
     5   16    4 1  
     6   16    5 1  
     7   17    6 1  
     8    6   18 2  
     9    8    7 2  
    10    7   18 1  
    11    8    9 1  
    12   17    8 1  
    13    9   10 2  
    14   13   11 1  
    15   11   16 1  
    16   11   17 1  
    17   12   13 ar 
    18   13   14 ar 
    19   14   15 1  
    20   15   19 2  
    21   15   20 1  
    22   16   20 1  
    23    1   21 1  
    24    2   22 1  
    25    3   23 1  
    26    4   24 1  
    27    4   25 1  
    28    4   26 1  
    29    5   27 1  
    30    5   28 1  
    31    5   29 1  
    32    6   30 1  
    33    7   31 1  
    34    9   32 1  
    35   10   33 1  
    36   10   34 1  
    37   11   35 1  
    38   12   36 1  
@<TRIPOS>SUBSTRUCTURE
     1 CW4         1

