### 
### Created by X-TOOL on Wed Jan  1 15:39:36 2020
### 

@<TRIPOS>MOLECULE
6b7h_ligand
   41    43     1     0     0
SMALL
GAST_HUCK


@<TRIPOS>ATOM
      1 O1        -12.4260   96.4510    8.0060 O.co2     1 CWY        -0.5422
      2 C7        -12.3530   94.5040   10.7110 C.3       1 CWY         0.0516
      3 O2         -7.6440   93.6970   11.8330 O.co2     1 CWY        -0.5687
      4 C6        -10.9860   95.0510   10.9280 C.3       1 CWY         0.0064
      5 C1        -11.1110   94.4520    8.6150 C.3       1 CWY         0.0396
      6 N1        -13.1690   95.6860   10.7450 N.am      1 CWY        -0.2827
      7 C5         -8.5880   94.5060   11.3070 C.2       1 CWY         0.0386
      8 C4         -9.8350   94.1440   10.6940 C.3       1 CWY         0.0254
      9 C3        -10.2870   95.0860    9.6200 C.3       1 CWY         0.0314
     10 C2        -11.6540   95.4070    7.6430 C.2       1 CWY         0.0964
     11 O4        -13.5060   95.5660   12.8950 O.2       1 CWY        -0.3847
     12 C8        -13.6610   96.1390   11.9110 C.2       1 CWY         0.2026
     13 C9        -14.4010   97.3450   11.8730 C.ar      1 CWY         0.0411
     14 C14       -14.6200   98.0090   13.0350 C.ar      1 CWY        -0.0135
     15 C13       -15.1870   99.2320   12.9870 C.ar      1 CWY         0.0960
     16 O5        -15.3390  100.0160   14.0280 O.3       1 CWY        -0.3202
     17 C15       -14.8350   99.5610   15.2170 C.3       1 CWY         0.0594
     18 C12       -15.5770   99.7660   11.8290 C.ar      1 CWY        -0.0288
     19 C11       -15.3740   99.0810   10.6850 C.ar      1 CWY        -0.0649
     20 C10       -14.7750   97.8600   10.7040 C.ar      1 CWY        -0.0531
     21 C         -12.2710   93.8780    9.3550 C.3       1 CWY         0.0220
     22 O3         -8.3500   95.8330   11.3340 O.co2     1 CWY        -0.5687
     23 N         -10.3730   93.4610    7.9820 N.4       1 CWY         0.2233
     24 O         -11.4260   95.3020    6.3170 O.co2     1 CWY        -0.5422
     25 H1        -12.6638   93.7739   11.4728 H         1 CWY         0.0560
     26 H2        -10.9473   95.8511   11.6818 H         1 CWY         0.0348
     27 H3        -13.3721   96.1745    9.8964 H         1 CWY         0.1848
     28 H4         -9.9610   93.0537   10.6203 H         1 CWY         0.0473
     29 H5         -9.6810   95.9274    9.2529 H         1 CWY         0.0377
     30 H6        -14.3445   97.5651   13.9848 H         1 CWY         0.0592
     31 H7        -15.0256  100.3048   16.0046 H         1 CWY         0.0577
     32 H8        -13.7512   99.4008   15.1186 H         1 CWY         0.0577
     33 H9        -15.3233   98.6119   15.4831 H         1 CWY         0.0577
     34 H10       -16.0521  100.7401   11.8073 H         1 CWY         0.0578
     35 H11       -15.6915   99.5080    9.7406 H         1 CWY         0.0601
     36 H12       -14.6050   97.3153    9.7823 H         1 CWY         0.0575
     37 H13       -13.1982   94.0823    8.7996 H         1 CWY         0.0338
     38 H14       -12.1382   92.7911    9.4598 H         1 CWY         0.0338
     39 H15        -9.5982   93.8802    7.4921 H         1 CWY         0.1999
     40 H16       -10.9608   92.9720    7.3252 H         1 CWY         0.1999
     41 H17       -10.0240   92.8113    8.6691 H         1 CWY         0.1999
@<TRIPOS>BOND
     1   10    1 ar 
     2    4    2 1  
     3    2    6 1  
     4    2   21 1  
     5    7    3 ar 
     6    8    4 1  
     7    4    9 1  
     8    9    5 1  
     9    5   10 1  
    10    5   21 1  
    11    5   23 1  
    12    6   12 am 
    13    7    8 1  
    14    7   22 ar 
    15    8    9 1  
    16   10   24 ar 
    17   12   11 2  
    18   12   13 1  
    19   13   14 ar 
    20   13   20 ar 
    21   14   15 ar 
    22   15   16 1  
    23   15   18 ar 
    24   16   17 1  
    25   18   19 ar 
    26   19   20 ar 
    27    2   25 1  
    28    4   26 1  
    29    6   27 1  
    30    8   28 1  
    31    9   29 1  
    32   14   30 1  
    33   17   31 1  
    34   17   32 1  
    35   17   33 1  
    36   18   34 1  
    37   19   35 1  
    38   20   36 1  
    39   21   37 1  
    40   21   38 1  
    41   23   39 1  
    42   23   40 1  
    43   23   41 1  
@<TRIPOS>SUBSTRUCTURE
     1 CWY         1

