### 
### Created by X-TOOL on Mon Sep 10 21:13:34 2018
### 

@<TRIPOS>MOLECULE
6b8j_ligand
   50    53     1     0     0
SMALL
GAST_HUCK


@<TRIPOS>ATOM
      1 C2         -3.0740   45.7910   13.9250 C.2       1 65C        -0.0231
      2 C3         -2.9990   45.2740   16.0710 C.2       1 65C         0.1330
      3 C4         -2.6130   44.7240   17.3290 C.ar      1 65C         0.0641
      4 C5         -2.2680   43.3310   17.4970 C.ar      1 65C         0.0648
      5 C6         -1.9410   43.8050   19.6570 C.ar      1 65C         0.1896
      6 N7         -2.2300   45.0460   19.5650 N.ar      1 65C        -0.2546
      7 C9         -2.0590   39.0840   20.8320 C.ar      1 65C         0.1213
      8 C10        -1.6420   36.9520   20.1010 C.ar      1 65C         0.0322
      9 C11        -1.9350   37.2890   18.7820 C.ar      1 65C         0.1084
     10 C12        -2.3050   38.6020   18.4860 C.ar      1 65C        -0.0200
     11 C13        -2.3710   39.5260   19.5070 C.ar      1 65C        -0.0053
     12 C14        -1.8520   36.3190   17.7760 C.1       1 65C         0.0963
     13 C21        -1.0430   41.6680   16.1590 C.ar      1 65C        -0.0476
     14 CL1        -2.0100   39.0620   13.3250 Cl        1 65C        -0.0673
     15 C19        -2.1300   40.3150   14.5330 C.ar      1 65C         0.0444
     16 C18        -3.3490   40.8770   14.7780 C.ar      1 65C        -0.0298
     17 C17        -3.3980   41.8640   15.7420 C.ar      1 65C         0.0546
     18 CL         -4.9420   42.6260   16.0990 Cl        1 65C        -0.0660
     19 C20        -0.9710   40.6870   15.2060 C.ar      1 65C        -0.0436
     20 C16        -2.2440   42.2640   16.4420 C.ar      1 65C         0.0178
     21 N2         -1.9400   42.9250   18.6940 N.ar      1 65C        -0.2510
     22 C15        -2.5530   45.4850   18.4190 C.ar      1 65C         0.0247
     23 N          -2.3670   45.0600   14.8830 N.2       1 65C        -0.3373
     24 N1         -4.0890   46.1000   15.9140 N.pl3     1 65C        -0.2576
     25 C1         -4.1170   46.4090   14.6040 C.2       1 65C         0.0524
     26 C          -5.1260   47.2930   14.0570 C.3       1 65C        -0.0074
     27 N3         -1.5990   43.3990   20.8870 N.pl3     1 65C        -0.2873
     28 C7         -1.2450   42.0740   21.1180 C.3       1 65C         0.0512
     29 C8         -2.4240   41.3100   21.7490 C.3       1 65C         0.0492
     30 N4         -2.0990   39.9430   21.8860 N.pl3     1 65C        -0.3008
     31 N5         -1.7040   37.8020   21.1110 N.ar      1 65C        -0.2709
     32 N6         -1.7800   35.5250   16.9450 N.1       1 65C        -0.3342
     33 H1         -2.8524   45.8621   12.8611 H         1 65C         0.0362
     34 H2         -1.3452   35.9310   20.3120 H         1 65C         0.0892
     35 H3         -2.5372   38.8911   17.4674 H         1 65C         0.0793
     36 H4         -2.6505   40.5551   19.3123 H         1 65C         0.0633
     37 H5         -0.1487   41.9734   16.6901 H         1 65C         0.0654
     38 H6         -4.2369   40.5633   14.2411 H         1 65C         0.0638
     39 H7         -0.0253   40.2079   14.9797 H         1 65C         0.0633
     40 H8         -2.7932   46.5377   18.3227 H         1 65C         0.0900
     41 H9         -4.7441   46.4148   16.6439 H         1 65C         0.2359
     42 H10        -4.9646   47.4085   12.9751 H         1 65C         0.0419
     43 H11        -5.0558   48.2762   14.5452 H         1 65C         0.0419
     44 H12        -6.1237   46.8655   14.2353 H         1 65C         0.0419
     45 H13        -1.5982   44.0723   21.6665 H         1 65C         0.1867
     46 H14        -0.3839   42.0420   21.8017 H         1 65C         0.0545
     47 H15        -0.9734   41.5989   20.1638 H         1 65C         0.0545
     48 H16        -3.3094   41.4105   21.1041 H         1 65C         0.0543
     49 H17        -2.6426   41.7330   22.7406 H         1 65C         0.0543
     50 H18        -1.8827   39.5801   22.8254 H         1 65C         0.1838
@<TRIPOS>BOND
     1   23    1 1  
     2   25    1 2  
     3    3    2 1  
     4    2   23 2  
     5    2   24 1  
     6    4    3 ar 
     7   22    3 ar 
     8    4   20 1  
     9   21    4 ar 
    10    5    6 ar 
    11    5   21 ar 
    12   27    5 1  
    13    6   22 ar 
    14    7   11 ar 
    15   30    7 1  
    16    7   31 ar 
    17    8    9 ar 
    18   31    8 ar 
    19   10    9 ar 
    20    9   12 1  
    21   11   10 ar 
    22   12   32 3  
    23   13   19 ar 
    24   20   13 ar 
    25   15   14 1  
    26   16   15 ar 
    27   19   15 ar 
    28   17   16 ar 
    29   17   18 1  
    30   20   17 ar 
    31   24   25 1  
    32   25   26 1  
    33   28   27 1  
    34   29   28 1  
    35   29   30 1  
    36    1   33 1  
    37    8   34 1  
    38   10   35 1  
    39   11   36 1  
    40   13   37 1  
    41   16   38 1  
    42   19   39 1  
    43   22   40 1  
    44   24   41 1  
    45   26   42 1  
    46   26   43 1  
    47   26   44 1  
    48   27   45 1  
    49   28   46 1  
    50   28   47 1  
    51   29   48 1  
    52   29   49 1  
    53   30   50 1  
@<TRIPOS>SUBSTRUCTURE
     1 65C         1

