### 
### Created by X-TOOL on Mon Sep 10 21:13:32 2018
### 

@<TRIPOS>MOLECULE
6b8u_ligand
   52    55     1     0     0
SMALL
GAST_HUCK


@<TRIPOS>ATOM
      1 C1        -25.6480    3.8070  -10.9300 C.ar      1 8EN        -0.0548
      2 C2        -24.7520    4.0230   -9.8610 C.ar      1 8EN        -0.0330
      3 C3        -25.0310    3.4820   -8.6000 C.ar      1 8EN        -0.0438
      4 C11       -26.9260    0.8900   -4.6100 C.ar      1 8EN        -0.0142
      5 C12       -27.3560    0.2910   -3.4370 C.ar      1 8EN        -0.0272
      6 C13       -27.6480    1.0700   -2.3260 C.ar      1 8EN        -0.0278
      7 C14       -27.5220    2.4550   -2.3810 C.ar      1 8EN         0.0540
      8 C15       -27.0920    3.0520   -3.5660 C.ar      1 8EN        -0.0107
      9 C16       -25.5220    4.4890  -12.2690 C.3       1 8EN        -0.0378
     10 C17       -23.5040    4.8120  -10.0370 C.2       1 8EN         0.0097
     11 C18       -23.5620    6.1470  -10.2770 C.2       1 8EN         0.0839
     12 C20       -21.1270    6.2420  -10.5450 C.2       1 8EN         0.1267
     13 C21       -21.0410    4.8560  -10.2570 C.2       1 8EN        -0.0216
     14 C22       -22.1870    4.1620  -10.0060 C.2       1 8EN        -0.0571
     15 C23       -22.2220    8.1780  -10.8090 C.2       1 8EN         0.0646
     16 C24       -20.8840    8.3120  -10.9960 C.2       1 8EN         0.0945
     17 C27       -20.6940   10.7490  -11.3870 C.2       1 8EN         0.1963
     18 C28       -19.6990   11.8160  -11.7310 C.3       1 8EN         0.0308
     19 C30       -27.8730    3.3030   -1.2000 C.3       1 8EN         0.3783
     20 C4        -26.1870    2.7400   -8.3830 C.ar      1 8EN         0.0568
     21 C5        -27.0400    2.4900   -9.4420 C.ar      1 8EN        -0.0494
     22 C6        -26.7610    3.0070  -10.6920 C.ar      1 8EN        -0.0745
     23 N7        -26.5700    2.3180   -7.0850 N.am      1 8EN        -0.2371
     24 C8        -26.3070    2.9550   -5.9180 C.2       1 8EN         0.2376
     25 C9        -26.7930    2.2760   -4.6830 C.ar      1 8EN         0.0849
     26 O10       -25.7000    4.0200   -5.8490 O.2       1 8EN        -0.3732
     27 N19       -22.3970    6.8480  -10.5270 N.pl3     1 8EN        -0.2215
     28 N25       -20.1880    7.1360  -10.8510 N.2       1 8EN        -0.3217
     29 N26       -20.1840    9.4860  -11.2790 N.am      1 8EN        -0.2410
     30 O29       -21.8800   10.9970  -11.1970 O.2       1 8EN        -0.3873
     31 F31       -28.1000    2.5860   -0.1030 F         1 8EN        -0.2197
     32 F32       -28.9640    4.0550   -1.3930 F         1 8EN        -0.2197
     33 F33       -26.9190    4.1650   -0.8910 F         1 8EN        -0.2197
     34 H1        -24.3373    3.6436   -7.7828 H         1 8EN         0.0459
     35 H2        -26.6921    0.2788   -5.4742 H         1 8EN         0.0902
     36 H3        -27.4644   -0.7864   -3.3869 H         1 8EN         0.0708
     37 H4        -27.9768    0.5960   -1.4082 H         1 8EN         0.0883
     38 H5        -26.9896    4.1299   -3.6179 H         1 8EN         0.0912
     39 H6        -26.3369    4.1556  -12.9284 H         1 8EN         0.0365
     40 H7        -24.5540    4.2300  -12.7228 H         1 8EN         0.0365
     41 H8        -25.5832    5.5788  -12.1327 H         1 8EN         0.0365
     42 H9        -24.5211    6.6629  -10.2726 H         1 8EN         0.1198
     43 H10       -20.0747    4.3542  -10.2367 H         1 8EN         0.0561
     44 H11       -22.1247    3.0992   -9.7768 H         1 8EN         0.0616
     45 H12       -22.9848    8.9529  -10.8694 H         1 8EN         0.0583
     46 H13       -20.2104   12.7879  -11.7930 H         1 8EN         0.0471
     47 H14       -19.2332   11.5843  -12.7002 H         1 8EN         0.0471
     48 H15       -18.9233   11.8589  -10.9522 H         1 8EN         0.0471
     49 H16       -27.9285    1.8877   -9.2911 H         1 8EN         0.0471
     50 H17       -27.4308    2.7822  -11.5141 H         1 8EN         0.0514
     51 H18       -27.0865    1.4639   -7.0243 H         1 8EN         0.2229
     52 H19       -19.1982    9.3921  -11.4184 H         1 8EN         0.2204
@<TRIPOS>BOND
     1    2    1 ar 
     2    1    9 1  
     3   22    1 ar 
     4    3    2 ar 
     5    2   10 1  
     6   20    3 ar 
     7    4    5 ar 
     8   25    4 ar 
     9    5    6 ar 
    10    7    6 ar 
    11    8    7 ar 
    12    7   19 1  
    13   25    8 ar 
    14   10   11 2  
    15   10   14 1  
    16   11   27 1  
    17   13   12 1  
    18   27   12 1  
    19   12   28 2  
    20   14   13 2  
    21   15   16 2  
    22   27   15 1  
    23   28   16 1  
    24   16   29 1  
    25   17   18 1  
    26   29   17 am 
    27   17   30 2  
    28   19   31 1  
    29   19   32 1  
    30   19   33 1  
    31   20   21 ar 
    32   23   20 1  
    33   21   22 ar 
    34   24   23 am 
    35   24   25 1  
    36   24   26 2  
    37    3   34 1  
    38    4   35 1  
    39    5   36 1  
    40    6   37 1  
    41    8   38 1  
    42    9   39 1  
    43    9   40 1  
    44    9   41 1  
    45   11   42 1  
    46   13   43 1  
    47   14   44 1  
    48   15   45 1  
    49   18   46 1  
    50   18   47 1  
    51   18   48 1  
    52   21   49 1  
    53   22   50 1  
    54   23   51 1  
    55   29   52 1  
@<TRIPOS>SUBSTRUCTURE
     1 8EN         1

