### 
### Created by X-TOOL on Wed Jan  1 15:39:36 2020
### 

@<TRIPOS>MOLECULE
6b8y_ligand
   37    40     1     0     0
SMALL
GAST_HUCK


@<TRIPOS>ATOM
      1 C13         4.1560    7.3820    3.0210 C.ar      1 D0A        -0.0119
      2 C17         1.8960    6.6440    3.2270 C.ar      1 D0A         0.1828
      3 C16         1.9070    6.3880    1.8600 C.ar      1 D0A         0.0324
      4 C19         5.9590   11.1730    4.1240 C.ar      1 D0A         0.0056
      5 C20         6.7550   12.0110    3.3650 C.ar      1 D0A        -0.0107
      6 C21         8.0690   12.2120    3.7290 C.ar      1 D0A        -0.0031
      7 C22         8.5570   11.5570    4.8490 C.ar      1 D0A         0.1234
      8 C24        10.0130   11.5860    5.2300 C.3       1 D0A         0.3962
      9 C11         6.5090   10.5530    5.2450 C.ar      1 D0A         0.1091
     10 C12         3.0360    7.1650    3.8290 C.ar      1 D0A         0.1198
     11 C1          4.2130    7.6610    7.3030 C.ar      1 D0A         0.0497
     12 C2          5.2380    8.4510    7.9430 C.ar      1 D0A         0.1393
     13 N3          5.9790    9.3900    7.3210 N.ar      1 D0A        -0.2656
     14 C4          5.6690    9.6060    6.0290 C.ar      1 D0A         0.1161
     15 N5          4.6850    8.9960    5.3530 N.ar      1 D0A        -0.2609
     16 C6          3.9840    8.0320    5.9460 C.ar      1 D0A         0.1409
     17 C7          3.7290    6.7230    8.2800 C.2       1 D0A        -0.0514
     18 C8          4.4090    6.9800    9.4280 C.2       1 D0A         0.0274
     19 N9          5.2910    8.0150    9.2340 N.pl3     1 D0A        -0.2643
     20 N10         3.0430    7.3710    5.2150 N.pl3     1 D0A        -0.2460
     21 C14         4.0770    7.0670    1.6750 C.ar      1 D0A        -0.0054
     22 N15         2.9820    6.5780    1.0890 N.ar      1 D0A        -0.3165
     23 F18         0.8530    6.3110    4.0320 F         1 D0A        -0.1809
     24 N23         7.7930   10.7540    5.6100 N.ar      1 D0A        -0.2538
     25 F25        10.2060   11.9450    6.5090 F         1 D0A        -0.2135
     26 F26        10.5520   10.3980    5.1010 F         1 D0A        -0.2135
     27 F27        10.7230   12.4340    4.4590 F         1 D0A        -0.2135
     28 H1          5.0690    7.7891    3.4403 H         1 D0A         0.0618
     29 H2          0.9998    6.0164    1.3975 H         1 D0A         0.0768
     30 H3          4.9239   11.0009    3.8518 H         1 D0A         0.0967
     31 H4          6.3487   12.5061    2.4904 H         1 D0A         0.0814
     32 H5          8.7083   12.8694    3.1508 H         1 D0A         0.0970
     33 H6          2.9683    5.9584    8.1295 H         1 D0A         0.0322
     34 H7          4.2743    6.4432   10.3659 H         1 D0A         0.0943
     35 H8          5.9060    8.4068    9.9615 H         1 D0A         0.2325
     36 H9          2.2481    6.9790    5.7398 H         1 D0A         0.2206
     37 H10         4.9560    7.2269    1.0611 H         1 D0A         0.0751
@<TRIPOS>BOND
     1   10    1 ar 
     2    1   21 ar 
     3    2    3 ar 
     4   10    2 ar 
     5    2   23 1  
     6    3   22 ar 
     7    4    5 ar 
     8    9    4 ar 
     9    5    6 ar 
    10    7    6 ar 
    11    7    8 1  
    12   24    7 ar 
    13    8   25 1  
    14    8   26 1  
    15    8   27 1  
    16   14    9 1  
    17    9   24 ar 
    18   20   10 1  
    19   11   12 ar 
    20   16   11 ar 
    21   11   17 1  
    22   12   13 ar 
    23   12   19 1  
    24   14   13 ar 
    25   15   14 ar 
    26   16   15 ar 
    27   16   20 1  
    28   17   18 2  
    29   18   19 1  
    30   21   22 ar 
    31    1   28 1  
    32    3   29 1  
    33    4   30 1  
    34    5   31 1  
    35    6   32 1  
    36   17   33 1  
    37   18   34 1  
    38   19   35 1  
    39   20   36 1  
    40   21   37 1  
@<TRIPOS>SUBSTRUCTURE
     1 D0A         1

