### 
### Created by X-TOOL on Wed Jan  1 15:39:36 2020
### 

@<TRIPOS>MOLECULE
6b95_ligand
   31    32     1     0     0
SMALL
GAST_HUCK


@<TRIPOS>ATOM
      1 C10       142.1970   28.2190  -11.4220 C.ar      1 D0P         0.1300
      2 C13       142.1500   29.4670   -9.3660 C.ar      1 D0P        -0.0597
      3 C15       138.0110   30.9450   -7.1910 C.ar      1 D0P         0.0964
      4 C17       135.7580   30.0390   -7.9680 C.2       1 D0P         0.2105
      5 C02       138.7270   31.7750   -6.3430 C.ar      1 D0P         0.1100
      6 C03       140.1120   31.8380   -6.4340 C.ar      1 D0P        -0.0451
      7 C04       140.7710   31.0890   -7.4020 C.ar      1 D0P        -0.0788
      8 C05       140.0540   30.2710   -8.2600 C.ar      1 D0P        -0.0444
      9 C06       140.7690   29.4880   -9.3780 C.ar      1 D0P         0.0023
     10 C07       140.1050   28.9100  -10.4670 C.ar      1 D0P         0.1370
     11 C09       140.8130   28.2620  -11.4690 C.ar      1 D0P         0.0050
     12 C12       142.8520   28.8250  -10.3740 C.ar      1 D0P        -0.0326
     13 C14       138.6800   30.2300   -8.1490 C.ar      1 D0P        -0.0430
     14 C18       134.2420   30.0970   -7.8810 C.3       1 D0P         0.0856
     15 F08       138.7470   28.9080  -10.5940 F         1 D0P        -0.1838
     16 F11       142.9290   27.5860  -12.3920 F         1 D0P        -0.1849
     17 N16       136.5590   30.9020   -7.1150 N.am      1 D0P        -0.2360
     18 O01       138.0300   32.5290   -5.3860 O.3       1 D0P        -0.3386
     19 O20       136.2420   29.2850   -8.7350 O.2       1 D0P        -0.3854
     20 S19       133.7080   31.0460   -6.4200 S.3       1 D0P        -0.1561
     21 H1        142.6887   29.9561   -8.5625 H         1 D0P         0.0591
     22 H2        140.6751   32.4673   -5.7544 H         1 D0P         0.0500
     23 H3        141.8503   31.1452   -7.4859 H         1 D0P         0.0465
     24 H4        140.2834   27.7895  -12.2884 H         1 D0P         0.0588
     25 H5        143.9351   28.7997  -10.3364 H         1 D0P         0.0569
     26 H6        138.1137   29.6149   -8.8390 H         1 D0P         0.0460
     27 H7        133.8463   29.0732   -7.8092 H         1 D0P         0.0618
     28 H8        133.8478   30.5798   -8.7873 H         1 D0P         0.0618
     29 H9        136.0943   31.4880   -6.4512 H         1 D0P         0.2222
     30 H10       138.2008   33.4529   -5.5267 H         1 D0P         0.2440
     31 H11       134.0637   30.6053   -5.5861 H         1 D0P         0.1043
@<TRIPOS>BOND
     1    1   11 ar 
     2   12    1 ar 
     3    1   16 1  
     4    9    2 ar 
     5    2   12 ar 
     6    5    3 ar 
     7    3   13 ar 
     8    3   17 1  
     9    4   14 1  
    10   17    4 am 
    11    4   19 2  
    12    6    5 ar 
    13    5   18 1  
    14    7    6 ar 
    15    8    7 ar 
    16    8    9 1  
    17    8   13 ar 
    18    9   10 ar 
    19   10   11 ar 
    20   10   15 1  
    21   14   20 1  
    22    2   21 1  
    23    6   22 1  
    24    7   23 1  
    25   11   24 1  
    26   12   25 1  
    27   13   26 1  
    28   14   27 1  
    29   14   28 1  
    30   17   29 1  
    31   18   30 1  
    32   20   31 1  
@<TRIPOS>SUBSTRUCTURE
     1 D0P         1

