### 
### Created by X-TOOL on Mon Sep 10 21:13:31 2018
### 

@<TRIPOS>MOLECULE
6b96_ligand
   33    36     1     0     0
SMALL
GAST_HUCK


@<TRIPOS>ATOM
      1 C2         32.0300   -6.0630   13.0840 C.ar      1 CZV         0.0974
      2 C3         30.8890   -5.6990   12.2890 C.ar      1 CZV         0.1271
      3 N4         34.0390   -7.0920   13.2630 N.2       1 CZV        -0.3141
      4 C5         30.1010   -3.3540   14.6180 C.ar      1 CZV        -0.0365
      5 C7         30.4850   -1.6480   16.2870 C.ar      1 CZV        -0.0260
      6 C9         31.0970   -1.2350   14.0140 C.ar      1 CZV        -0.0260
      7 C10        30.6410   -2.4980   13.6620 C.ar      1 CZV        -0.0387
      8 C11        31.4680    0.5830   15.7110 C.3       1 CZV         0.3821
      9 C12        29.4200   -5.8470   15.2380 C.2       1 CZV        -0.0283
     10 C13        28.2060   -5.0970   14.8120 C.2       1 CZV        -0.0283
     11 CL         31.6990   -7.0520    8.7980 Cl        1 CZV        -0.0127
     12 C          31.8070   -6.7310   10.4900 C.ar      1 CZV         0.1815
     13 N1         32.8970   -7.1880   11.0720 N.ar      1 CZV        -0.2660
     14 C1         33.0610   -6.8710   12.3650 C.ar      1 CZV         0.0607
     15 N3         33.7860   -6.5240   14.4770 N.pl3     1 CZV        -0.2427
     16 C14        32.6160   -5.9250   14.3630 C.2       1 CZV         0.1147
     17 N          30.8060   -6.0290   10.9900 N.ar      1 CZV        -0.2377
     18 N2         29.8130   -5.0820   12.8370 N.pl3     1 CZV        -0.3413
     19 C4         29.5560   -4.7180   14.2350 C.3       1 CZV         0.1137
     20 C8         31.0180   -0.7920   15.3310 C.ar      1 CZV         0.0553
     21 F2         32.4980    1.0190   14.9770 F         1 CZV        -0.2168
     22 F1         30.4870    1.4920   15.6090 F         1 CZV        -0.2168
     23 F          31.8950    0.6560   16.9680 F         1 CZV        -0.2168
     24 C6         30.0410   -2.9110   15.9380 C.ar      1 CZV        -0.0387
     25 H1         30.4162   -1.3223   17.3186 H         1 CZV         0.0865
     26 H2         31.5192   -0.5867   13.2548 H         1 CZV         0.0865
     27 H3         30.7062   -2.8219   12.6296 H         1 CZV         0.0754
     28 H4         29.8775   -6.6341   15.8355 H         1 CZV         0.1191
     29 H5         27.1305   -4.9370   14.8716 H         1 CZV         0.1191
     30 H6         34.3866   -6.5562   15.3132 H         1 CZV         0.2936
     31 H7         32.1459   -5.3759   15.1776 H         1 CZV         0.1362
     32 H8         29.0656   -4.8319   12.1739 H         1 CZV         0.1631
     33 H9         29.6403   -3.5661   16.7031 H         1 CZV         0.0754
@<TRIPOS>BOND
     1    2    1 ar 
     2    1   14 ar 
     3    1   16 2  
     4    2   17 ar 
     5   18    2 1  
     6   14    3 2  
     7   15    3 1  
     8    4    7 ar 
     9   19    4 1  
    10    4   24 ar 
    11    5   20 ar 
    12   24    5 ar 
    13    7    6 ar 
    14    6   20 ar 
    15   20    8 1  
    16    8   21 1  
    17    8   22 1  
    18    8   23 1  
    19   10    9 2  
    20   19    9 1  
    21   19   10 1  
    22   12   11 1  
    23   12   13 ar 
    24   17   12 ar 
    25   14   13 ar 
    26   16   15 1  
    27   18   19 1  
    28    5   25 1  
    29    6   26 1  
    30    7   27 1  
    31    9   28 1  
    32   10   29 1  
    33   15   30 1  
    34   16   31 1  
    35   18   32 1  
    36   24   33 1  
@<TRIPOS>SUBSTRUCTURE
     1 CZV         1

