### 
### Created by X-TOOL on Mon Sep 10 21:13:32 2018
### 

@<TRIPOS>MOLECULE
6b97_ligand
   37    39     1     0     0
SMALL
GAST_HUCK


@<TRIPOS>ATOM
      1 C2         31.7880   -6.0380   13.1230 C.ar      1 CZY         0.0771
      2 C3         30.6190   -5.5910   12.4360 C.ar      1 CZY         0.1303
      3 N4         33.7370   -7.0820   13.0710 N.pl3     1 CZY        -0.1889
      4 C5         29.9840   -3.1660   14.7700 C.ar      1 CZY         0.0144
      5 C7         30.3990   -1.2990   16.2500 C.ar      1 CZY        -0.0371
      6 C9         30.8890   -1.0930   13.9190 C.ar      1 CZY        -0.0371
      7 C10        30.4450   -2.3890   13.7120 C.ar      1 CZY        -0.0259
      8 C11        31.3960    0.8570   15.4210 C.3       1 CZY         0.3684
      9 C12        28.0330   -4.7670   14.9260 C.3       1 CZY        -0.0262
     10 C13        32.4250   -6.0010   14.3840 C.2       1 CZY         0.0281
     11 CL         31.2430   -6.5870    8.7800 Cl        1 CZY        -0.0181
     12 C          31.4130   -6.4750   10.5050 C.ar      1 CZY         0.1650
     13 N1         32.5260   -6.9990   10.9920 N.ar      1 CZY        -0.2553
     14 C1         32.6750   -6.7430   12.3060 C.ar      1 CZY         0.1577
     15 C14        34.9330   -7.8370   12.7270 C.3       1 CZY         0.0585
     16 N3         33.5850   -6.6200   14.3540 N.2       1 CZY        -0.2031
     17 N          30.4480   -5.8120   11.1210 N.ar      1 CZY        -0.2503
     18 N2         29.6330   -4.9510   13.1050 N.pl3     1 CZY        -0.2797
     19 C4         29.4940   -4.5830   14.5230 C.3       1 CZY         0.0882
     20 C8         30.8750   -0.5310   15.1910 C.ar      1 CZY         0.0385
     21 F2         32.3620    0.9110   16.3230 F         1 CZY        -0.2274
     22 F1         30.4490    1.7030   15.7910 F         1 CZY        -0.2274
     23 F          31.9590    1.3860   14.3590 F         1 CZY        -0.2274
     24 C6         29.9700   -2.6010   16.0440 C.ar      1 CZY        -0.0259
     25 H1         30.3634   -0.8742   17.2467 H         1 CZY         0.0836
     26 H2         31.2515   -0.5104   13.0798 H         1 CZY         0.0836
     27 H3         30.4570   -2.8038   12.7106 H         1 CZY         0.0653
     28 H4         27.7262   -5.8048   14.7289 H         1 CZY         0.0284
     29 H5         27.4022   -4.0810   14.3417 H         1 CZY         0.0284
     30 H6         27.9179   -4.5479   15.9978 H         1 CZY         0.0284
     31 H7         32.0083   -5.5209   15.2682 H         1 CZY         0.0732
     32 H8         35.5834   -7.9161   13.6106 H         1 CZY         0.0585
     33 H9         35.4728   -7.3209   11.9194 H         1 CZY         0.0585
     34 H10        34.6466   -8.8446   12.3911 H         1 CZY         0.0585
     35 H11        28.8359   -4.6707   12.5159 H         1 CZY         0.1921
     36 H12        30.1108   -5.2650   15.1266 H         1 CZY         0.0801
     37 H13        29.6189   -3.1876   16.8852 H         1 CZY         0.0653
@<TRIPOS>BOND
     1    2    1 ar 
     2    1   10 1  
     3    1   14 ar 
     4    2   17 ar 
     5   18    2 1  
     6   14    3 1  
     7    3   15 1  
     8    3   16 1  
     9    4    7 ar 
    10   19    4 1  
    11    4   24 ar 
    12    5   20 ar 
    13   24    5 ar 
    14    7    6 ar 
    15    6   20 ar 
    16   20    8 1  
    17    8   21 1  
    18    8   22 1  
    19    8   23 1  
    20   19    9 1  
    21   10   16 2  
    22   12   11 1  
    23   12   13 ar 
    24   17   12 ar 
    25   14   13 ar 
    26   18   19 1  
    27    5   25 1  
    28    6   26 1  
    29    7   27 1  
    30    9   28 1  
    31    9   29 1  
    32    9   30 1  
    33   10   31 1  
    34   15   32 1  
    35   15   33 1  
    36   15   34 1  
    37   18   35 1  
    38   19   36 1  
    39   24   37 1  
@<TRIPOS>SUBSTRUCTURE
     1 CZY         1

