### 
### Created by X-TOOL on Mon Sep 10 21:13:33 2018
### 

@<TRIPOS>MOLECULE
6b98_ligand
   21    22     1     0     0
SMALL
GAST_HUCK


@<TRIPOS>ATOM
      1 C2         31.5180   -6.3170    8.8160 C.3       1 D07         0.0585
      2 C3         30.4750   -4.6360   11.7680 C.2       1 D07         0.0281
      3 N4         31.8990   -4.9380   14.6970 N.pl3     1 D07        -0.3017
      4 C5         32.2410   -5.5210   13.5360 C.ar      1 D07         0.1273
      5 CL         35.0110   -8.0830   12.5200 Cl        1 D07        -0.0181
      6 C4         33.6690   -6.9810   12.4850 C.ar      1 D07         0.1650
      7 N2         33.1090   -6.8930   11.2670 N.ar      1 D07        -0.2553
      8 C1         32.0610   -6.0460   11.2460 C.ar      1 D07         0.1577
      9 N3         33.3200   -6.3490   13.6360 N.ar      1 D07        -0.2506
     10 C6         30.8060   -3.9770   14.8940 C.3       1 D07         0.0199
     11 C          31.5400   -5.3320   12.3280 C.ar      1 D07         0.0769
     12 N1         30.3540   -4.9170   10.4560 N.2       1 D07        -0.2031
     13 N          31.3230   -5.7730   10.1500 N.pl3     1 D07        -0.1889
     14 H1         30.7572   -5.9045    8.1370 H         1 D07         0.0585
     15 H2         31.4243   -7.4125    8.8494 H         1 D07         0.0585
     16 H3         32.5200   -6.0456    8.4521 H         1 D07         0.0585
     17 H4         29.8256   -3.9550   12.3162 H         1 D07         0.0732
     18 H5         32.4555   -5.1885   15.5268 H         1 D07         0.1878
     19 H6         30.7694   -3.6750   15.9511 H         1 D07         0.0493
     20 H7         29.8510   -4.4451   14.6131 H         1 D07         0.0493
     21 H8         30.9789   -3.0910   14.2654 H         1 D07         0.0493
@<TRIPOS>BOND
     1   13    1 1  
     2   11    2 1  
     3    2   12 2  
     4    4    3 1  
     5    3   10 1  
     6    4    9 ar 
     7   11    4 ar 
     8    6    5 1  
     9    7    6 ar 
    10    6    9 ar 
    11    8    7 ar 
    12    8   11 ar 
    13    8   13 1  
    14   12   13 1  
    15    1   14 1  
    16    1   15 1  
    17    1   16 1  
    18    2   17 1  
    19    3   18 1  
    20   10   19 1  
    21   10   20 1  
    22   10   21 1  
@<TRIPOS>SUBSTRUCTURE
     1 D07         1

