### 
### Created by X-TOOL on Wed Jan  1 15:39:38 2020
### 

@<TRIPOS>MOLECULE
6ba7_ligand
   24    24     1     0     0
SMALL
GAST_HUCK


@<TRIPOS>ATOM
      1 C10        34.9880   77.2700   63.8220 C.ar      1 D1Y        -0.0511
      2 C15        33.4540   78.2900   62.3060 C.ar      1 D1Y         0.0513
      3 C02        38.1980   81.0930   64.8960 C.2       1 D1Y         0.0656
      4 C04        36.8660   81.1840   64.1360 C.3       1 D1Y         0.1220
      5 C06        35.9610   80.1830   64.1920 C.3       1 D1Y         0.0585
      6 C07        35.5270   79.5570   62.9610 C.2       1 D1Y         0.1291
      7 C09        34.6400   78.3570   63.0290 C.ar      1 D1Y         0.0351
      8 C11        34.1820   76.1470   63.8920 C.ar      1 D1Y        -0.0267
      9 C12        32.9970   76.1090   63.1550 C.ar      1 D1Y         0.0939
     10 C14        32.6260   77.1840   62.3530 C.ar      1 D1Y        -0.0130
     11 O01        38.0580   80.8500   66.1120 O.co2     1 D1Y        -0.5662
     12 O03        39.2440   81.2610   64.2550 O.co2     1 D1Y        -0.5662
     13 O05        36.8300   82.0460   63.0990 O.3       1 D1Y        -0.3754
     14 O08        35.8570   79.9260   61.8640 O.2       1 D1Y        -0.3838
     15 O13        32.1880   75.0190   63.2070 O.3       1 D1Y        -0.3294
     16 CL16       32.9770   79.6050   61.3090 Cl        1 D1Y        -0.0672
     17 H1         35.9070   77.3023   64.3959 H         1 D1Y         0.0645
     18 H2         36.3562   81.8346   64.8618 H         1 D1Y         0.0788
     19 H3         35.0629   80.5880   64.6812 H         1 D1Y         0.0527
     20 H4         36.3952   79.3912   64.8201 H         1 D1Y         0.0527
     21 H5         34.4680   75.3056   64.5127 H         1 D1Y         0.0559
     22 H6         31.7077   77.1548   61.7777 H         1 D1Y         0.0562
     23 H7         36.9539   81.5684   62.2872 H         1 D1Y         0.2126
     24 H8         32.5674   74.3720   63.7900 H         1 D1Y         0.2502
@<TRIPOS>BOND
     1    7    1 ar 
     2    1    8 ar 
     3    7    2 ar 
     4    2   10 ar 
     5    2   16 1  
     6    4    3 1  
     7    3   11 ar 
     8    3   12 ar 
     9    5    4 1  
    10    4   13 1  
    11    6    5 1  
    12    6    7 1  
    13    6   14 2  
    14    8    9 ar 
    15    9   10 ar 
    16    9   15 1  
    17    1   17 1  
    18    4   18 1  
    19    5   19 1  
    20    5   20 1  
    21    8   21 1  
    22   10   22 1  
    23   13   23 1  
    24   15   24 1  
@<TRIPOS>SUBSTRUCTURE
     1 D1Y         1

