### 
### Created by X-TOOL on Wed Jan  1 15:39:38 2020
### 

@<TRIPOS>MOLECULE
6bau_ligand
   14    13     1     0     0
SMALL
GAST_HUCK


@<TRIPOS>ATOM
      1 N           3.0190  -10.1310   -3.6660 N.4       1 CYS         0.2333
      2 CA          3.8970  -10.5110   -4.7740 C.3       1 CYS         0.0372
      3 C           3.3600  -11.7370   -5.5050 C.2       1 CYS         0.0852
      4 O           2.9090  -11.6440   -6.6460 O.co2     1 CYS        -0.5642
      5 CB          5.3150  -10.7790   -4.2620 C.3       1 CYS         0.0457
      6 SG          6.0870   -9.3710   -3.4220 S.3       1 CYS        -0.1708
      7 OXT         3.3670  -12.8430   -4.9660 O.co2     1 CYS        -0.5642
      8 H1          3.3964   -9.3201   -3.2012 H         1 CYS         0.2010
      9 H2          2.9551  -10.8944   -3.0109 H         1 CYS         0.2010
     10 H3          2.1010   -9.9168   -4.0230 H         1 CYS         0.2010
     11 H4          3.9362   -9.6736   -5.4862 H         1 CYS         0.1032
     12 H5          5.9445  -11.0543   -5.1210 H         1 CYS         0.0448
     13 H6          5.2720  -11.6201   -3.5544 H         1 CYS         0.0448
     14 H7          7.0127   -9.6291   -3.1178 H         1 CYS         0.1019
@<TRIPOS>BOND
     1    1    2 1  
     2    2    3 1  
     3    2    5 1  
     4    3    4 ar 
     5    3    7 ar 
     6    5    6 1  
     7    1    8 1  
     8    1    9 1  
     9    1   10 1  
    10    2   11 1  
    11    5   12 1  
    12    5   13 1  
    13    6   14 1  
@<TRIPOS>SUBSTRUCTURE
     1 CYS         1

