### 
### Created by X-TOOL on Wed Jan  1 15:39:38 2020
### 

@<TRIPOS>MOLECULE
6baw_ligand
   52    54     1     0     0
SMALL
GAST_HUCK


@<TRIPOS>ATOM
      1 CAA        -2.9590   42.0060  -26.1110 C.3       1 D57         0.0641
      2 CAC        -3.9250   41.3740  -24.1390 C.2       1 D57         0.2456
      3 CAE        -3.8810   40.6720  -22.9350 C.ar      1 D57         0.0875
      4 CAF        -2.9060   41.0340  -22.0130 C.ar      1 D57         0.1019
      5 CAH        -2.7850   40.3920  -20.7900 C.ar      1 D57         0.0012
      6 CAI        -3.6670   39.3620  -20.5020 C.ar      1 D57         0.1019
      7 CAK        -4.6510   38.9760  -21.4040 C.ar      1 D57         0.0875
      8 CAL        -5.5060   37.9350  -21.0570 C.2       1 D57         0.2456
      9 CAO        -7.4940   37.1690  -20.2300 C.3       1 D57         0.0641
     10 CAP        -4.7670   39.6320  -22.6310 C.ar      1 D57        -0.0116
     11 CAQ        -5.7550   39.2310  -23.5350 C.3       1 D57        -0.0003
     12 CAR        -7.0180   40.0820  -23.3550 C.3       1 D57         0.0348
     13 CAS        -8.2000   39.4770  -24.1220 C.2       1 D57         0.1182
     14 CAU       -10.0130   38.4300  -24.5270 C.2       1 D57        -0.0364
     15 CAV        -9.5470   38.9160  -25.6780 C.2       1 D57         0.0301
     16 CAX        -7.5680   40.2640  -26.4510 C.3       1 D57         0.0909
     17 CAY        -6.7310   39.3880  -27.1530 C.ar      1 D57        -0.0128
     18 CAZ        -5.7560   39.9160  -27.9930 C.ar      1 D57        -0.0577
     19 CBA        -4.9110   39.0750  -28.7080 C.ar      1 D57        -0.0685
     20 CBB        -5.0350   37.6970  -28.5860 C.ar      1 D57        -0.0687
     21 CBC        -6.0070   37.1630  -27.7490 C.ar      1 D57        -0.0685
     22 CBD        -6.8510   38.0070  -27.0360 C.ar      1 D57        -0.0577
     23 NAT        -9.1770   38.7810  -23.5540 N.2       1 D57        -0.3386
     24 NAW        -8.4080   39.5660  -25.4340 N.pl3     1 D57        -0.2388
     25 OAB        -2.7960   41.2780  -24.8910 O.3       1 D57        -0.2851
     26 OAD        -4.8950   42.0640  -24.4510 O.2       1 D57        -0.3725
     27 OAG        -2.0840   42.0550  -22.3760 O.3       1 D57        -0.3283
     28 OAJ        -3.6200   38.6790  -19.3280 O.3       1 D57        -0.3283
     29 OAM        -5.1250   36.7660  -21.0960 O.2       1 D57        -0.3725
     30 OAN        -6.7480   38.3150  -20.6500 O.3       1 D57        -0.2851
     31 H1         -2.0419   41.9231  -26.7127 H         1 D57         0.0574
     32 H2         -3.1537   43.0644  -25.8832 H         1 D57         0.0574
     33 H3         -3.8067   41.5905  -26.6755 H         1 D57         0.0574
     34 H4         -2.0220   40.6873  -20.0789 H         1 D57         0.0436
     35 H5         -8.4960   37.4836  -19.9027 H         1 D57         0.0574
     36 H6         -6.9728   36.6781  -19.3949 H         1 D57         0.0574
     37 H7         -7.5870   36.4642  -21.0694 H         1 D57         0.0574
     38 H8         -6.0015   38.1737  -23.3578 H         1 D57         0.0480
     39 H9         -5.3787   39.3527  -24.5614 H         1 D57         0.0480
     40 H10        -6.8252   41.0969  -23.7329 H         1 D57         0.0523
     41 H11        -7.2700   40.1307  -22.2854 H         1 D57         0.0523
     42 H12       -10.9234   37.8451  -24.4045 H         1 D57         0.0408
     43 H13       -10.0174   38.8015  -26.6535 H         1 D57         0.0797
     44 H14        -8.2312   40.7685  -27.1691 H         1 D57         0.0782
     45 H15        -6.9448   41.0121  -25.9393 H         1 D57         0.0782
     46 H16        -5.6544   40.9908  -28.0907 H         1 D57         0.0558
     47 H17        -4.1547   39.4950  -29.3613 H         1 D57         0.0599
     48 H18        -4.3756   37.0403  -29.1419 H         1 D57         0.0559
     49 H19        -6.1073   36.0880  -27.6519 H         1 D57         0.0599
     50 H20        -7.6080   37.5859  -26.3843 H         1 D57         0.0558
     51 H21        -2.3242   42.3605  -23.2428 H         1 D57         0.2525
     52 H22        -2.9157   39.0226  -18.7910 H         1 D57         0.2525
@<TRIPOS>BOND
     1   25    1 1  
     2    3    2 1  
     3    2   25 1  
     4    2   26 2  
     5    3    4 ar 
     6   10    3 ar 
     7    4    5 ar 
     8    4   27 1  
     9    6    5 ar 
    10    7    6 ar 
    11    6   28 1  
    12    7    8 1  
    13   10    7 ar 
    14    8   29 2  
    15    8   30 1  
    16   30    9 1  
    17   11   10 1  
    18   12   11 1  
    19   13   12 1  
    20   13   23 2  
    21   24   13 1  
    22   15   14 2  
    23   14   23 1  
    24   24   15 1  
    25   16   17 1  
    26   16   24 1  
    27   17   18 ar 
    28   17   22 ar 
    29   18   19 ar 
    30   19   20 ar 
    31   20   21 ar 
    32   21   22 ar 
    33    1   31 1  
    34    1   32 1  
    35    1   33 1  
    36    5   34 1  
    37    9   35 1  
    38    9   36 1  
    39    9   37 1  
    40   11   38 1  
    41   11   39 1  
    42   12   40 1  
    43   12   41 1  
    44   14   42 1  
    45   15   43 1  
    46   16   44 1  
    47   16   45 1  
    48   18   46 1  
    49   19   47 1  
    50   20   48 1  
    51   21   49 1  
    52   22   50 1  
    53   27   51 1  
    54   28   52 1  
@<TRIPOS>SUBSTRUCTURE
     1 D57         1

