### 
### Created by X-TOOL on Wed Jan  1 15:39:38 2020
### 

@<TRIPOS>MOLECULE
6bbs_ligand
   45    46     1     0     0
SMALL
GAST_HUCK


@<TRIPOS>ATOM
      1 C3         17.8470    8.1620   11.7050 C.3       1 BZ1        -0.0123
      2 C9         18.1690    5.2350   15.4430 C.2       1 BZ1         0.0145
      3 C10        17.0370    6.0880   15.6450 C.2       1 BZ1         0.1611
      4 C11        19.4970    5.5150   14.5920 C.3       1 BZ1         0.0179
      5 C12        19.4310    7.0540   14.2910 C.3       1 BZ1         0.0785
      6 S1         16.1340    2.3630   17.7650 S.o2      1 BZ1         0.0744
      7 C4         17.0600    9.1910   10.8430 C.3       1 BZ1         0.0488
      8 C5         20.9150    3.6560   11.6500 C.3       1 BZ1        -0.0245
      9 C6         20.8440    4.7430   12.7200 C.3       1 BZ1        -0.0353
     10 S2         15.8400    5.2760   16.6390 S.3       1 BZ1        -0.0013
     11 N2         16.7030    0.9810   17.0390 N.am      1 BZ1        -0.2605
     12 O3         14.6860    2.3970   17.7950 O.2       1 BZ1        -0.1500
     13 O4         16.6610    2.4330   19.0980 O.2       1 BZ1        -0.1500
     14 C7         16.6860    3.7990   16.8440 C.2       1 BZ1         0.1594
     15 C8         17.9600    3.8330   16.1650 C.2       1 BZ1        -0.0394
     16 S3         17.0170    7.6680   14.9910 S.o2      1 BZ1         0.0727
     17 O2         17.0720    8.6110   16.0840 O.2       1 BZ1        -0.1520
     18 O5         15.8520    7.9000   14.1590 O.2       1 BZ1        -0.1520
     19 N3         18.2490    7.8450   14.0940 N.am      1 BZ1        -0.2286
     20 N1         19.6170    4.6500   13.4820 N.4       1 BZ1         0.2389
     21 C2         18.2530    8.8250   13.0170 C.3       1 BZ1         0.0319
     22 O1         15.6680    9.0040   11.0240 O.3       1 BZ1        -0.3829
     23 C1         14.9650   10.1680   11.5070 C.3       1 BZ1         0.0364
     24 H1         18.7465    7.8365   11.1619 H         1 BZ1         0.0303
     25 H2         17.2092    7.2904   11.9136 H         1 BZ1         0.0303
     26 H3         20.3755    5.3292   15.2274 H         1 BZ1         0.0982
     27 H4         20.0189    7.1886   13.3711 H         1 BZ1         0.0552
     28 H5         19.9539    7.5305   15.1333 H         1 BZ1         0.0552
     29 H6         17.3127    9.0476    9.7821 H         1 BZ1         0.0560
     30 H7         17.3344   10.2108   11.1508 H         1 BZ1         0.0560
     31 H8         21.8567    3.7538   11.0900 H         1 BZ1         0.0281
     32 H9         20.0652    3.7645   10.9601 H         1 BZ1         0.0281
     33 H10        20.8744    2.6667   12.1291 H         1 BZ1         0.0281
     34 H11        20.8901    5.7285   12.2336 H         1 BZ1         0.0811
     35 H12        21.6993    4.6306   13.4026 H         1 BZ1         0.0811
     36 H13        16.4381    0.7644   16.0994 H         1 BZ1         0.1635
     37 H14        17.3104    0.3659   17.5417 H         1 BZ1         0.1635
     38 H15        18.6772    3.0137   16.1494 H         1 BZ1         0.0415
     39 H16        18.8521    4.8474   12.8559 H         1 BZ1         0.2027
     40 H17        19.5382    3.7040   13.8211 H         1 BZ1         0.2027
     41 H18        17.5410    9.6292   13.2541 H         1 BZ1         0.0479
     42 H19        19.2631    9.2482   12.9137 H         1 BZ1         0.0479
     43 H20        13.8964    9.9315   11.6170 H         1 BZ1         0.0523
     44 H21        15.0859   10.9932   10.7898 H         1 BZ1         0.0523
     45 H22        15.3767   10.4665   12.4824 H         1 BZ1         0.0523
@<TRIPOS>BOND
     1    1    7 1  
     2   21    1 1  
     3    3    2 2  
     4    4    2 1  
     5    2   15 1  
     6    3   10 1  
     7   16    3 1  
     8    5    4 1  
     9    4   20 1  
    10   19    5 1  
    11    6   11 am 
    12    6   12 2  
    13    6   13 2  
    14   14    6 1  
    15    7   22 1  
    16    9    8 1  
    17   20    9 1  
    18   10   14 1  
    19   14   15 2  
    20   16   17 2  
    21   16   18 2  
    22   19   16 am 
    23   19   21 1  
    24   22   23 1  
    25    1   24 1  
    26    1   25 1  
    27    4   26 1  
    28    5   27 1  
    29    5   28 1  
    30    7   29 1  
    31    7   30 1  
    32    8   31 1  
    33    8   32 1  
    34    8   33 1  
    35    9   34 1  
    36    9   35 1  
    37   11   36 1  
    38   11   37 1  
    39   15   38 1  
    40   20   39 1  
    41   20   40 1  
    42   21   41 1  
    43   21   42 1  
    44   23   43 1  
    45   23   44 1  
    46   23   45 1  
@<TRIPOS>SUBSTRUCTURE
     1 BZ1         1

