### 
### Created by X-TOOL on Wed Jan  1 15:39:36 2020
### 

@<TRIPOS>MOLECULE
6bbu_ligand
   43    45     1     0     0
SMALL
GAST_HUCK


@<TRIPOS>ATOM
      1 C1         12.6630   16.0180  -11.1730 C.ar      1 D7D         0.1355
      2 C2         12.0890   15.5780  -12.4050 C.ar      1 D7D         0.0435
      3 N3          9.9950   13.0960  -17.7930 N.am      1 D7D        -0.2486
      4 C4         11.1700   14.9550  -15.1420 C.3       1 D7D         0.0472
      5 C5         10.9630   13.4330  -15.4390 C.3       1 D7D        -0.0094
      6 C6          9.9530   13.8350  -16.5460 C.3       1 D7D         0.0418
      7 C8          7.5160   13.3400  -18.6750 C.3       1 D7D         0.0842
      8 C9          6.6860   14.6230  -18.8300 C.3       1 D7D        -0.0347
      9 C10         5.2150   14.3800  -18.5510 C.3       1 D7D        -0.0637
     10 C11        13.4870   15.5130  -15.9390 C.3       1 D7D         0.0220
     11 C12        10.8570   14.9300  -12.0690 C.2       1 D7D        -0.0545
     12 C13        10.7140   14.9830  -10.6980 C.2       1 D7D         0.0249
     13 O1          9.4540   12.5830  -20.1220 O.2       1 D7D        -0.1555
     14 S           9.1420   13.5410  -19.1220 S.o2      1 D7D         0.0392
     15 O           9.3830   14.9140  -19.3700 O.2       1 D7D        -0.1555
     16 C7         10.5430   15.2820  -16.5290 C.3       1 D7D        -0.0094
     17 N2         12.5180   15.3790  -14.8410 N.pl3     1 D7D        -0.2877
     18 C3         12.8530   15.8370  -13.5710 C.ar      1 D7D         0.1212
     19 N          14.0310   16.5360  -13.4770 N.ar      1 D7D        -0.2730
     20 N4         11.8180   15.6470  -10.1380 N.pl3     1 D7D        -0.2665
     21 N1         13.8600   16.6850  -11.0340 N.ar      1 D7D        -0.2772
     22 C          14.4500   16.9020  -12.2290 C.ar      1 D7D         0.0500
     23 H1         10.5693   12.2790  -17.8452 H         1 D7D         0.1672
     24 H2         10.5371   15.3115  -14.3160 H         1 D7D         0.0566
     25 H3         10.5245   12.8618  -14.6075 H         1 D7D         0.0306
     26 H4         11.8603   12.9142  -15.8073 H         1 D7D         0.0306
     27 H5          8.9119   13.8064  -16.1920 H         1 D7D         0.0513
     28 H6          7.0729   12.5576  -19.3086 H         1 D7D         0.0518
     29 H7          7.4789   13.0240  -17.6220 H         1 D7D         0.0518
     30 H8          6.7962   14.9962  -19.8589 H         1 D7D         0.0279
     31 H9          7.0622   15.3779  -18.1239 H         1 D7D         0.0279
     32 H10         4.6584   15.3210  -18.6727 H         1 D7D         0.0230
     33 H11         5.0929   14.0123  -17.5215 H         1 D7D         0.0230
     34 H12         4.8269   13.6306  -19.2565 H         1 D7D         0.0230
     35 H13        14.4557   15.8421  -15.5350 H         1 D7D         0.0492
     36 H14        13.1204   16.2556  -16.6630 H         1 D7D         0.0492
     37 H15        13.6098   14.5416  -16.4403 H         1 D7D         0.0492
     38 H16        10.1581   14.4765  -12.7703 H         1 D7D         0.0311
     39 H17         9.8753   14.5736  -10.1368 H         1 D7D         0.0922
     40 H18        11.2752   15.4856  -17.3243 H         1 D7D         0.0306
     41 H19         9.7885   16.0823  -16.5115 H         1 D7D         0.0306
     42 H20        11.9725   15.8266   -9.1356 H         1 D7D         0.2318
     43 H21        15.3887   17.4430  -12.1932 H         1 D7D         0.0975
@<TRIPOS>BOND
     1    2    1 ar 
     2    1   20 1  
     3    1   21 ar 
     4    2   11 1  
     5   18    2 ar 
     6    6    3 1  
     7    3   14 am 
     8    4    5 1  
     9    4   16 1  
    10   17    4 1  
    11    5    6 1  
    12   16    6 1  
    13    7    8 1  
    14   14    7 1  
    15    8    9 1  
    16   17   10 1  
    17   11   12 2  
    18   12   20 1  
    19   14   13 2  
    20   14   15 2  
    21   17   18 1  
    22   18   19 ar 
    23   19   22 ar 
    24   21   22 ar 
    25    3   23 1  
    26    4   24 1  
    27    5   25 1  
    28    5   26 1  
    29    6   27 1  
    30    7   28 1  
    31    7   29 1  
    32    8   30 1  
    33    8   31 1  
    34    9   32 1  
    35    9   33 1  
    36    9   34 1  
    37   10   35 1  
    38   10   36 1  
    39   10   37 1  
    40   11   38 1  
    41   12   39 1  
    42   16   40 1  
    43   16   41 1  
    44   20   42 1  
    45   22   43 1  
@<TRIPOS>SUBSTRUCTURE
     1 D7D         1

