### 
### Created by X-TOOL on Wed Jan  1 15:39:36 2020
### 

@<TRIPOS>MOLECULE
6bbv_ligand
   43    45     1     0     0
SMALL
GAST_HUCK


@<TRIPOS>ATOM
      1 C1         -2.4390    2.6050   11.9800 C.ar      1 D7D         0.1355
      2 C2         -3.2740    2.2510   10.8760 C.ar      1 D7D         0.0435
      3 N3         -6.5020    0.9120    5.6320 N.am      1 D7D        -0.2486
      4 C4         -5.1880    1.8810    8.6660 C.3       1 D7D         0.0472
      5 C5         -6.6200    1.6760    8.0890 C.3       1 D7D        -0.0094
      6 C6         -5.9780    0.7880    6.9780 C.3       1 D7D         0.0418
      7 C8         -7.4600   -1.4590    5.0620 C.3       1 D7D         0.0842
      8 C9         -8.6830   -2.3810    4.9310 C.3       1 D7D        -0.0347
      9 C10        -9.1650   -2.8910    6.2800 C.3       1 D7D        -0.0637
     10 C11        -5.3200    4.3860    8.4890 C.3       1 D7D         0.0220
     11 C12        -3.0680    0.8530   10.6460 C.2       1 D7D        -0.0545
     12 C13        -2.1500    0.4050   11.5700 C.2       1 D7D         0.0249
     13 O1         -8.7680    0.2670    6.3740 O.2       1 D7D        -0.1555
     14 S          -7.9120    0.1620    5.2490 S.o2      1 D7D         0.0392
     15 O          -8.3300    0.6600    3.9890 O.2       1 D7D        -0.1555
     16 C7         -4.5970    1.4140    7.3020 C.3       1 D7D        -0.0094
     17 N2         -4.7840    3.1840    9.1440 N.pl3     1 D7D        -0.2877
     18 C3         -4.0080    3.3150   10.2890 C.ar      1 D7D         0.1212
     19 N          -3.9280    4.5810   10.8180 N.ar      1 D7D        -0.2730
     20 N4         -1.7440    1.4770   12.3820 N.pl3     1 D7D        -0.2665
     21 N1         -2.3180    3.8620   12.5290 N.ar      1 D7D        -0.2772
     22 C          -3.0940    4.7600   11.8870 C.ar      1 D7D         0.0500
     23 H1         -6.0109    1.4477    4.9451 H         1 D7D         0.1672
     24 H2         -4.9734    1.1708    9.4781 H         1 D7D         0.0566
     25 H3         -7.1009    2.5941    7.7204 H         1 D7D         0.0306
     26 H4         -7.3114    1.1432    8.7584 H         1 D7D         0.0306
     27 H5         -6.0123   -0.2819    7.2313 H         1 D7D         0.0513
     28 H6         -6.8434   -1.5545    4.1561 H         1 D7D         0.0518
     29 H7         -6.8731   -1.7685    5.9394 H         1 D7D         0.0518
     30 H8         -8.4116   -3.2424    4.3031 H         1 D7D         0.0279
     31 H9         -9.4994   -1.8207    4.4519 H         1 D7D         0.0279
     32 H10       -10.0382   -3.5439    6.1344 H         1 D7D         0.0230
     33 H11        -9.4466   -2.0382    6.9151 H         1 D7D         0.0230
     34 H12        -8.3589   -3.4599    6.7663 H         1 D7D         0.0230
     35 H13        -4.9103    5.2828    8.9767 H         1 D7D         0.0492
     36 H14        -6.4167    4.3914    8.5734 H         1 D7D         0.0492
     37 H15        -5.0339    4.3833    7.4269 H         1 D7D         0.0492
     38 H16        -3.5510    0.2512    9.8776 H         1 D7D         0.0311
     39 H17        -1.7943   -0.6206   11.6574 H         1 D7D         0.0922
     40 H18        -3.7748    0.6880    7.3852 H         1 D7D         0.0306
     41 H19        -4.2975    2.2318    6.6301 H         1 D7D         0.0306
     42 H20        -1.0511    1.4318   13.1427 H         1 D7D         0.2318
     43 H21        -3.0499    5.7711   12.2753 H         1 D7D         0.0975
@<TRIPOS>BOND
     1    2    1 ar 
     2    1   20 1  
     3    1   21 ar 
     4    2   11 1  
     5   18    2 ar 
     6    6    3 1  
     7    3   14 am 
     8    4    5 1  
     9    4   16 1  
    10   17    4 1  
    11    5    6 1  
    12   16    6 1  
    13    7    8 1  
    14   14    7 1  
    15    8    9 1  
    16   17   10 1  
    17   11   12 2  
    18   12   20 1  
    19   14   13 2  
    20   14   15 2  
    21   17   18 1  
    22   18   19 ar 
    23   19   22 ar 
    24   21   22 ar 
    25    3   23 1  
    26    4   24 1  
    27    5   25 1  
    28    5   26 1  
    29    6   27 1  
    30    7   28 1  
    31    7   29 1  
    32    8   30 1  
    33    8   31 1  
    34    9   32 1  
    35    9   33 1  
    36    9   34 1  
    37   10   35 1  
    38   10   36 1  
    39   10   37 1  
    40   11   38 1  
    41   12   39 1  
    42   16   40 1  
    43   16   41 1  
    44   20   42 1  
    45   22   43 1  
@<TRIPOS>SUBSTRUCTURE
     1 D7D         1

