### 
### Created by X-TOOL on Wed Jan  1 15:39:38 2020
### 

@<TRIPOS>MOLECULE
6bbx_ligand
   62    67     1     0     0
SMALL
GAST_HUCK


@<TRIPOS>ATOM
      1 CAA        -5.3930   -9.3350    5.7450 C.3       1 D77         0.0658
      2 OAV        -6.5750   -8.5130    5.5630 O.3       1 D77        -0.2781
      3 CAX        -7.0890   -7.9760    6.7320 C.2       1 D77         0.2656
      4 OAC        -6.3580   -7.7480    7.7050 O.2       1 D77        -0.3674
      5 CBK        -8.6680   -7.6930    6.8480 C.3       1 D77         0.1851
      6 OAJ        -9.4570   -8.8610    6.6500 O.3       1 D77        -0.3672
      7 CBM        -9.3130   -6.4990    5.9830 C.3       1 D77         0.1310
      8 CAB        -8.2850   -5.8240    5.2770 C.3       1 D77        -0.0294
      9 OAK       -10.2640   -7.0540    4.8930 O.3       1 D77        -0.3818
     10 CBO       -10.0450   -5.5480    6.9650 C.3       1 D77         0.1257
     11 OAW       -10.5160   -6.0350    8.1480 O.3       1 D77        -0.4088
     12 CBN        -9.6580   -4.9640    8.3440 C.3       1 D77         0.1152
     13 CBB       -10.2680   -3.7610    8.8260 C.ar      1 D77        -0.0005
     14 CAT        -9.7020   -3.1180    9.9350 C.ar      1 D77        -0.0126
     15 CAZ       -10.1880   -1.9360   10.4560 C.ar      1 D77         0.1260
     16 OAG        -9.5850   -1.3880   11.5460 O.3       1 D77        -0.3271
     17 CBH       -11.3020   -1.3020    9.8760 C.ar      1 D77         0.0986
     18 CBD       -11.7880   -0.0800   10.4020 C.2       1 D77         0.1699
     19 OAD       -11.2680    0.4520   11.3900 O.2       1 D77        -0.3609
     20 CBF       -12.8830    0.5340    9.7900 C.ar      1 D77         0.0341
     21 CAS       -13.3720    1.7480   10.3010 C.ar      1 D77        -0.0575
     22 CAR       -14.4690    2.3740    9.7140 C.ar      1 D77        -0.0303
     23 CAY       -15.0720    1.7950    8.6010 C.ar      1 D77         0.1286
     24 OAF       -16.1350    2.3720    7.9940 O.3       1 D77        -0.3316
     25 CBA       -14.5900    0.5870    8.0860 C.ar      1 D77         0.1422
     26 OAH       -15.2030    0.0260    6.9980 O.3       1 D77        -0.3296
     27 CBG       -13.4950   -0.0670    8.6700 C.ar      1 D77         0.0702
     28 CBE       -13.0220   -1.2840    8.1430 C.2       1 D77         0.1570
     29 OAE       -13.6000   -1.7800    7.1690 O.2       1 D77        -0.3766
     30 CBI       -11.9090   -1.9240    8.7340 C.ar      1 D77         0.0946
     31 CBC       -11.3920   -3.1580    8.2150 C.ar      1 D77         0.0903
     32 NAU       -11.9530   -3.8120    7.0690 N.pl3     1 D77        -0.2829
     33 CBL       -11.0690   -4.5390    6.1180 C.3       1 D77         0.1296
     34 CAO       -10.2000   -3.5540    5.5270 C.1       1 D77        -0.0660
     35 CAM        -9.3690   -2.7090    5.0740 C.1       1 D77        -0.0710
     36 CAQ        -8.2850   -1.6960    4.6300 C.2       1 D77        -0.0033
     37 CAP        -7.1260   -1.8100    5.4630 C.2       1 D77        -0.0033
     38 CAL        -7.3280   -2.8820    6.5280 C.1       1 D77        -0.0719
     39 CAN        -7.6450   -3.8040    7.3520 C.1       1 D77        -0.0753
     40 CBJ        -8.0940   -4.9230    8.2570 C.3       1 D77         0.1167
     41 OAI        -7.2640   -4.7350    9.5270 O.3       1 D77        -0.3878
     42 H1         -5.0576   -9.7161    4.7691 H         1 D77         0.0577
     43 H2         -5.6328  -10.1808    6.4061 H         1 D77         0.0577
     44 H3         -4.5926   -8.7312    6.1976 H         1 D77         0.0577
     45 H4         -8.8125   -7.3967    7.8974 H         1 D77         0.0884
     46 H5         -9.2886   -9.2124    5.7835 H         1 D77         0.2136
     47 H6         -8.7226   -5.0070    4.6845 H         1 D77         0.0260
     48 H7         -7.7755   -6.5313    4.6061 H         1 D77         0.0260
     49 H8         -7.5595   -5.4100    5.9927 H         1 D77         0.0260
     50 H9        -10.9801   -7.5211    5.3071 H         1 D77         0.2106
     51 H10        -8.8386   -3.5720   10.4077 H         1 D77         0.0719
     52 H11       -10.0313   -0.5834   11.7824 H         1 D77         0.2483
     53 H12       -12.8910    2.2016   11.1601 H         1 D77         0.0568
     54 H13       -14.8499    3.3040   10.1203 H         1 D77         0.0558
     55 H14       -16.4076    1.8361    7.2584 H         1 D77         0.2466
     56 H15       -14.7628   -0.7846    6.7709 H         1 D77         0.2476
     57 H16       -12.9691   -3.7786    6.9038 H         1 D77         0.1946
     58 H17       -11.6541   -5.0881    5.3656 H         1 D77         0.0733
     59 H18        -8.3894   -0.9964    3.8020 H         1 D77         0.0718
     60 H19        -6.2227   -1.2121    5.3510 H         1 D77         0.0718
     61 H20        -7.7923   -5.8838    7.8145 H         1 D77         0.0631
     62 H21        -6.3406   -4.7981    9.3127 H         1 D77         0.2098
@<TRIPOS>BOND
     1    1    2 1  
     2    2    3 1  
     3    3    4 2  
     4    3    5 1  
     5    5    6 1  
     6    5    7 1  
     7    7    8 1  
     8    7    9 1  
     9    7   10 1  
    10   10   11 1  
    11   10   12 1  
    12   10   33 1  
    13   11   12 1  
    14   12   13 1  
    15   12   40 1  
    16   13   14 ar 
    17   13   31 ar 
    18   14   15 ar 
    19   15   16 1  
    20   15   17 ar 
    21   17   18 1  
    22   17   30 ar 
    23   18   19 2  
    24   18   20 1  
    25   20   21 ar 
    26   20   27 ar 
    27   21   22 ar 
    28   22   23 ar 
    29   23   24 1  
    30   23   25 ar 
    31   25   26 1  
    32   25   27 ar 
    33   27   28 1  
    34   28   29 2  
    35   28   30 1  
    36   30   31 ar 
    37   31   32 1  
    38   32   33 1  
    39   33   34 1  
    40   34   35 3  
    41   35   36 1  
    42   36   37 2  
    43   37   38 1  
    44   38   39 3  
    45   39   40 1  
    46   40   41 1  
    47    1   42 1  
    48    1   43 1  
    49    1   44 1  
    50    5   45 1  
    51    6   46 1  
    52    8   47 1  
    53    8   48 1  
    54    8   49 1  
    55    9   50 1  
    56   14   51 1  
    57   16   52 1  
    58   21   53 1  
    59   22   54 1  
    60   24   55 1  
    61   26   56 1  
    62   32   57 1  
    63   33   58 1  
    64   36   59 1  
    65   37   60 1  
    66   40   61 1  
    67   41   62 1  
@<TRIPOS>SUBSTRUCTURE
     1 D77         1

