### 
### Created by X-TOOL on Wed Jan  1 15:39:35 2020
### 

@<TRIPOS>MOLECULE
6bc9_ligand
   36    37     1     0     0
SMALL
GAST_HUCK


@<TRIPOS>ATOM
      1 S1         -6.2250    3.6560   15.6850 S.3       1 ETS        -0.0031
      2 C2         -5.3720    2.2700   15.9310 C.2       1 ETS         0.1594
      3 C3         -4.1190    2.3230   15.3460 C.2       1 ETS        -0.0395
      4 C4         -3.8670    3.5910   14.6840 C.2       1 ETS         0.0112
      5 C5         -2.6250    3.9970   13.8840 C.3       1 ETS         0.0022
      6 C6         -2.5060    5.4930   13.6210 C.3       1 ETS         0.0190
      7 C7         -3.7800    6.0730   12.9960 C.3       1 ETS         0.0839
      8 S8         -5.1210    6.0290   14.2070 S.o2      1 ETS         0.0018
      9 C9         -5.0240    4.3830   14.8430 C.2       1 ETS         0.1413
     10 S10        -6.0170    0.8990   16.8440 S.o2      1 ETS         0.0744
     11 O11        -5.3850    1.0150   18.3090 O.2       1 ETS        -0.1500
     12 O12        -7.6180    1.0250   16.7370 O.2       1 ETS        -0.1500
     13 N13        -5.4010   -0.5200   16.1780 N.am      1 ETS        -0.2605
     14 N14        -2.5270    3.1510   12.6990 N.4       1 ETS         0.2378
     15 C15        -3.5120    7.5010   12.4960 C.3       1 ETS        -0.0423
     16 O16        -6.5410    6.1890   13.4540 O.2       1 ETS        -0.1710
     17 O17        -4.7750    7.0140   15.4420 O.2       1 ETS        -0.1710
     18 C18        -1.3840    3.2310   11.8170 C.3       1 ETS        -0.0353
     19 C19        -1.3770    2.0640   10.8480 C.3       1 ETS        -0.0245
     20 H1         -3.4013    1.5046   15.3784 H         1 ETS         0.0415
     21 H2         -1.7575    3.7462   14.5121 H         1 ETS         0.0966
     22 H3         -1.6640    5.6664   12.9348 H         1 ETS         0.0356
     23 H4         -2.3136    6.0064   14.5746 H         1 ETS         0.0356
     24 H5         -4.0677    5.4519   12.1349 H         1 ETS         0.0538
     25 H6         -5.6562   -1.4060   16.5652 H         1 ETS         0.1635
     26 H7         -4.7800   -0.4766   15.3954 H         1 ETS         0.1635
     27 H8         -3.3380    3.3528   12.1354 H         1 ETS         0.2026
     28 H9         -2.5719    2.1977   13.0234 H         1 ETS         0.2026
     29 H10        -2.6918    7.4850   11.7631 H         1 ETS         0.0248
     30 H11        -3.2318    8.1406   13.3459 H         1 ETS         0.0248
     31 H12        -4.4204    7.8997   12.0209 H         1 ETS         0.0248
     32 H13        -0.4620    3.2090   12.4166 H         1 ETS         0.0811
     33 H14        -1.4300    4.1722   11.2495 H         1 ETS         0.0811
     34 H15        -0.5017    2.1420   10.1864 H         1 ETS         0.0281
     35 H16        -2.2961    2.0835   10.2439 H         1 ETS         0.0281
     36 H17        -1.3281    1.1202   11.4109 H         1 ETS         0.0281
@<TRIPOS>BOND
     1    1    2 1  
     2    1    9 1  
     3    2    3 2  
     4    2   10 1  
     5    3    4 1  
     6    4    5 1  
     7    4    9 2  
     8    5    6 1  
     9    5   14 1  
    10    6    7 1  
    11    7    8 1  
    12    7   15 1  
    13    8    9 1  
    14    8   16 2  
    15    8   17 2  
    16   10   11 2  
    17   10   12 2  
    18   10   13 am 
    19   14   18 1  
    20   18   19 1  
    21    3   20 1  
    22    5   21 1  
    23    6   22 1  
    24    6   23 1  
    25    7   24 1  
    26   13   25 1  
    27   13   26 1  
    28   14   27 1  
    29   14   28 1  
    30   15   29 1  
    31   15   30 1  
    32   15   31 1  
    33   18   32 1  
    34   18   33 1  
    35   19   34 1  
    36   19   35 1  
    37   19   36 1  
@<TRIPOS>SUBSTRUCTURE
     1 ETS         1

