### 
### Created by X-TOOL on Wed Jan  1 15:39:35 2020
### 

@<TRIPOS>MOLECULE
6bdy_ligand
   51    53     1     0     0
SMALL
GAST_HUCK


@<TRIPOS>ATOM
      1 N         -10.1220   20.6750  -13.9270 N.4       1 SFG         0.2327
      2 CA         -9.4700   19.3770  -13.6500 C.3       1 SFG         0.0285
      3 C          -8.5740   19.4920  -12.4470 C.2       1 SFG         0.0844
      4 O          -7.8440   20.5020  -12.3210 O.co2     1 SFG        -0.5643
      5 OXT        -8.6010   18.5780  -11.5810 O.co2     1 SFG        -0.5643
      6 CB         -8.7030   18.9290  -14.9010 C.3       1 SFG         0.0075
      7 CG         -7.8850   17.6530  -14.6660 C.3       1 SFG        -0.0030
      8 CD         -8.7300   16.4050  -14.3550 C.3       1 SFG        -0.0216
      9 NE         -7.8090   15.4350  -13.7050 N.4       1 SFG         0.2208
     10 C5'        -9.3270   15.7310  -15.6080 C.3       1 SFG         0.0191
     11 C4'        -8.3030   14.9490  -16.4470 C.3       1 SFG         0.0957
     12 O4'        -7.9760   13.6490  -15.9300 O.3       1 SFG        -0.3389
     13 C3'        -8.7960   14.6510  -17.8570 C.3       1 SFG         0.1126
     14 O3'        -8.5990   15.7610  -18.7340 O.3       1 SFG        -0.3865
     15 C2'        -7.9620   13.4500  -18.2520 C.3       1 SFG         0.1384
     16 O2'        -6.6330   13.8430  -18.6160 O.3       1 SFG        -0.3836
     17 C1'        -7.8570   12.6880  -16.9760 C.3       1 SFG         0.2009
     18 N9         -8.9450   11.7240  -16.8030 N.pl3     1 SFG        -0.1919
     19 C8        -10.0410   11.8480  -16.0340 C.2       1 SFG         0.1123
     20 N7        -10.8010   10.7150  -16.0920 N.2       1 SFG        -0.2958
     21 C5        -10.1680    9.8600  -16.9080 C.ar      1 SFG         0.1045
     22 C6        -10.4130    8.4980  -17.3870 C.ar      1 SFG         0.1298
     23 N6        -11.5300    7.8160  -16.9940 N.pl3     1 SFG        -0.3152
     24 N1         -9.4420    7.9970  -18.1920 N.ar      1 SFG        -0.2698
     25 C2         -8.3570    8.6890  -18.6000 C.ar      1 SFG         0.0533
     26 N3         -8.0790    9.9540  -18.1940 N.ar      1 SFG        -0.2714
     27 C4         -8.9500   10.5240  -17.3600 C.ar      1 SFG         0.1613
     28 H1        -10.7191   20.5856  -14.7342 H         1 SFG         0.2010
     29 H2         -9.4176   21.3735  -14.1059 H         1 SFG         0.2010
     30 H3        -10.6738   20.9507  -13.1298 H         1 SFG         0.2010
     31 H4        -10.2460   18.6289  -13.4306 H         1 SFG         0.1024
     32 H5         -8.0186   19.7357  -15.2023 H         1 SFG         0.0340
     33 H6         -9.4256   18.7404  -15.7086 H         1 SFG         0.0340
     34 H7         -7.2074   17.8299  -13.8177 H         1 SFG         0.0323
     35 H8         -7.2940   17.4514  -15.5716 H         1 SFG         0.0323
     36 H9         -9.5475   16.6786  -13.6717 H         1 SFG         0.0851
     37 H10        -8.3139   14.5926  -13.4781 H         1 SFG         0.1997
     38 H11        -7.4352   15.8402  -12.8611 H         1 SFG         0.1997
     39 H12        -7.0538   15.2146  -14.3352 H         1 SFG         0.1997
     40 H13        -9.7695   16.5125  -16.2432 H         1 SFG         0.0346
     41 H14       -10.1131   15.0332  -15.2838 H         1 SFG         0.0346
     42 H15        -7.3884   15.5579  -16.4985 H         1 SFG         0.0626
     43 H16        -9.8652   14.3927  -17.8480 H         1 SFG         0.0647
     44 H17        -9.0763   16.5130  -18.4034 H         1 SFG         0.2100
     45 H18        -8.4361   12.8685  -19.0564 H         1 SFG         0.0676
     46 H19        -6.6716   14.4424  -19.3520 H         1 SFG         0.2101
     47 H20        -6.8887   12.1683  -16.9277 H         1 SFG         0.0996
     48 H21       -10.2885   12.7305  -15.4459 H         1 SFG         0.1349
     49 H22       -11.6953    6.8583  -17.3352 H         1 SFG         0.1820
     50 H23       -12.2066    8.2596  -16.3566 H         1 SFG         0.1820
     51 H24        -7.6712    8.2088  -19.2886 H         1 SFG         0.0996
@<TRIPOS>BOND
     1    1    2 1  
     2    2    3 1  
     3    2    6 1  
     4    3    4 ar 
     5    3    5 ar 
     6    6    7 1  
     7    7    8 1  
     8    8    9 1  
     9    8   10 1  
    10   10   11 1  
    11   11   12 1  
    12   11   13 1  
    13   12   17 1  
    14   13   14 1  
    15   13   15 1  
    16   15   16 1  
    17   15   17 1  
    18   17   18 1  
    19   18   19 1  
    20   18   27 1  
    21   19   20 2  
    22   20   21 1  
    23   21   22 ar 
    24   21   27 ar 
    25   22   23 1  
    26   22   24 ar 
    27   24   25 ar 
    28   25   26 ar 
    29   26   27 ar 
    30    1   28 1  
    31    1   29 1  
    32    1   30 1  
    33    2   31 1  
    34    6   32 1  
    35    6   33 1  
    36    7   34 1  
    37    7   35 1  
    38    8   36 1  
    39    9   37 1  
    40    9   38 1  
    41    9   39 1  
    42   10   40 1  
    43   10   41 1  
    44   11   42 1  
    45   13   43 1  
    46   14   44 1  
    47   15   45 1  
    48   16   46 1  
    49   17   47 1  
    50   19   48 1  
    51   23   49 1  
    52   23   50 1  
    53   25   51 1  
@<TRIPOS>SUBSTRUCTURE
     1 SFG         1

