### 
### Created by X-TOOL on Wed Jan  1 15:39:36 2020
### 

@<TRIPOS>MOLECULE
6beb_ligand
   99   102     1     0     0
SMALL
GAST_HUCK


@<TRIPOS>ATOM
      1 C1         87.8340  101.8440   41.6330 C.ar      1 RFV         0.0938
      2 C2         88.3550  100.9370   42.5700 C.ar      1 RFV         0.0735
      3 C3         89.4070  101.3420   43.3910 C.ar      1 RFV        -0.0288
      4 C4         89.6540  102.6760   43.6010 C.ar      1 RFV         0.0684
      5 C5         88.7410  105.0680   43.4320 C.ar      1 RFV         0.0026
      6 C6         87.9800  105.9650   42.7170 C.ar      1 RFV         0.0824
      7 C7         87.1650  105.6160   41.6360 C.ar      1 RFV        -0.0024
      8 C8         87.1170  104.2520   41.2330 C.ar      1 RFV         0.0779
      9 C9         87.9290  103.2510   41.9460 C.ar      1 RFV         0.0114
     10 C10        88.7830  103.6770   43.0460 C.ar      1 RFV        -0.0122
     11 C11        89.2120  105.8010   44.6640 C.3       1 RFV         0.1396
     12 C12        89.0450  107.2880   44.2390 C.3       1 RFV         0.2334
     13 C13        88.4960  108.1990   45.3040 C.3       1 RFV         0.0017
     14 C14        86.3370  106.6540   40.9160 C.3       1 RFV        -0.0394
     15 C15        88.2250   98.4930   43.1140 C.2       1 RFV         0.2153
     16 C16        88.3770   97.1500   42.4440 C.2       1 RFV         0.0206
     17 C17        89.4870   96.8060   41.7200 C.2       1 RFV        -0.0663
     18 C18        90.6980   97.5600   41.5700 C.2       1 RFV        -0.0756
     19 C19        91.7550   97.1810   40.8360 C.2       1 RFV        -0.0707
     20 C20        93.0780   97.9000   40.7220 C.3       1 RFV         0.0137
     21 C21        93.0000   99.2270   39.9390 C.3       1 RFV         0.0738
     22 C22        94.3110  100.0570   39.8930 C.3       1 RFV         0.0112
     23 C23        94.0620  101.6000   39.6380 C.3       1 RFV         0.0656
     24 C24        93.3070  102.4040   40.7780 C.3       1 RFV         0.0137
     25 C25        93.3880  103.9490   40.5010 C.3       1 RFV         0.0986
     26 C26        92.1370  104.7900   40.9510 C.3       1 RFV         0.0179
     27 C27        92.3330  106.3250   40.9940 C.3       1 RFV         0.0761
     28 C28        91.2350  107.0660   41.7220 C.2       1 RFV        -0.0506
     29 C29        91.2560  107.2870   43.0230 C.2       1 RFV         0.0413
     30 C30        87.1840   96.2550   42.5830 C.3       1 RFV        -0.0277
     31 C31        93.6630   98.1060   42.1220 C.3       1 RFV        -0.0483
     32 C32        95.3280   99.4760   38.9060 C.3       1 RFV        -0.0575
     33 C33        93.7880  102.0360   42.1850 C.3       1 RFV        -0.0573
     34 C34        90.8930  104.3970   40.1470 C.3       1 RFV        -0.0561
     35 C35        95.6340  104.8150   40.3540 C.2       1 RFV         0.2309
     36 C36        96.7630  105.3200   41.1830 C.3       1 RFV         0.0372
     37 C37        93.6070  107.6140   39.4370 C.3       1 RFV         0.0387
     38 N1         88.2030   99.5610   42.2660 N.am      1 RFV        -0.2474
     39 O1         87.7620  101.4690   40.3150 O.3       1 RFV        -0.3518
     40 O2         86.3360  103.8250   40.1900 O.3       1 RFV        -0.3458
     41 O3         88.1040  107.2680   43.1310 O.3       1 RFV        -0.2936
     42 O4         90.5200  105.4650   45.1100 O.3       1 RFV        -0.3775
     43 O5         90.1620  108.0220   43.5970 O.3       1 RFV        -0.2980
     44 O6         92.4610  106.7960   39.6430 O.3       1 RFV        -0.3732
     45 O7         94.5750  104.4810   41.1350 O.3       1 RFV        -0.2729
     46 O8         95.6390  104.7100   39.1580 O.2       1 RFV        -0.3707
     47 O9         93.3820  101.7790   38.3990 O.3       1 RFV        -0.3911
     48 O10        92.4890   99.0060   38.6270 O.3       1 RFV        -0.3885
     49 O11        88.1580   98.5840   44.3410 O.2       1 RFV        -0.3840
     50 O12        90.7750  103.0570   44.2620 O.3       1 RFV        -0.3436
     51 H1         90.0347  100.5975   43.8672 H         1 RFV         0.0363
     52 H2         88.5275  105.5815   45.4966 H         1 RFV         0.0768
     53 H3         88.4166  109.2216   44.9065 H         1 RFV         0.0291
     54 H4         89.1700  108.1948   46.1733 H         1 RFV         0.0291
     55 H5         87.5001  107.8464   45.6105 H         1 RFV         0.0291
     56 H6         86.5094  107.6406   41.3709 H         1 RFV         0.0337
     57 H7         85.2713  106.3939   40.9973 H         1 RFV         0.0337
     58 H8         86.6274  106.6836   39.8554 H         1 RFV         0.0337
     59 H9         89.4458   95.8509   41.1985 H         1 RFV         0.0536
     60 H10        90.7645   98.5134   42.0921 H         1 RFV         0.0434
     61 H11        91.6480   96.2606   40.2638 H         1 RFV         0.0714
     62 H12        93.7617   97.2414   40.1664 H         1 RFV         0.0522
     63 H13        92.2650   99.8505   40.4691 H         1 RFV         0.0629
     64 H14        94.7627   99.9766   40.8928 H         1 RFV         0.0350
     65 H15        95.0565  102.0603   39.5433 H         1 RFV         0.0600
     66 H16        92.2456  102.1202   40.7240 H         1 RFV         0.0352
     67 H17        93.4886  104.0776   39.4132 H         1 RFV         0.0658
     68 H18        91.9402  104.4918   41.9913 H         1 RFV         0.0368
     69 H19        93.2740  106.5300   41.5254 H         1 RFV         0.0691
     70 H20        90.3873  107.4346   41.1463 H         1 RFV         0.0359
     71 H21        92.0756  106.9243   43.6416 H         1 RFV         0.0852
     72 H22        86.4259   96.7491   43.2084 H         1 RFV         0.0384
     73 H23        87.4883   95.3089   43.0544 H         1 RFV         0.0384
     74 H24        86.7616   96.0498   41.5883 H         1 RFV         0.0384
     75 H25        93.7028   97.1409   42.6484 H         1 RFV         0.0262
     76 H26        93.0277   98.8051   42.6856 H         1 RFV         0.0262
     77 H27        94.6787   98.5198   42.0378 H         1 RFV         0.0262
     78 H28        95.4725   98.4059   39.1159 H         1 RFV         0.0234
     79 H29        96.2870  100.0037   39.0145 H         1 RFV         0.0234
     80 H30        94.9548   99.6010   37.8788 H         1 RFV         0.0234
     81 H31        93.7107  100.9478   42.3259 H         1 RFV         0.0234
     82 H32        93.1630  102.5477   42.9317 H         1 RFV         0.0234
     83 H33        94.8356  102.3481   42.3077 H         1 RFV         0.0234
     84 H34        90.7910  103.3018   40.1414 H         1 RFV         0.0235
     85 H35        90.9939  104.7611   39.1139 H         1 RFV         0.0235
     86 H36        90.0012  104.8460   40.6085 H         1 RFV         0.0235
     87 H37        97.6080  105.5838   40.5300 H         1 RFV         0.0483
     88 H38        97.0766  104.5384   41.8906 H         1 RFV         0.0483
     89 H39        96.4386  106.2109   41.7407 H         1 RFV         0.0483
     90 H40        93.6423  107.9377   38.3863 H         1 RFV         0.0525
     91 H41        94.5148  107.0399   39.6744 H         1 RFV         0.0525
     92 H42        93.5498  108.4967   40.0909 H         1 RFV         0.0525
     93 H43        88.0605   99.3441   41.3002 H         1 RFV         0.2178
     94 H44        88.5403  101.7672   39.8591 H         1 RFV         0.2386
     95 H45        86.8873  103.4335   39.5226 H         1 RFV         0.2429
     96 H46        90.5450  104.5464   45.3510 H         1 RFV         0.2125
     97 H47        92.4920  101.4563   38.4780 H         1 RFV         0.2098
     98 H48        92.3065   99.8421   38.2144 H         1 RFV         0.2101
     99 H49        90.5346  103.5967   45.0059 H         1 RFV         0.2449
@<TRIPOS>BOND
     1    1    2 ar 
     2    9    1 ar 
     3    1   39 1  
     4    3    2 ar 
     5   38    2 1  
     6    4    3 ar 
     7   10    4 ar 
     8    4   50 1  
     9    6    5 ar 
    10    5   10 ar 
    11   11    5 1  
    12    6    7 ar 
    13   41    6 1  
    14    7    8 ar 
    15    7   14 1  
    16    8    9 ar 
    17    8   40 1  
    18   10    9 ar 
    19   12   11 1  
    20   11   42 1  
    21   12   13 1  
    22   12   41 1  
    23   43   12 1  
    24   16   15 1  
    25   15   38 am 
    26   15   49 2  
    27   17   16 2  
    28   16   30 1  
    29   18   17 1  
    30   19   18 2  
    31   20   19 1  
    32   21   20 1  
    33   20   31 1  
    34   22   21 1  
    35   21   48 1  
    36   23   22 1  
    37   22   32 1  
    38   24   23 1  
    39   23   47 1  
    40   25   24 1  
    41   24   33 1  
    42   25   26 1  
    43   45   25 1  
    44   26   27 1  
    45   26   34 1  
    46   27   28 1  
    47   27   44 1  
    48   28   29 2  
    49   29   43 1  
    50   35   36 1  
    51   35   45 1  
    52   35   46 2  
    53   44   37 1  
    54    3   51 1  
    55   11   52 1  
    56   13   53 1  
    57   13   54 1  
    58   13   55 1  
    59   14   56 1  
    60   14   57 1  
    61   14   58 1  
    62   17   59 1  
    63   18   60 1  
    64   19   61 1  
    65   20   62 1  
    66   21   63 1  
    67   22   64 1  
    68   23   65 1  
    69   24   66 1  
    70   25   67 1  
    71   26   68 1  
    72   27   69 1  
    73   28   70 1  
    74   29   71 1  
    75   30   72 1  
    76   30   73 1  
    77   30   74 1  
    78   31   75 1  
    79   31   76 1  
    80   31   77 1  
    81   32   78 1  
    82   32   79 1  
    83   32   80 1  
    84   33   81 1  
    85   33   82 1  
    86   33   83 1  
    87   34   84 1  
    88   34   85 1  
    89   34   86 1  
    90   36   87 1  
    91   36   88 1  
    92   36   89 1  
    93   37   90 1  
    94   37   91 1  
    95   37   92 1  
    96   38   93 1  
    97   39   94 1  
    98   40   95 1  
    99   42   96 1  
   100   47   97 1  
   101   48   98 1  
   102   50   99 1  
@<TRIPOS>SUBSTRUCTURE
     1 RFV         1

