### 
### Created by X-TOOL on Wed Jan  1 15:39:37 2020
### 

@<TRIPOS>MOLECULE
6bec_ligand
  126   131     1     0     0
SMALL
GAST_HUCK


@<TRIPOS>ATOM
      1 C1         88.0710  101.7670   39.9240 C.2       1 RBT         0.1791
      2 C2         88.4750  100.7600   40.9670 C.2       1 RBT         0.1541
      3 C3         88.4640  101.1300   42.2780 C.2       1 RBT         0.0981
      4 C4         88.2000  102.5110   42.6760 C.2       1 RBT         0.0462
      5 C5         87.7840  104.9430   42.0780 C.ar      1 RBT         0.0725
      6 C6         87.5290  105.8760   41.0750 C.ar      1 RBT         0.1189
      7 C7         87.3880  105.5510   39.7220 C.ar      1 RBT         0.0311
      8 C8         87.5360  104.2040   39.3670 C.ar      1 RBT         0.1129
      9 C9         87.8130  103.1950   40.3340 C.ar      1 RBT         0.0679
     10 C10        87.9160  103.5770   41.7160 C.ar      1 RBT         0.0195
     11 C11        87.9950  105.7090   43.2730 C.2       1 RBT         0.2066
     12 C12        88.1990  107.1890   42.8280 C.3       1 RBT         0.2533
     13 C13        87.5740  108.2860   43.7370 C.3       1 RBT        -0.0001
     14 C14        87.1070  106.6050   38.6780 C.3       1 RBT        -0.0299
     15 C15        88.2630   98.3090   40.7800 C.2       1 RBT         0.2261
     16 C16        88.6240   97.2210   39.7410 C.2       1 RBT         0.0233
     17 C17        89.9410   96.9520   39.3960 C.2       1 RBT        -0.0660
     18 C18        91.1070   97.6280   39.8960 C.2       1 RBT        -0.0755
     19 C19        92.3860   97.3860   39.5790 C.2       1 RBT        -0.0706
     20 C20        93.5790   98.1530   40.1050 C.3       1 RBT         0.0138
     21 C21        93.5640   99.6400   39.5780 C.3       1 RBT         0.0738
     22 C22        94.5610  100.6780   40.2620 C.3       1 RBT         0.0112
     23 C23        93.8870  102.0500   40.5240 C.3       1 RBT         0.0656
     24 C24        94.1820  103.1500   39.4690 C.3       1 RBT         0.0136
     25 C25        93.9270  104.5940   39.9680 C.3       1 RBT         0.0974
     26 C26        92.4970  104.8700   40.5000 C.3       1 RBT         0.0136
     27 C27        92.4550  105.9720   41.5820 C.3       1 RBT         0.0657
     28 C28        91.2310  105.8780   42.4600 C.3       1 RBT        -0.0028
     29 C29        90.6330  106.8930   43.1080 C.3       1 RBT         0.0517
     30 C30        87.4460   96.4920   39.1620 C.3       1 RBT        -0.0274
     31 C31        93.6340   98.0840   41.6370 C.3       1 RBT        -0.0483
     32 C32        95.9030  100.7780   39.5300 C.3       1 RBT        -0.0575
     33 C33        93.4650  102.8800   38.1400 C.3       1 RBT        -0.0573
     34 C34        91.5010  105.1480   39.3670 C.3       1 RBT        -0.0573
     35 C35        96.0680  105.4790   40.6430 C.2       1 RBT         0.2309
     36 C36        96.8920  105.7770   41.8470 C.3       1 RBT         0.0372
     37 C37        93.6390  108.0470   41.4480 C.3       1 RBT         0.0368
     38 C38        88.6340  101.3190   44.5170 C.3       1 RBT         0.0969
     39 C39        87.5870  100.9610   45.5680 C.3       1 RBT         0.0203
     40 C40        90.0160  101.4660   45.1460 C.3       1 RBT         0.0203
     41 C41        88.0250   99.8200   46.4750 C.3       1 RBT        -0.0289
     42 C42        90.3750  100.3070   46.0640 C.3       1 RBT        -0.0289
     43 C43        89.7500   99.1220   48.1230 C.3       1 RBT        -0.0295
     44 C44        89.4530   97.6390   47.8480 C.3       1 RBT        -0.0064
     45 C45        88.0560   97.1220   48.1820 C.3       1 RBT        -0.0578
     46 C46        90.0200   97.0540   46.5530 C.3       1 RBT        -0.0578
     47 N1         88.9540   99.4890   40.6460 N.am      1 RBT        -0.2266
     48 N2         88.6870  100.3690   43.3890 N.pl3     1 RBT        -0.3187
     49 N3         88.2890  102.6230   43.9580 N.2       1 RBT        -0.3358
     50 N4         89.3390  100.1040   47.0970 N.4       1 RBT         0.2356
     51 O1         87.9860  101.4110   38.7460 O.2       1 RBT        -0.3702
     52 O2         87.4080  103.8970   38.0450 O.3       1 RBT        -0.3290
     53 O3         87.5130  107.1950   41.5200 O.3       1 RBT        -0.2796
     54 O4         88.0390  105.4090   44.4490 O.2       1 RBT        -0.3295
     55 O5         89.5800  107.6280   42.5020 O.3       1 RBT        -0.3449
     56 O6         92.5600  107.2600   40.9500 O.3       1 RBT        -0.3793
     57 O7         94.8910  104.9070   41.0010 O.3       1 RBT        -0.2730
     58 O8         96.3850  105.7020   39.5040 O.2       1 RBT        -0.3707
     59 O9         94.2480  102.4600   41.8390 O.3       1 RBT        -0.3911
     60 O10        93.7140   99.6410   38.1610 O.3       1 RBT        -0.3885
     61 O11        87.4580   98.0920   41.6900 O.2       1 RBT        -0.3785
     62 H1         87.7887  109.2786   43.3143 H         1 RBT         0.0272
     63 H2         88.0061  108.2160   44.7461 H         1 RBT         0.0272
     64 H3         86.4853  108.1391   43.7933 H         1 RBT         0.0272
     65 H4         87.0270  107.5891   39.1628 H         1 RBT         0.0359
     66 H5         86.1622  106.3709   38.1656 H         1 RBT         0.0359
     67 H6         87.9270  106.6229   37.9450 H         1 RBT         0.0359
     68 H7         90.1073   96.1513   38.6769 H         1 RBT         0.0536
     69 H8         90.9306   98.4276   40.6140 H         1 RBT         0.0435
     70 H9         92.5830   96.5698   38.8855 H         1 RBT         0.0715
     71 H10        94.4886   97.6714   39.7169 H         1 RBT         0.0522
     72 H11        92.5550  100.0210   39.7939 H         1 RBT         0.0629
     73 H12        94.7942  100.2652   41.2545 H         1 RBT         0.0350
     74 H13        92.7992  101.8876   40.5067 H         1 RBT         0.0600
     75 H14        95.2601  103.0866   39.2601 H         1 RBT         0.0352
     76 H15        94.0943  105.2698   39.1164 H         1 RBT         0.0656
     77 H16        92.1650  103.9422   40.9888 H         1 RBT         0.0352
     78 H17        93.3335  105.8398   42.2306 H         1 RBT         0.0600
     79 H18        91.4967  105.1545   43.2448 H         1 RBT         0.0312
     80 H19        90.4490  105.4496   41.8159 H         1 RBT         0.0312
     81 H20        91.4233  107.6194   43.3486 H         1 RBT         0.0559
     82 H21        90.2254  106.4727   44.0392 H         1 RBT         0.0559
     83 H22        86.5179   96.8912   39.5970 H         1 RBT         0.0384
     84 H23        87.5281   95.4199   39.3939 H         1 RBT         0.0384
     85 H24        87.4289   96.6309   38.0710 H         1 RBT         0.0384
     86 H25        93.6427   97.0315   41.9565 H         1 RBT         0.0262
     87 H26        92.7518   98.5879   42.0587 H         1 RBT         0.0262
     88 H27        94.5469   98.5831   41.9940 H         1 RBT         0.0262
     89 H28        96.3159   99.7693   39.3820 H         1 RBT         0.0234
     90 H29        96.6042  101.3768   40.1298 H         1 RBT         0.0234
     91 H30        95.7526  101.2596   38.5526 H         1 RBT         0.0234
     92 H31        93.6679  101.8483   37.8169 H         1 RBT         0.0234
     93 H32        93.8313  103.5820   37.3765 H         1 RBT         0.0234
     94 H33        92.3817  103.0160   38.2736 H         1 RBT         0.0234
     95 H34        91.5618  104.3431   38.6197 H         1 RBT         0.0234
     96 H35        91.7456  106.1092   38.8913 H         1 RBT         0.0234
     97 H36        90.4814  105.1910   39.7774 H         1 RBT         0.0234
     98 H37        97.8406  106.2395   41.5368 H         1 RBT         0.0483
     99 H38        97.0997  104.8429   42.3895 H         1 RBT         0.0483
    100 H39        96.3445  106.4687   42.5040 H         1 RBT         0.0483
    101 H40        93.6603  109.0137   40.9235 H         1 RBT         0.0524
    102 H41        94.5880  107.5171   41.2788 H         1 RBT         0.0524
    103 H42        93.5014  108.2176   42.5259 H         1 RBT         0.0524
    104 H43        86.6606  100.6651   45.0541 H         1 RBT         0.0348
    105 H44        87.3946  101.8486   46.1885 H         1 RBT         0.0348
    106 H45        90.0380  102.3971   45.7313 H         1 RBT         0.0348
    107 H46        90.7639  101.5209   44.3413 H         1 RBT         0.0348
    108 H47        88.1015   98.8979   45.8801 H         1 RBT         0.0815
    109 H48        87.2748   99.6837   47.2678 H         1 RBT         0.0815
    110 H49        91.3349  100.5228   46.5560 H         1 RBT         0.0815
    111 H50        90.4684   99.3897   45.4642 H         1 RBT         0.0815
    112 H51        90.8374   99.2207   48.2561 H         1 RBT         0.0817
    113 H52        89.2400   99.3916   49.0596 H         1 RBT         0.0817
    114 H53        90.0693   97.1478   48.6154 H         1 RBT         0.0347
    115 H54        87.9919   96.0523   47.9338 H         1 RBT         0.0234
    116 H55        87.3093   97.6794   47.5975 H         1 RBT         0.0234
    117 H56        87.8602   97.2616   49.2554 H         1 RBT         0.0234
    118 H57        91.0237   97.4665   46.3730 H         1 RBT         0.0234
    119 H58        89.3600   97.3154   45.7127 H         1 RBT         0.0234
    120 H59        90.0840   95.9595   46.6422 H         1 RBT         0.0234
    121 H60        89.8851   99.4319   40.2856 H         1 RBT         0.2330
    122 H61        88.8554   99.3537   43.4309 H         1 RBT         0.1687
    123 H62        89.2381  100.9828   47.5802 H         1 RBT         0.2033
    124 H63        88.2159  103.5075   37.7318 H         1 RBT         0.2505
    125 H64        93.7542  103.2368   42.0741 H         1 RBT         0.2098
    126 H65        93.1097   99.0152   37.7793 H         1 RBT         0.2101
@<TRIPOS>BOND
     1    2    1 1  
     2    9    1 1  
     3    1   51 2  
     4    3    2 2  
     5    2   47 1  
     6    4    3 1  
     7   48    3 1  
     8    4   10 1  
     9   49    4 2  
    10    5    6 ar 
    11   10    5 ar 
    12    5   11 1  
    13    6    7 ar 
    14    6   53 1  
    15    8    7 ar 
    16    7   14 1  
    17    9    8 ar 
    18    8   52 1  
    19   10    9 ar 
    20   11   12 1  
    21   11   54 2  
    22   12   13 1  
    23   12   53 1  
    24   12   55 1  
    25   15   16 1  
    26   47   15 am 
    27   15   61 2  
    28   16   17 2  
    29   16   30 1  
    30   17   18 1  
    31   18   19 2  
    32   19   20 1  
    33   20   21 1  
    34   20   31 1  
    35   21   22 1  
    36   21   60 1  
    37   22   23 1  
    38   22   32 1  
    39   24   23 1  
    40   23   59 1  
    41   25   24 1  
    42   24   33 1  
    43   26   25 1  
    44   25   57 1  
    45   27   26 1  
    46   26   34 1  
    47   28   27 1  
    48   27   56 1  
    49   29   28 1  
    50   55   29 1  
    51   35   36 1  
    52   57   35 1  
    53   35   58 2  
    54   56   37 1  
    55   39   38 1  
    56   40   38 1  
    57   38   48 1  
    58   38   49 1  
    59   41   39 1  
    60   42   40 1  
    61   50   41 1  
    62   50   42 1  
    63   43   44 1  
    64   43   50 1  
    65   44   45 1  
    66   44   46 1  
    67   13   62 1  
    68   13   63 1  
    69   13   64 1  
    70   14   65 1  
    71   14   66 1  
    72   14   67 1  
    73   17   68 1  
    74   18   69 1  
    75   19   70 1  
    76   20   71 1  
    77   21   72 1  
    78   22   73 1  
    79   23   74 1  
    80   24   75 1  
    81   25   76 1  
    82   26   77 1  
    83   27   78 1  
    84   28   79 1  
    85   28   80 1  
    86   29   81 1  
    87   29   82 1  
    88   30   83 1  
    89   30   84 1  
    90   30   85 1  
    91   31   86 1  
    92   31   87 1  
    93   31   88 1  
    94   32   89 1  
    95   32   90 1  
    96   32   91 1  
    97   33   92 1  
    98   33   93 1  
    99   33   94 1  
   100   34   95 1  
   101   34   96 1  
   102   34   97 1  
   103   36   98 1  
   104   36   99 1  
   105   36  100 1  
   106   37  101 1  
   107   37  102 1  
   108   37  103 1  
   109   39  104 1  
   110   39  105 1  
   111   40  106 1  
   112   40  107 1  
   113   41  108 1  
   114   41  109 1  
   115   42  110 1  
   116   42  111 1  
   117   43  112 1  
   118   43  113 1  
   119   44  114 1  
   120   45  115 1  
   121   45  116 1  
   122   45  117 1  
   123   46  118 1  
   124   46  119 1  
   125   46  120 1  
   126   47  121 1  
   127   48  122 1  
   128   50  123 1  
   129   52  124 1  
   130   59  125 1  
   131   60  126 1  
@<TRIPOS>SUBSTRUCTURE
     1 RBT         1

