### 
### Created by X-TOOL on Wed Jan  1 15:39:37 2020
### 

@<TRIPOS>MOLECULE
6bed_ligand
  118   122     1     0     0
SMALL
GAST_HUCK


@<TRIPOS>ATOM
      1 C1         90.4580  102.7110   42.1180 C.ar      1 RFP         0.1064
      2 C2         91.0820  101.7720   42.9490 C.ar      1 RFP         0.0941
      3 C3         91.7250  102.1800   44.1230 C.ar      1 RFP         0.0328
      4 C4         91.7400  103.5550   44.4470 C.ar      1 RFP         0.0879
      5 C5         91.1240  105.9570   43.8630 C.ar      1 RFP         0.0461
      6 C6         90.5200  106.8220   42.9810 C.ar      1 RFP         0.1025
      7 C7         89.8630  106.3970   41.8380 C.ar      1 RFP         0.0198
      8 C8         89.8370  105.0570   41.5650 C.ar      1 RFP         0.0998
      9 C9         90.4630  104.0960   42.4250 C.ar      1 RFP         0.0297
     10 C10        91.1220  104.5420   43.6090 C.ar      1 RFP         0.0025
     11 C11        91.7190  106.8300   44.9480 C.2       1 RFP         0.1822
     12 C12        91.5510  108.2640   44.5240 C.3       1 RFP         0.2590
     13 C13        90.9750  109.2360   45.5440 C.3       1 RFP        -0.0005
     14 C14        89.2070  107.4070   40.9220 C.3       1 RFP        -0.0346
     15 C15        90.5300   99.3530   43.1380 C.2       1 RFP         0.2176
     16 C16        90.7300   98.0500   42.4720 C.2       1 RFP         0.0212
     17 C17        91.8600   97.7140   41.8060 C.2       1 RFP        -0.0662
     18 C18        93.0780   98.5650   41.6860 C.2       1 RFP        -0.0756
     19 C19        94.1370   98.1300   40.9800 C.2       1 RFP        -0.0707
     20 C20        95.5080   98.8380   40.8050 C.3       1 RFP         0.0137
     21 C21        95.3440  100.3580   40.5040 C.3       1 RFP         0.0738
     22 C22        96.7140  101.0930   40.4010 C.3       1 RFP         0.0112
     23 C23        96.6000  102.5940   40.1030 C.3       1 RFP         0.0656
     24 C24        95.5990  103.3860   41.0280 C.3       1 RFP         0.0137
     25 C25        95.6050  104.9220   40.6640 C.3       1 RFP         0.0986
     26 C26        94.6300  105.8060   41.4610 C.3       1 RFP         0.0179
     27 C27        94.7420  107.3150   41.0630 C.3       1 RFP         0.0761
     28 C28        93.7730  108.2700   41.8290 C.2       1 RFP        -0.0510
     29 C29        93.6830  108.1130   43.1840 C.2       1 RFP         0.0372
     30 C30        89.5640   97.1070   42.5710 C.3       1 RFP        -0.0276
     31 C31        96.2840   98.6330   42.1090 C.3       1 RFP        -0.0483
     32 C32        97.6820  100.4090   39.3920 C.3       1 RFP        -0.0575
     33 C33        95.9690  103.1520   42.5070 C.3       1 RFP        -0.0573
     34 C34        93.1870  105.3690   41.2450 C.3       1 RFP        -0.0561
     35 C35        97.7020  105.9570   39.9720 C.2       1 RFP         0.2309
     36 C36        99.0370  106.4530   40.4660 C.3       1 RFP         0.0372
     37 C37        95.1920  108.4970   39.0430 C.3       1 RFP         0.0387
     38 C38        97.6370   99.3870   47.8370 C.3       1 RFP        -0.0429
     39 C39        96.0160   98.4510   46.2780 C.3       1 RFP        -0.0106
     40 C40        94.7390   98.7260   45.4750 C.3       1 RFP         0.0792
     41 C41        93.9680  100.2110   47.2970 C.3       1 RFP         0.0792
     42 C42        95.2810   99.9120   48.0400 C.3       1 RFP        -0.0106
     43 C43        92.3710  101.2130   45.0090 C.2       1 RFP         0.0158
     44 N1         91.0510  100.4100   42.5130 N.am      1 RFP        -0.2425
     45 N2         93.6250  100.9410   44.9440 N.2       1 RFP        -0.2308
     46 N3         94.1560   99.9970   45.8660 N.pl3     1 RFP        -0.2498
     47 N4         96.3780   99.5940   47.1330 N.4       1 RFP         0.2360
     48 O1         89.8440  102.2150   40.9670 O.3       1 RFP        -0.3465
     49 O2         89.1950  104.6820   40.4300 O.3       1 RFP        -0.3316
     50 O3         90.6290  108.1390   43.3480 O.3       1 RFP        -0.2861
     51 O4         92.3840  106.4970   45.9410 O.2       1 RFP        -0.3567
     52 O5         92.8860  108.8270   44.0820 O.3       1 RFP        -0.3068
     53 O6         94.5400  107.3920   39.6370 O.3       1 RFP        -0.3732
     54 O7         96.9370  105.4490   40.9750 O.3       1 RFP        -0.2729
     55 O8         97.3100  105.9910   38.7890 O.2       1 RFP        -0.3707
     56 O9         96.2550  102.8000   38.6980 O.3       1 RFP        -0.3911
     57 O10        94.6290  100.5590   39.2900 O.3       1 RFP        -0.3885
     58 O11        89.9510   99.4410   44.1890 O.2       1 RFP        -0.3828
     59 O12        92.3820  103.9210   45.5930 O.3       1 RFP        -0.3381
     60 H1         90.9101  110.2395   45.0982 H         1 RFP         0.0260
     61 H2         91.6282  109.2692   46.4284 H         1 RFP         0.0260
     62 H3         89.9704  108.9018   45.8424 H         1 RFP         0.0260
     63 H4         89.3485  108.4185   41.3304 H         1 RFP         0.0341
     64 H5         88.1314  107.1892   40.8464 H         1 RFP         0.0341
     65 H6         89.6642  107.3476   39.9233 H         1 RFP         0.0341
     66 H7         91.8808   96.7410   41.3173 H         1 RFP         0.0536
     67 H8         93.1104   99.5398   42.1704 H         1 RFP         0.0435
     68 H9         94.0197   97.1730   40.4738 H         1 RFP         0.0714
     69 H10        96.0548   98.3717   39.9722 H         1 RFP         0.0522
     70 H11        94.7710  100.8067   41.3288 H         1 RFP         0.0629
     71 H12        97.1796  101.0079   41.3939 H         1 RFP         0.0350
     72 H13        97.5970  103.0274   40.2707 H         1 RFP         0.0600
     73 H14        94.5838  102.9976   40.8591 H         1 RFP         0.0352
     74 H15        95.3870  105.0266   39.5909 H         1 RFP         0.0658
     75 H16        94.8751  105.7051   42.5286 H         1 RFP         0.0368
     76 H17        95.7658  107.6476   41.2891 H         1 RFP         0.0691
     77 H18        93.1933  109.0291   41.3059 H         1 RFP         0.0359
     78 H19        94.3102  107.3351   43.6169 H         1 RFP         0.0848
     79 H20        88.7585   97.5797   43.1521 H         1 RFP         0.0384
     80 H21        89.8827   96.1811   43.0720 H         1 RFP         0.0384
     81 H22        89.1973   96.8701   41.5614 H         1 RFP         0.0384
     82 H23        96.3909   97.5562   42.3066 H         1 RFP         0.0262
     83 H24        95.7381   99.1056   42.9388 H         1 RFP         0.0262
     84 H25        97.2805   99.0898   42.0184 H         1 RFP         0.0262
     85 H26        97.7512   99.3353   39.6206 H         1 RFP         0.0234
     86 H27        98.6792  100.8661   39.4731 H         1 RFP         0.0234
     87 H28        97.2997  100.5422   38.3692 H         1 RFP         0.0234
     88 H29        95.9543  102.0734   42.7224 H         1 RFP         0.0234
     89 H30        95.2409  103.6648   43.1527 H         1 RFP         0.0234
     90 H31        96.9757  103.5509   42.7007 H         1 RFP         0.0234
     91 H32        93.0802  104.3088   41.5180 H         1 RFP         0.0235
     92 H33        92.9174  105.5041   40.1872 H         1 RFP         0.0235
     93 H34        92.5213  105.9784   41.8738 H         1 RFP         0.0235
     94 H35        99.6156  106.8524   39.6200 H         1 RFP         0.0483
     95 H36        99.5892  105.6212   40.9277 H         1 RFP         0.0483
     96 H37        98.8804  107.2473   41.2106 H         1 RFP         0.0483
     97 H38        94.9990  108.4978   37.9601 H         1 RFP         0.0525
     98 H39        96.2748  108.4237   39.2224 H         1 RFP         0.0525
     99 H40        94.8094  109.4291   39.4843 H         1 RFP         0.0525
    100 H41        98.4287   99.1510   47.1107 H         1 RFP         0.0778
    101 H42        97.5283   98.5522   48.5450 H         1 RFP         0.0778
    102 H43        97.9045  100.3015   48.3866 H         1 RFP         0.0778
    103 H44        96.8416   98.2535   45.5784 H         1 RFP         0.0835
    104 H45        95.8545   97.5676   46.9133 H         1 RFP         0.0835
    105 H46        94.0128   97.9216   45.6632 H         1 RFP         0.0583
    106 H47        94.9846   98.7549   44.4032 H         1 RFP         0.0583
    107 H48        93.6761  101.2564   47.4756 H         1 RFP         0.0583
    108 H49        93.1775   99.5413   47.6666 H         1 RFP         0.0583
    109 H50        95.1191   99.0556   48.7111 H         1 RFP         0.0835
    110 H51        95.5592  100.7954   48.6334 H         1 RFP         0.0835
    111 H52        91.7641  100.7020   45.7550 H         1 RFP         0.0733
    112 H53        91.4743  100.2267   41.6257 H         1 RFP         0.2212
    113 H54        96.5082  100.3904   46.5290 H         1 RFP         0.2032
    114 H55        90.2498  102.6031   40.2007 H         1 RFP         0.2412
    115 H56        89.8067  104.2405   39.8526 H         1 RFP         0.2505
    116 H57        95.3714  102.4883   38.5411 H         1 RFP         0.2098
    117 H58        94.4886  101.4890   39.1568 H         1 RFP         0.2101
    118 H59        93.0937  104.5133   45.3806 H         1 RFP         0.2478
@<TRIPOS>BOND
     1    2    1 ar 
     2    1    9 ar 
     3    1   48 1  
     4    3    2 ar 
     5    2   44 1  
     6    3    4 ar 
     7   43    3 1  
     8    4   10 ar 
     9    4   59 1  
    10    5    6 ar 
    11   10    5 ar 
    12    5   11 1  
    13    6    7 ar 
    14    6   50 1  
    15    8    7 ar 
    16    7   14 1  
    17    9    8 ar 
    18    8   49 1  
    19   10    9 ar 
    20   11   12 1  
    21   11   51 2  
    22   12   13 1  
    23   12   50 1  
    24   12   52 1  
    25   15   16 1  
    26   44   15 am 
    27   15   58 2  
    28   16   17 2  
    29   16   30 1  
    30   17   18 1  
    31   18   19 2  
    32   19   20 1  
    33   20   21 1  
    34   20   31 1  
    35   21   22 1  
    36   21   57 1  
    37   22   23 1  
    38   22   32 1  
    39   23   24 1  
    40   23   56 1  
    41   25   24 1  
    42   24   33 1  
    43   26   25 1  
    44   25   54 1  
    45   27   26 1  
    46   26   34 1  
    47   28   27 1  
    48   27   53 1  
    49   29   28 2  
    50   52   29 1  
    51   35   36 1  
    52   54   35 1  
    53   35   55 2  
    54   53   37 1  
    55   47   38 1  
    56   40   39 1  
    57   39   47 1  
    58   46   40 1  
    59   41   42 1  
    60   46   41 1  
    61   42   47 1  
    62   45   43 2  
    63   45   46 1  
    64   13   60 1  
    65   13   61 1  
    66   13   62 1  
    67   14   63 1  
    68   14   64 1  
    69   14   65 1  
    70   17   66 1  
    71   18   67 1  
    72   19   68 1  
    73   20   69 1  
    74   21   70 1  
    75   22   71 1  
    76   23   72 1  
    77   24   73 1  
    78   25   74 1  
    79   26   75 1  
    80   27   76 1  
    81   28   77 1  
    82   29   78 1  
    83   30   79 1  
    84   30   80 1  
    85   30   81 1  
    86   31   82 1  
    87   31   83 1  
    88   31   84 1  
    89   32   85 1  
    90   32   86 1  
    91   32   87 1  
    92   33   88 1  
    93   33   89 1  
    94   33   90 1  
    95   34   91 1  
    96   34   92 1  
    97   34   93 1  
    98   36   94 1  
    99   36   95 1  
   100   36   96 1  
   101   37   97 1  
   102   37   98 1  
   103   37   99 1  
   104   38  100 1  
   105   38  101 1  
   106   38  102 1  
   107   39  103 1  
   108   39  104 1  
   109   40  105 1  
   110   40  106 1  
   111   41  107 1  
   112   41  108 1  
   113   42  109 1  
   114   42  110 1  
   115   43  111 1  
   116   44  112 1  
   117   47  113 1  
   118   48  114 1  
   119   49  115 1  
   120   56  116 1  
   121   57  117 1  
   122   59  118 1  
@<TRIPOS>SUBSTRUCTURE
     1 RFP         1

