### 
### Created by X-TOOL on Wed Jan  1 15:39:37 2020
### 

@<TRIPOS>MOLECULE
6bee_ligand
  108   113     1     0     0
SMALL
GAST_HUCK


@<TRIPOS>ATOM
      1 N1         92.8650  100.7540   42.7610 N.am      1 RXM        -0.2562
      2 C2         92.7580  102.1340   43.0360 C.3       1 RXM         0.1704
      3 O11        90.8510  100.1760   43.4740 O.2       1 RXM        -0.3918
      4 C15        91.9490   99.7950   43.0270 C.2       1 RXM         0.1978
      5 C16        92.1490   98.3380   42.8450 C.2       1 RXM         0.0159
      6 C30        91.0180   97.3760   43.1820 C.3       1 RXM        -0.0281
      7 C17        93.2890   97.7030   42.3870 C.2       1 RXM        -0.0665
      8 C18        94.6210   98.1730   41.9620 C.2       1 RXM        -0.0754
      9 C19        94.9500   99.1040   41.0520 C.2       1 RXM        -0.0705
     10 C20        96.3960   99.4880   40.7360 C.3       1 RXM         0.0138
     11 C31        97.2800   99.3490   42.0120 C.3       1 RXM        -0.0483
     12 C21        96.4290  100.9580   40.2840 C.3       1 RXM         0.0738
     13 O10        95.8200  101.0460   38.9850 O.3       1 RXM        -0.3885
     14 C22        97.8230  101.6810   40.3560 C.3       1 RXM         0.0112
     15 C32        98.8300  101.1110   39.3330 C.3       1 RXM        -0.0575
     16 C23        97.7150  103.2420   40.2420 C.3       1 RXM         0.0656
     17 O9         97.6300  103.6710   38.8650 O.3       1 RXM        -0.3911
     18 C24        96.5760  103.9080   41.0320 C.3       1 RXM         0.0137
     19 C33        96.5510  103.5040   42.5100 C.3       1 RXM        -0.0573
     20 C25        96.5480  105.4560   40.9110 C.3       1 RXM         0.0986
     21 O7         97.5770  106.0100   41.8090 O.3       1 RXM        -0.2729
     22 C35        98.8250  106.3480   41.4090 C.2       1 RXM         0.2309
     23 O8         99.3040  106.0150   40.3350 O.2       1 RXM        -0.3707
     24 C36        99.6540  107.1690   42.3460 C.3       1 RXM         0.0372
     25 C26        95.2010  106.2280   41.0370 C.3       1 RXM         0.0179
     26 C34        94.1550  105.8070   39.9760 C.3       1 RXM        -0.0561
     27 C27        95.4540  107.7780   41.0130 C.3       1 RXM         0.0761
     28 O6         95.4090  108.3430   39.6920 O.3       1 RXM        -0.3732
     29 C37        96.7520  108.6230   39.2920 C.3       1 RXM         0.0387
     30 C28        94.5330  108.4810   42.0190 C.2       1 RXM        -0.0508
     31 C29        94.9100  108.8800   43.2530 C.2       1 RXM         0.0389
     32 O5         94.0680  109.5110   44.2130 O.3       1 RXM        -0.3009
     33 C12        92.9140  108.7330   44.6560 C.3       1 RXM         0.2673
     34 O3         91.8140  108.6330   43.7210 O.3       1 RXM        -0.2787
     35 C6         91.7050  107.3350   43.2950 C.ar      1 RXM         0.1086
     36 C13        92.3100  109.2300   45.9910 C.3       1 RXM         0.0037
     37 C11        93.4040  107.3120   44.9230 C.2       1 RXM         0.1999
     38 O4         94.2810  107.0400   45.7240 O.2       1 RXM        -0.3387
     39 C5         92.6300  106.4450   43.9750 C.ar      1 RXM         0.0567
     40 C10        92.6520  105.0370   43.6770 C.ar      1 RXM        -0.0163
     41 C9         91.7340  104.5120   42.6510 C.ar      1 RXM         0.0539
     42 C8         90.8220  105.4270   41.9820 C.ar      1 RXM         0.1038
     43 O2         89.9530  104.9900   41.0230 O.3       1 RXM        -0.3313
     44 C7         90.8200  106.8160   42.3110 C.ar      1 RXM         0.0212
     45 C14        89.8720  107.7780   41.6180 C.3       1 RXM        -0.0347
     46 C1         91.7820  103.0270   42.3340 C.2       1 RXM         0.1501
     47 O1         91.0280  102.5360   41.4870 O.2       1 RXM        -0.3961
     48 C4         93.6130  104.0950   44.3350 C.2       1 RXM         0.0168
     49 N3         94.5270  104.3360   45.2260 N.2       1 RXM        -0.3528
     50 C38        95.2620  103.1530   45.5750 C.2       1 RXM         0.1225
     51 N2         94.6690  102.0610   44.7660 N.pl3     1 RXM        -0.1915
     52 C3         93.6530  102.6410   43.9960 C.2       1 RXM         0.1322
     53 C39        96.3160  102.9340   46.4600 C.2       1 RXM        -0.0222
     54 C40        96.8360  101.6390   46.5730 C.2       1 RXM        -0.0457
     55 C41        95.2290  100.8330   44.9380 C.2       1 RXM         0.0825
     56 C42        96.2940  100.5900   45.8110 C.2       1 RXM        -0.0210
     57 C43        97.9840  101.3580   47.5190 C.3       1 RXM        -0.0306
     58 H1         93.7108  100.4520   42.3212 H         1 RXM         0.1896
     59 H2         92.0059  101.9349   43.8136 H         1 RXM         0.0971
     60 H3         91.3441   96.3438   42.9863 H         1 RXM         0.0383
     61 H4         90.1415   97.6079   42.5591 H         1 RXM         0.0383
     62 H5         90.7513   97.4812   44.2440 H         1 RXM         0.0383
     63 H6         93.1795   96.6212   42.3271 H         1 RXM         0.0537
     64 H7         95.4625   97.6938   42.4602 H         1 RXM         0.0435
     65 H8         94.1494   99.6093   40.5138 H         1 RXM         0.0715
     66 H9         96.7870   98.8385   39.9390 H         1 RXM         0.0522
     67 H10        97.2702   98.3031   42.3526 H         1 RXM         0.0262
     68 H11        96.8816   99.9971   42.8065 H         1 RXM         0.0262
     69 H12        98.3121   99.6486   41.7775 H         1 RXM         0.0262
     70 H13        95.7792  101.5083   40.9804 H         1 RXM         0.0629
     71 H14        94.9218  100.7410   39.0363 H         1 RXM         0.2101
     72 H15        98.2315  101.4677   41.3548 H         1 RXM         0.0350
     73 H16        99.7863  101.6472   39.4220 H         1 RXM         0.0234
     74 H17        98.4313  101.2387   38.3158 H         1 RXM         0.0234
     75 H18        98.9896  100.0411   39.5326 H         1 RXM         0.0234
     76 H19        98.6543  103.6396   40.6537 H         1 RXM         0.0600
     77 H20        96.8605  103.2867   38.4617 H         1 RXM         0.2098
     78 H21        95.6408  103.5394   40.5853 H         1 RXM         0.0352
     79 H22        95.7168  104.0129   43.0151 H         1 RXM         0.0234
     80 H23        97.4994  103.7943   42.9856 H         1 RXM         0.0234
     81 H24        96.4187  102.4149   42.5903 H         1 RXM         0.0234
     82 H25        96.8833  105.6640   39.8842 H         1 RXM         0.0658
     83 H26       100.6360  107.3653   41.8908 H         1 RXM         0.0483
     84 H27        99.7905  106.6217   43.2904 H         1 RXM         0.0483
     85 H28        99.1450  108.1235   42.5456 H         1 RXM         0.0483
     86 H29        94.7763  105.9788   42.0206 H         1 RXM         0.0368
     87 H30        93.2319  106.3875   40.1207 H         1 RXM         0.0235
     88 H31        93.9345  104.7347   40.0837 H         1 RXM         0.0235
     89 H32        94.5553  105.9998   38.9697 H         1 RXM         0.0235
     90 H33        96.4825  107.9330   41.3710 H         1 RXM         0.0691
     91 H34        96.7505  109.0578   38.2816 H         1 RXM         0.0525
     92 H35        97.3357  107.6907   39.2891 H         1 RXM         0.0525
     93 H36        97.2036  109.3361   39.9973 H         1 RXM         0.0525
     94 H37        93.5042  108.6714   41.7171 H         1 RXM         0.0359
     95 H38        95.9462  108.7043   43.5384 H         1 RXM         0.0849
     96 H39        93.1082  109.3242   46.7420 H         1 RXM         0.0275
     97 H40        91.5577  108.5093   46.3440 H         1 RXM         0.0275
     98 H41        91.8348  110.2099   45.8362 H         1 RXM         0.0275
     99 H42        89.3725  104.3376   41.3969 H         1 RXM         0.2502
    100 H43        90.0277  108.7934   42.0114 H         1 RXM         0.0339
    101 H44        88.8334  107.4677   41.8048 H         1 RXM         0.0339
    102 H45        90.0680  107.7701   40.5356 H         1 RXM         0.0339
    103 H46        96.7260  103.7520   47.0505 H         1 RXM         0.0462
    104 H47        94.8276   99.9971   44.3670 H         1 RXM         0.1204
    105 H48        96.7044   99.5853   45.9006 H         1 RXM         0.0527
    106 H49        98.2763  102.2886   48.0274 H         1 RXM         0.0406
    107 H50        98.8403  100.9663   46.9504 H         1 RXM         0.0406
    108 H51        97.6696  100.6150   48.2667 H         1 RXM         0.0406
@<TRIPOS>BOND
     1    1    2 1  
     2    1    4 am 
     3    2   46 1  
     4    2   52 1  
     5    4    3 2  
     6    4    5 1  
     7    5    6 1  
     8    5    7 2  
     9    7    8 1  
    10    8    9 2  
    11    9   10 1  
    12   10   11 1  
    13   10   12 1  
    14   12   13 1  
    15   12   14 1  
    16   14   15 1  
    17   14   16 1  
    18   16   17 1  
    19   16   18 1  
    20   18   19 1  
    21   18   20 1  
    22   20   21 1  
    23   20   25 1  
    24   21   22 1  
    25   22   23 2  
    26   22   24 1  
    27   25   26 1  
    28   25   27 1  
    29   27   28 1  
    30   27   30 1  
    31   28   29 1  
    32   30   31 2  
    33   31   32 1  
    34   32   33 1  
    35   33   34 1  
    36   33   36 1  
    37   33   37 1  
    38   34   35 1  
    39   35   39 ar 
    40   35   44 ar 
    41   37   38 2  
    42   37   39 1  
    43   39   40 ar 
    44   40   41 ar 
    45   40   48 1  
    46   41   42 ar 
    47   41   46 1  
    48   42   43 1  
    49   42   44 ar 
    50   44   45 1  
    51   46   47 2  
    52   48   49 1  
    53   48   52 2  
    54   49   50 2  
    55   50   51 1  
    56   50   53 1  
    57   51   52 1  
    58   51   55 1  
    59   53   54 2  
    60   54   56 1  
    61   54   57 1  
    62   55   56 2  
    63    1   58 1  
    64    2   59 1  
    65    6   60 1  
    66    6   61 1  
    67    6   62 1  
    68    7   63 1  
    69    8   64 1  
    70    9   65 1  
    71   10   66 1  
    72   11   67 1  
    73   11   68 1  
    74   11   69 1  
    75   12   70 1  
    76   13   71 1  
    77   14   72 1  
    78   15   73 1  
    79   15   74 1  
    80   15   75 1  
    81   16   76 1  
    82   17   77 1  
    83   18   78 1  
    84   19   79 1  
    85   19   80 1  
    86   19   81 1  
    87   20   82 1  
    88   24   83 1  
    89   24   84 1  
    90   24   85 1  
    91   25   86 1  
    92   26   87 1  
    93   26   88 1  
    94   26   89 1  
    95   27   90 1  
    96   29   91 1  
    97   29   92 1  
    98   29   93 1  
    99   30   94 1  
   100   31   95 1  
   101   36   96 1  
   102   36   97 1  
   103   36   98 1  
   104   43   99 1  
   105   45  100 1  
   106   45  101 1  
   107   45  102 1  
   108   53  103 1  
   109   55  104 1  
   110   56  105 1  
   111   57  106 1  
   112   57  107 1  
   113   57  108 1  
@<TRIPOS>SUBSTRUCTURE
     1 RXM         1

