### 
### Created by X-TOOL on Wed Jan  1 15:39:37 2020
### 

@<TRIPOS>MOLECULE
6bef_ligand
  101   104     1     0     0
SMALL
GAST_HUCK


@<TRIPOS>ATOM
      1 C1         91.4710  103.0030   42.1970 C.ar      1 3YI         0.1089
      2 N1         92.1160  100.7360   42.4500 N.am      1 3YI        -0.2409
      3 O1         90.7710  102.5480   41.0770 O.3       1 3YI        -0.3458
      4 C2         92.1630  102.0760   42.9480 C.ar      1 3YI         0.1005
      5 O2         90.0460  104.9470   40.5800 O.3       1 3YI        -0.3314
      6 C3         92.8900  102.4770   44.0780 C.ar      1 3YI         0.0691
      7 O3         91.6550  108.4290   43.3210 O.3       1 3YI        -0.2888
      8 C4         92.8910  103.8540   44.4180 C.ar      1 3YI         0.0962
      9 O4         93.4560  106.7870   45.8290 O.2       1 3YI        -0.3547
     10 C5         92.1860  106.2680   43.8830 C.ar      1 3YI         0.0478
     11 O5         93.8750  109.2330   44.1430 O.3       1 3YI        -0.3507
     12 C6         91.5240  107.1120   43.0090 C.ar      1 3YI         0.1034
     13 O6         94.9550  107.8590   39.6090 O.3       1 3YI        -0.3793
     14 C7         90.8020  106.6700   41.9170 C.ar      1 3YI         0.0208
     15 O7         97.6150  106.0050   40.6870 O.3       1 3YI        -0.2730
     16 C8         90.7610  105.3310   41.6680 C.ar      1 3YI         0.1012
     17 O8         97.9420  106.1950   38.4440 O.2       1 3YI        -0.3707
     18 C9         91.4620  104.3870   42.4940 C.ar      1 3YI         0.0324
     19 O9         96.9260  103.3410   38.4860 O.3       1 3YI        -0.3911
     20 C10        92.1910  104.8440   43.6310 C.ar      1 3YI         0.0068
     21 O10        95.3990  101.0520   39.1460 O.3       1 3YI        -0.3885
     22 C11        92.7770  107.1030   44.8790 C.2       1 3YI         0.1800
     23 O11        91.1460   99.7800   44.2240 O.2       1 3YI        -0.3826
     24 C12        92.5670  108.5450   44.4880 C.3       1 3YI         0.2432
     25 O12        93.6140  104.2220   45.5150 O.3       1 3YI        -0.3348
     26 C13        91.8480  109.3880   45.5300 C.3       1 3YI        -0.0043
     27 O13        94.8690  101.2880   44.8540 O.2       1 3YI        -0.3787
     28 C14        90.0870  107.6670   41.0290 C.3       1 3YI        -0.0341
     29 C15        91.6310   99.6960   43.1270 C.2       1 3YI         0.2181
     30 C16        91.7600   98.4010   42.4250 C.2       1 3YI         0.0213
     31 C17        92.8650   98.1160   41.6890 C.2       1 3YI        -0.0662
     32 C18        94.0160   98.9640   41.5630 C.2       1 3YI        -0.0756
     33 C19        95.0530   98.5980   40.7910 C.2       1 3YI        -0.0706
     34 C20        96.4090   99.3360   40.5930 C.3       1 3YI         0.0137
     35 C21        96.2120  100.8550   40.2990 C.3       1 3YI         0.0738
     36 C22        97.5360  101.6660   40.1330 C.3       1 3YI         0.0112
     37 C23        97.3520  103.1650   39.8400 C.3       1 3YI         0.0656
     38 C24        96.4020  103.9140   40.7980 C.3       1 3YI         0.0136
     39 C25        96.3210  105.4150   40.4510 C.3       1 3YI         0.0974
     40 C26        95.3470  106.2210   41.3270 C.3       1 3YI         0.0136
     41 C27        95.3360  107.7490   40.9950 C.3       1 3YI         0.0656
     42 C28        94.4040  108.5470   41.8970 C.3       1 3YI        -0.0030
     43 C29        94.8010  108.4860   43.3430 C.3       1 3YI         0.0501
     44 C30        90.5890   97.4670   42.5570 C.3       1 3YI        -0.0276
     45 C31        97.2920   99.1530   41.8330 C.3       1 3YI        -0.0483
     46 C32        98.4730  101.0180   39.0710 C.3       1 3YI        -0.0575
     47 C33        96.8740  103.6980   42.2520 C.3       1 3YI        -0.0573
     48 C34        93.9550  105.6390   41.1710 C.3       1 3YI        -0.0573
     49 C35        98.3510  106.3620   39.6100 C.2       1 3YI         0.2309
     50 C36        99.6770  106.9650   39.9990 C.3       1 3YI         0.0372
     51 C37        95.8790  108.6020   38.8400 C.3       1 3YI         0.0368
     52 C38        93.6430  101.5140   44.8820 C.2       1 3YI         0.1086
     53 H1         92.4716  100.5682   41.5305 H         1 3YI         0.2216
     54 H2         90.3423  103.2822   40.6531 H         1 3YI         0.2413
     55 H3         90.0812  104.0013   40.4969 H         1 3YI         0.2505
     56 H4         96.1007  102.8895   38.3536 H         1 3YI         0.2098
     57 H5         95.2945  101.9831   38.9889 H         1 3YI         0.2101
     58 H6         93.0406  104.6444   46.1437 H         1 3YI         0.2492
     59 H7         90.8949  108.9077   45.7961 H         1 3YI         0.0258
     60 H8         91.6518  110.3895   45.1196 H         1 3YI         0.0258
     61 H9         92.4772  109.4764   46.4279 H         1 3YI         0.0258
     62 H10        90.2530  108.6845   41.4124 H         1 3YI         0.0343
     63 H11        89.0091  107.4479   41.0255 H         1 3YI         0.0343
     64 H12        90.4796  107.5928   40.0041 H         1 3YI         0.0343
     65 H13        92.8789   97.1689   41.1517 H         1 3YI         0.0536
     66 H14        94.0492   99.9121   42.0976 H         1 3YI         0.0435
     67 H15        94.9294   97.6699   40.2349 H         1 3YI         0.0714
     68 H16        96.9208   98.8845   39.7303 H         1 3YI         0.0522
     69 H17        95.6795  101.2782   41.1635 H         1 3YI         0.0629
     70 H18        98.0548  101.6026   41.1009 H         1 3YI         0.0350
     71 H19        98.3416  103.6336   39.9457 H         1 3YI         0.0600
     72 H20        95.3941  103.4862   40.6926 H         1 3YI         0.0352
     73 H21        96.0335  105.5191   39.3944 H         1 3YI         0.0656
     74 H22        95.6594  106.1084   42.3757 H         1 3YI         0.0352
     75 H23        96.3529  108.1485   41.1230 H         1 3YI         0.0600
     76 H24        93.3857  108.1438   41.7949 H         1 3YI         0.0312
     77 H25        94.4164  109.5982   41.5732 H         1 3YI         0.0312
     78 H26        94.8042  107.4373   43.6749 H         1 3YI         0.0558
     79 H27        95.8086  108.9111   43.4613 H         1 3YI         0.0558
     80 H28        89.8254   97.9253   43.2026 H         1 3YI         0.0384
     81 H29        90.9246   96.5188   43.0024 H         1 3YI         0.0384
     82 H30        90.1603   97.2736   41.5626 H         1 3YI         0.0384
     83 H31        97.4255   98.0796   42.0328 H         1 3YI         0.0262
     84 H32        96.8108   99.6301   42.6995 H         1 3YI         0.0262
     85 H33        98.2731   99.6179   41.6563 H         1 3YI         0.0262
     86 H34        98.5946   99.9477   39.2937 H         1 3YI         0.0234
     87 H35        99.4554  101.5121   39.0985 H         1 3YI         0.0234
     88 H36        98.0308  101.1364   38.0708 H         1 3YI         0.0234
     89 H37        96.9206  102.6200   42.4660 H         1 3YI         0.0234
     90 H38        96.1656  104.1786   42.9427 H         1 3YI         0.0234
     91 H39        97.8721  104.1413   42.3832 H         1 3YI         0.0234
     92 H40        93.9781  104.5650   41.4075 H         1 3YI         0.0234
     93 H41        93.6130  105.7790   40.1350 H         1 3YI         0.0234
     94 H42        93.2645  106.1508   41.8575 H         1 3YI         0.0234
     95 H43       100.2360  107.2377   39.0917 H         1 3YI         0.0483
     96 H44       100.2564  106.2327   40.5804 H         1 3YI         0.0483
     97 H45        99.5061  107.8646   40.6086 H         1 3YI         0.0483
     98 H46        95.5334  108.6494   37.7968 H         1 3YI         0.0524
     99 H47        96.8640  108.1139   38.8780 H         1 3YI         0.0524
    100 H48        95.9588  109.6210   39.2465 H         1 3YI         0.0524
    101 H49        93.0631  100.9237   45.5899 H         1 3YI         0.1273
@<TRIPOS>BOND
     1    1    3 1  
     2    4    1 ar 
     3    1   18 ar 
     4    2    4 1  
     5   29    2 am 
     6    4    6 ar 
     7   16    5 1  
     8    6    8 ar 
     9    6   52 1  
    10   12    7 1  
    11   24    7 1  
    12    8   20 ar 
    13    8   25 1  
    14   22    9 2  
    15   10   12 ar 
    16   20   10 ar 
    17   10   22 1  
    18   24   11 1  
    19   11   43 1  
    20   14   12 ar 
    21   41   13 1  
    22   13   51 1  
    23   16   14 ar 
    24   14   28 1  
    25   39   15 1  
    26   15   49 1  
    27   18   16 ar 
    28   49   17 2  
    29   18   20 ar 
    30   37   19 1  
    31   35   21 1  
    32   22   24 1  
    33   29   23 2  
    34   24   26 1  
    35   52   27 2  
    36   30   29 1  
    37   31   30 2  
    38   30   44 1  
    39   32   31 1  
    40   33   32 2  
    41   34   33 1  
    42   35   34 1  
    43   34   45 1  
    44   36   35 1  
    45   37   36 1  
    46   36   46 1  
    47   38   37 1  
    48   39   38 1  
    49   38   47 1  
    50   40   39 1  
    51   40   41 1  
    52   40   48 1  
    53   41   42 1  
    54   42   43 1  
    55   49   50 1  
    56    2   53 1  
    57    3   54 1  
    58    5   55 1  
    59   19   56 1  
    60   21   57 1  
    61   25   58 1  
    62   26   59 1  
    63   26   60 1  
    64   26   61 1  
    65   28   62 1  
    66   28   63 1  
    67   28   64 1  
    68   31   65 1  
    69   32   66 1  
    70   33   67 1  
    71   34   68 1  
    72   35   69 1  
    73   36   70 1  
    74   37   71 1  
    75   38   72 1  
    76   39   73 1  
    77   40   74 1  
    78   41   75 1  
    79   42   76 1  
    80   42   77 1  
    81   43   78 1  
    82   43   79 1  
    83   44   80 1  
    84   44   81 1  
    85   44   82 1  
    86   45   83 1  
    87   45   84 1  
    88   45   85 1  
    89   46   86 1  
    90   46   87 1  
    91   46   88 1  
    92   47   89 1  
    93   47   90 1  
    94   47   91 1  
    95   48   92 1  
    96   48   93 1  
    97   48   94 1  
    98   50   95 1  
    99   50   96 1  
   100   50   97 1  
   101   51   98 1  
   102   51   99 1  
   103   51  100 1  
   104   52  101 1  
@<TRIPOS>SUBSTRUCTURE
     1 3YI         1

