### 
### Created by X-TOOL on Wed Jan  1 15:39:37 2020
### 

@<TRIPOS>MOLECULE
6beh_ligand
  132   137     1     0     0
SMALL
GAST_HUCK


@<TRIPOS>ATOM
      1 C1         91.5620  102.8950   41.7670 C.ar      1 RPT         0.1029
      2 C2         92.4490  101.9970   42.2590 C.ar      1 RPT         0.0922
      3 C3         93.3800  102.3630   43.2490 C.ar      1 RPT         0.0440
      4 C4         93.3470  103.6710   43.7580 C.ar      1 RPT         0.0794
      5 C5         92.3720  105.9560   43.6910 C.ar      1 RPT         0.0424
      6 C6         91.4980  106.8330   43.0680 C.ar      1 RPT         0.1001
      7 C7         90.6090  106.5050   42.0440 C.ar      1 RPT         0.0174
      8 C8         90.6480  105.1760   41.6720 C.ar      1 RPT         0.0973
      9 C9         91.5290  104.2100   42.2350 C.ar      1 RPT         0.0254
     10 C10        92.4190  104.6030   43.2570 C.ar      1 RPT        -0.0068
     11 C11        93.0420  106.6660   44.6870 C.2       1 RPT         0.1808
     12 C12        92.5620  108.1060   44.6240 C.3       1 RPT         0.2588
     13 C13        91.9810  108.6130   45.9320 C.3       1 RPT        -0.0004
     14 C14        89.7110  107.5450   41.4210 C.3       1 RPT        -0.0358
     15 C15        91.9600   99.6410   42.6020 C.2       1 RPT         0.2149
     16 C16        92.2380   98.2490   42.1520 C.2       1 RPT         0.0205
     17 C17        93.4220   97.9040   41.6050 C.2       1 RPT        -0.0663
     18 C18        94.5780   98.7450   41.4240 C.2       1 RPT        -0.0756
     19 C19        95.5800   98.4770   40.5750 C.2       1 RPT        -0.0707
     20 C20        96.8370   99.2800   40.3620 C.3       1 RPT         0.0137
     21 C21        96.5850  100.7730   40.0840 C.3       1 RPT         0.0738
     22 C22        97.8740  101.5660   39.7770 C.3       1 RPT         0.0112
     23 C23        97.6520  103.0760   39.7060 C.3       1 RPT         0.0656
     24 C24        96.5660  103.6340   40.6320 C.3       1 RPT         0.0137
     25 C25        96.4540  105.1390   40.4410 C.3       1 RPT         0.0986
     26 C26        95.2730  105.7870   41.2140 C.3       1 RPT         0.0179
     27 C27        95.3660  107.3460   41.1700 C.3       1 RPT         0.0761
     28 C28        94.3160  107.9930   42.0540 C.2       1 RPT        -0.0509
     29 C29        94.5480  108.4140   43.3030 C.2       1 RPT         0.0372
     30 C30        91.0850   97.3010   42.3250 C.3       1 RPT        -0.0277
     31 C31        97.7760   99.0890   41.5530 C.3       1 RPT        -0.0483
     32 C32        98.5620  101.0430   38.5170 C.3       1 RPT        -0.0575
     33 C33        96.8350  103.2840   42.0940 C.3       1 RPT        -0.0573
     34 C34        93.9120  105.2810   40.7300 C.3       1 RPT        -0.0561
     35 C35        98.7280  105.9430   40.1550 C.2       1 RPT         0.2309
     36 C36        99.8830  106.5660   40.9000 C.3       1 RPT         0.0372
     37 C37        96.1630  108.7690   39.4290 C.3       1 RPT         0.0387
     38 C38        94.5670   98.4710   48.9670 C.3       1 RPT        -0.0205
     39 C39        95.3340  100.6370   48.0540 C.3       1 RPT         0.0112
     40 C40        95.1130  101.5520   46.8790 C.3       1 RPT         0.0364
     41 C41        95.2770   99.5120   45.4000 C.3       1 RPT         0.0364
     42 C42        95.4600   98.6970   46.6630 C.3       1 RPT         0.0112
     43 C43        94.3960  101.4060   43.6990 C.3       1 RPT         0.0196
     44 C44        94.7680   99.1660   50.3130 C.3       1 RPT        -0.0096
     45 C45        95.4230   97.2130   49.0430 C.3       1 RPT        -0.0096
     46 C46        94.9360   98.0280   51.3030 C.3       1 RPT        -0.0478
     47 C47        95.2830   96.7710   50.4860 C.3       1 RPT        -0.0478
     48 N1         92.4160  100.6530   41.8040 N.am      1 RPT        -0.2464
     49 N2         95.3020  101.7380   44.5330 N.4       1 RPT         0.3274
     50 N3         95.5730  100.9280   45.6350 N.4       1 RPT         0.3340
     51 N4         94.7300   99.3260   47.7750 N.4       1 RPT         0.2449
     52 O1         90.6990  102.5130   40.8030 O.3       1 RPT        -0.3467
     53 O2         89.7820  104.7820   40.7180 O.3       1 RPT        -0.3319
     54 O3         91.5740  108.1050   43.5700 O.3       1 RPT        -0.2866
     55 O4         93.8600  106.3200   45.5130 O.2       1 RPT        -0.3575
     56 O5         93.6150  108.9750   44.1610 O.3       1 RPT        -0.3067
     57 O6         95.2550  107.7430   39.7980 O.3       1 RPT        -0.3732
     58 O7         97.6680  105.7230   40.9770 O.3       1 RPT        -0.2729
     59 O8         98.6980  105.6680   38.9840 O.2       1 RPT        -0.3707
     60 O9         97.3870  103.4660   38.3630 O.3       1 RPT        -0.3911
     61 O10        95.6620  100.9160   39.0110 O.3       1 RPT        -0.3885
     62 O11        91.3540   99.8420   43.6500 O.2       1 RPT        -0.3842
     63 O12        94.1960  104.0570   44.7250 O.3       1 RPT        -0.3476
     64 H1         91.6570  109.6570   45.8090 H         1 RPT         0.0261
     65 H2         92.7469  108.5572   46.7195 H         1 RPT         0.0261
     66 H3         91.1182  107.9922   46.2150 H         1 RPT         0.0261
     67 H4         89.8844  108.5170   41.9059 H         1 RPT         0.0336
     68 H5         88.6599  107.2503   41.5561 H         1 RPT         0.0336
     69 H6         89.9340  107.6261   40.3469 H         1 RPT         0.0336
     70 H7         93.5144   96.8746   41.2618 H         1 RPT         0.0536
     71 H8         94.6417   99.6573   42.0152 H         1 RPT         0.0435
     72 H9         95.4735   97.5772   39.9709 H         1 RPT         0.0714
     73 H10        97.3374   98.8700   39.4724 H         1 RPT         0.0522
     74 H11        96.1340  101.2082   40.9880 H         1 RPT         0.0629
     75 H12        98.5615  101.3878   40.6169 H         1 RPT         0.0350
     76 H13        98.5980  103.5468   40.0116 H         1 RPT         0.0600
     77 H14        95.6062  103.1782   40.3474 H         1 RPT         0.0352
     78 H15        96.3538  105.3625   39.3686 H         1 RPT         0.0658
     79 H16        95.3707  105.4848   42.2672 H         1 RPT         0.0368
     80 H17        96.3540  107.6525   41.5441 H         1 RPT         0.0691
     81 H18        93.3139  108.1225   41.6479 H         1 RPT         0.0359
     82 H19        95.5639  108.3058   43.6802 H         1 RPT         0.0848
     83 H20        90.2423   97.8303   42.7938 H         1 RPT         0.0384
     84 H21        91.3932   96.4619   42.9660 H         1 RPT         0.0384
     85 H22        90.7754   96.9169   41.3419 H         1 RPT         0.0384
     86 H23        97.9356   98.0144   41.7254 H         1 RPT         0.0262
     87 H24        97.3276   99.5415   42.4497 H         1 RPT         0.0262
     88 H25        98.7405   99.5735   41.3409 H         1 RPT         0.0262
     89 H26        98.7057   99.9558   38.6022 H         1 RPT         0.0234
     90 H27        99.5396  101.5341   38.4023 H         1 RPT         0.0234
     91 H28        97.9361  101.2625   37.6395 H         1 RPT         0.0234
     92 H29        96.9110  102.1919   42.2016 H         1 RPT         0.0234
     93 H30        96.0099  103.6574   42.7183 H         1 RPT         0.0234
     94 H31        97.7780  103.7505   42.4152 H         1 RPT         0.0234
     95 H32        93.8912  104.1822   40.7778 H         1 RPT         0.0235
     96 H33        93.7479  105.6060   39.6920 H         1 RPT         0.0235
     97 H34        93.1188  105.6910   41.3724 H         1 RPT         0.0235
     98 H35       100.7210  106.7297   40.2065 H         1 RPT         0.0483
     99 H36       100.2030  105.8932   41.7093 H         1 RPT         0.0483
    100 H37        99.5671  107.5292   41.3271 H         1 RPT         0.0483
    101 H38        96.0204  109.0205   38.3677 H         1 RPT         0.0525
    102 H39        97.1942  108.4207   39.5879 H         1 RPT         0.0525
    103 H40        95.9783  109.6612   40.0452 H         1 RPT         0.0525
    104 H41        93.5191   98.1386   48.9299 H         1 RPT         0.0851
    105 H42        94.8678  101.0721   48.9503 H         1 RPT         0.0868
    106 H43        96.4136  100.5142   48.2251 H         1 RPT         0.0868
    107 H44        95.6705  102.4864   47.0405 H         1 RPT         0.0883
    108 H45        94.0394  101.7756   46.7939 H         1 RPT         0.0883
    109 H46        94.2360   99.4151   45.0582 H         1 RPT         0.0883
    110 H47        95.9551   99.1278   44.6237 H         1 RPT         0.0883
    111 H48        96.5302   98.6456   46.9121 H         1 RPT         0.0868
    112 H49        95.0720   97.6806   46.5007 H         1 RPT         0.0868
    113 H50        94.9184  101.0602   42.7949 H         1 RPT         0.0941
    114 H51        93.8508  100.5648   44.1519 H         1 RPT         0.0941
    115 H52        93.8914   99.7790   50.5695 H         1 RPT         0.0320
    116 H53        95.6662   99.8007   50.2933 H         1 RPT         0.0320
    117 H54        96.4724   97.4372   48.8014 H         1 RPT         0.0320
    118 H55        95.0460   96.4398   48.3575 H         1 RPT         0.0320
    119 H56        94.0008   97.8704   51.8602 H         1 RPT         0.0267
    120 H57        95.7488   98.2570   52.0079 H         1 RPT         0.0267
    121 H58        96.2285   96.3364   50.8426 H         1 RPT         0.0267
    122 H59        94.4792   96.0257   50.5777 H         1 RPT         0.0267
    123 H60        92.7332  100.4417   40.8795 H         1 RPT         0.2175
    124 H61        95.0455  102.6432   44.8947 H         1 RPT         0.2344
    125 H62        96.1614  101.8156   44.0119 H         1 RPT         0.2344
    126 H63        96.5772  100.9416   45.7211 H         1 RPT         0.2357
    127 H64        93.7957   99.5035   47.4410 H         1 RPT         0.2040
    128 H65        90.8384  103.0426   40.0267 H         1 RPT         0.2415
    129 H66        90.2650  104.4344   39.9775 H         1 RPT         0.2507
    130 H67        97.3807  104.4142   38.3052 H         1 RPT         0.2098
    131 H68        95.4467  101.8346   38.9003 H         1 RPT         0.2101
    132 H69        93.7012  104.3362   45.4864 H         1 RPT         0.2417
@<TRIPOS>BOND
     1    2    1 ar 
     2    1    9 ar 
     3    1   52 1  
     4    3    2 ar 
     5    2   48 1  
     6    3    4 ar 
     7   43    3 1  
     8    4   10 ar 
     9    4   63 1  
    10    5    6 ar 
    11   10    5 ar 
    12    5   11 1  
    13    6    7 ar 
    14    6   54 1  
    15    8    7 ar 
    16    7   14 1  
    17    9    8 ar 
    18    8   53 1  
    19   10    9 ar 
    20   11   12 1  
    21   11   55 2  
    22   12   13 1  
    23   12   54 1  
    24   12   56 1  
    25   15   16 1  
    26   48   15 am 
    27   15   62 2  
    28   16   17 2  
    29   16   30 1  
    30   17   18 1  
    31   18   19 2  
    32   19   20 1  
    33   20   21 1  
    34   20   31 1  
    35   21   22 1  
    36   21   61 1  
    37   22   23 1  
    38   22   32 1  
    39   23   24 1  
    40   23   60 1  
    41   25   24 1  
    42   24   33 1  
    43   26   25 1  
    44   25   58 1  
    45   27   26 1  
    46   26   34 1  
    47   28   27 1  
    48   27   57 1  
    49   29   28 2  
    50   56   29 1  
    51   35   36 1  
    52   58   35 1  
    53   35   59 2  
    54   57   37 1  
    55   38   44 1  
    56   38   45 1  
    57   51   38 1  
    58   40   39 1  
    59   39   51 1  
    60   50   40 1  
    61   41   42 1  
    62   50   41 1  
    63   42   51 1  
    64   49   43 1  
    65   44   46 1  
    66   45   47 1  
    67   47   46 1  
    68   49   50 1  
    69   13   64 1  
    70   13   65 1  
    71   13   66 1  
    72   14   67 1  
    73   14   68 1  
    74   14   69 1  
    75   17   70 1  
    76   18   71 1  
    77   19   72 1  
    78   20   73 1  
    79   21   74 1  
    80   22   75 1  
    81   23   76 1  
    82   24   77 1  
    83   25   78 1  
    84   26   79 1  
    85   27   80 1  
    86   28   81 1  
    87   29   82 1  
    88   30   83 1  
    89   30   84 1  
    90   30   85 1  
    91   31   86 1  
    92   31   87 1  
    93   31   88 1  
    94   32   89 1  
    95   32   90 1  
    96   32   91 1  
    97   33   92 1  
    98   33   93 1  
    99   33   94 1  
   100   34   95 1  
   101   34   96 1  
   102   34   97 1  
   103   36   98 1  
   104   36   99 1  
   105   36  100 1  
   106   37  101 1  
   107   37  102 1  
   108   37  103 1  
   109   38  104 1  
   110   39  105 1  
   111   39  106 1  
   112   40  107 1  
   113   40  108 1  
   114   41  109 1  
   115   41  110 1  
   116   42  111 1  
   117   42  112 1  
   118   43  113 1  
   119   43  114 1  
   120   44  115 1  
   121   44  116 1  
   122   45  117 1  
   123   45  118 1  
   124   46  119 1  
   125   46  120 1  
   126   47  121 1  
   127   47  122 1  
   128   48  123 1  
   129   49  124 1  
   130   49  125 1  
   131   50  126 1  
   132   51  127 1  
   133   52  128 1  
   134   53  129 1  
   135   60  130 1  
   136   61  131 1  
   137   63  132 1  
@<TRIPOS>SUBSTRUCTURE
     1 RPT         1

