### 
### Created by X-TOOL on Mon Sep 10 21:13:33 2018
### 

@<TRIPOS>MOLECULE
6bfa_ligand
   50    54     1     0     0
SMALL
GAST_HUCK


@<TRIPOS>ATOM
      1 O          -2.8580  -18.9850  -29.6940 O.3       1 UW5        -0.3863
      2 C4         -4.2370  -19.3940  -29.7810 C.3       1 UW5         0.0888
      3 C5         -5.0980  -18.4620  -28.9360 C.3       1 UW5        -0.0337
      4 C6         -4.5780  -19.3220  -31.1720 C.3       1 UW5        -0.0337
      5 C3         -4.4110  -20.8680  -29.2770 C.3       1 UW5         0.0985
      6 N1         -3.4790  -21.8650  -29.7930 N.pl3     1 UW5        -0.1808
      7 C2         -3.7100  -23.1860  -29.9530 C.ar      1 UW5         0.1633
      8 N3         -4.8670  -23.8150  -29.7090 N.ar      1 UW5        -0.2675
      9 C21        -4.7670  -25.1240  -29.9330 C.ar      1 UW5         0.0565
     10 N4         -3.7020  -25.8290  -30.3230 N.ar      1 UW5        -0.2656
     11 C          -2.5430  -25.1750  -30.5640 C.ar      1 UW5         0.1274
     12 N          -1.4730  -25.8960  -30.9140 N.pl3     1 UW5        -0.3126
     13 N2         -2.1670  -21.5470  -30.1240 N.2       1 UW5        -0.1942
     14 C7         -1.5960  -22.6900  -30.4660 C.2       1 UW5         0.0707
     15 C1         -2.5070  -23.7700  -30.3880 C.ar      1 UW5         0.0869
     16 C8         -0.1530  -22.6870  -30.8280 C.ar      1 UW5        -0.0104
     17 C20         0.3230  -23.5010  -31.8270 C.ar      1 UW5        -0.0505
     18 C19         1.6750  -23.4380  -32.2430 C.ar      1 UW5        -0.0244
     19 C11         2.5390  -22.5270  -31.6000 C.ar      1 UW5        -0.0285
     20 C10         2.0170  -21.7120  -30.5740 C.ar      1 UW5        -0.0594
     21 C9          0.7110  -21.7930  -30.2060 C.ar      1 UW5        -0.0571
     22 C18         2.2030  -24.2690  -33.2580 C.ar      1 UW5        -0.0563
     23 C17         3.5160  -24.2060  -33.5970 C.ar      1 UW5        -0.0273
     24 C13         4.3640  -23.3330  -32.9350 C.ar      1 UW5         0.0937
     25 C12         3.8980  -22.4850  -31.9740 C.ar      1 UW5        -0.0288
     26 O1          5.7350  -23.3150  -33.0080 O.3       1 UW5        -0.3058
     27 C14         6.3320  -24.1310  -31.9550 C.3       1 UW5         0.1182
     28 C16         6.0740  -23.6410  -30.5660 C.2       1 UW5        -0.0479
     29 C15         7.3820  -23.4510  -31.1950 C.2       1 UW5        -0.0479
     30 H1         -2.3226  -19.5665  -30.2209 H         1 UW5         0.2103
     31 H2         -6.1506  -18.7744  -29.0026 H         1 UW5         0.0258
     32 H3         -4.9971  -17.4317  -29.3080 H         1 UW5         0.0258
     33 H4         -4.7677  -18.5074  -27.8878 H         1 UW5         0.0258
     34 H5         -5.6268  -19.6242  -31.3085 H         1 UW5         0.0258
     35 H6         -3.9246  -19.9963  -31.7451 H         1 UW5         0.0258
     36 H7         -4.4442  -18.2903  -31.5294 H         1 UW5         0.0258
     37 H8         -5.4263  -21.1927  -29.5487 H         1 UW5         0.0653
     38 H9         -4.3103  -20.8570  -28.1817 H         1 UW5         0.0653
     39 H10        -5.6748  -25.6957  -29.7774 H         1 UW5         0.1030
     40 H11        -0.5758  -25.4271  -31.1042 H         1 UW5         0.1842
     41 H12        -1.5458  -26.9203  -30.9935 H         1 UW5         0.1842
     42 H13        -0.3487  -24.2044  -32.3056 H         1 UW5         0.0618
     43 H14         2.6692  -21.0082  -30.0697 H         1 UW5         0.0592
     44 H15         0.3378  -21.1512  -29.4161 H         1 UW5         0.0611
     45 H16         1.5507  -24.9655  -33.7722 H         1 UW5         0.0618
     46 H17         3.9017  -24.8400  -34.3872 H         1 UW5         0.0590
     47 H18         4.5707  -21.7803  -31.4987 H         1 UW5         0.0499
     48 H19         6.3748  -25.1995  -32.2126 H         1 UW5         0.0741
     49 H20         5.4061  -23.5170  -29.7149 H         1 UW5         0.0603
     50 H21         8.4023  -23.0746  -31.1383 H         1 UW5         0.0603
@<TRIPOS>BOND
     1    1    2 1  
     2    2    3 1  
     3    2    4 1  
     4    2    5 1  
     5    5    6 1  
     6    6    7 1  
     7    6   13 1  
     8    7    8 ar 
     9    7   15 ar 
    10    8    9 ar 
    11    9   10 ar 
    12   10   11 ar 
    13   11   12 1  
    14   11   15 ar 
    15   13   14 2  
    16   14   15 1  
    17   14   16 1  
    18   16   17 ar 
    19   16   21 ar 
    20   17   18 ar 
    21   18   19 ar 
    22   18   22 ar 
    23   19   20 ar 
    24   19   25 ar 
    25   20   21 ar 
    26   22   23 ar 
    27   23   24 ar 
    28   24   25 ar 
    29   24   26 1  
    30   26   27 1  
    31   27   28 1  
    32   27   29 1  
    33   28   29 2  
    34    1   30 1  
    35    3   31 1  
    36    3   32 1  
    37    3   33 1  
    38    4   34 1  
    39    4   35 1  
    40    4   36 1  
    41    5   37 1  
    42    5   38 1  
    43    9   39 1  
    44   12   40 1  
    45   12   41 1  
    46   17   42 1  
    47   20   43 1  
    48   21   44 1  
    49   22   45 1  
    50   23   46 1  
    51   25   47 1  
    52   27   48 1  
    53   28   49 1  
    54   29   50 1  
@<TRIPOS>SUBSTRUCTURE
     1 UW5         1

