### 
### Created by X-TOOL on Mon Sep 10 21:13:31 2018
### 

@<TRIPOS>MOLECULE
6bfd_ligand
   68    70     1     0     0
SMALL
GAST_HUCK


@<TRIPOS>ATOM
      1 C6         27.2020   58.8350   90.7800 C.ar      1 DJS         0.1505
      2 N1         24.0170   55.9420   89.3820 N.am      1 DJS        -0.2769
      3 C5         25.8430   58.6360   90.5820 C.ar      1 DJS        -0.0035
      4 C4         25.5440   57.7200   89.5760 C.ar      1 DJS         0.0594
      5 C2         24.1440   57.3110   89.3230 C.2       1 DJS         0.2121
      6 O3         23.2170   58.0960   89.1870 O.2       1 DJS        -0.3796
      7 N7         28.2160   58.2100   90.1740 N.ar      1 DJS        -0.2547
      8 C8         27.8980   57.3150   89.2270 C.ar      1 DJS         0.1186
      9 C9         26.5660   57.0780   88.8930 C.ar      1 DJS         0.0034
     10 N10        28.9900   56.6620   88.6380 N.pl3     1 DJS        -0.3046
     11 C11        28.7310   55.5570   87.6980 C.3       1 DJS         0.0349
     12 C13        28.8750   56.1330   86.3030 C.3       1 DJS        -0.0423
     13 C14        29.8350   54.5300   87.8480 C.3       1 DJS        -0.0333
     14 C15        29.7420   53.6840   89.0880 C.3       1 DJS        -0.0632
     15 S16        27.8750   59.9260   92.0210 S.o2      1 DJS         0.0063
     16 O17        28.7820   59.1890   92.9030 O.2       1 DJS        -0.1680
     17 O18        28.5270   60.9880   91.2390 O.2       1 DJS        -0.1680
     18 C19        26.5200   60.6410   92.7690 C.3       1 DJS         0.0613
     19 C20        22.8250   55.2280   88.9870 C.3       1 DJS         0.0823
     20 C22        22.2480   54.4250   90.1620 C.3       1 DJS         0.1220
     21 O24        21.0980   53.6670   89.7580 O.3       1 DJS        -0.3837
     22 C25        21.8520   55.2820   91.3670 C.3       1 DJS         0.0064
     23 C27        20.8030   56.3280   91.0450 C.3       1 DJS        -0.0024
     24 C28        20.0900   56.5190   92.3640 C.3       1 DJS        -0.0074
     25 C29        20.2820   55.2350   93.1350 C.3       1 DJS        -0.0331
     26 N30        21.2750   54.4320   92.4080 N.4       1 DJS         0.2311
     27 C31        23.1250   54.3270   87.7660 C.3       1 DJS         0.0066
     28 C32        23.9220   54.9880   86.6800 C.ar      1 DJS        -0.0408
     29 C33        25.0350   54.3290   86.1830 C.ar      1 DJS        -0.0603
     30 C34        25.7820   54.8820   85.1610 C.ar      1 DJS        -0.0686
     31 C35        25.4370   56.1230   84.6320 C.ar      1 DJS        -0.0687
     32 C36        24.3300   56.7850   85.1380 C.ar      1 DJS        -0.0686
     33 C37        23.5690   56.2220   86.1510 C.ar      1 DJS        -0.0603
     34 H1         24.7949   55.4108   89.7177 H         1 DJS         0.1854
     35 H2         25.0815   59.1480   91.1591 H         1 DJS         0.0663
     36 H3         26.3269   56.3865   88.0932 H         1 DJS         0.0661
     37 H4         29.9544   56.9490   88.8580 H         1 DJS         0.1805
     38 H5         27.7382   55.1121   87.8604 H         1 DJS         0.0550
     39 H6         28.6903   55.3436   85.5595 H         1 DJS         0.0252
     40 H7         29.8932   56.5283   86.1728 H         1 DJS         0.0252
     41 H8         28.1459   56.9449   86.1645 H         1 DJS         0.0252
     42 H9         30.7976   55.0620   87.8676 H         1 DJS         0.0285
     43 H10        29.8028   53.8622   86.9745 H         1 DJS         0.0285
     44 H11        30.5805   52.9724   89.1101 H         1 DJS         0.0230
     45 H12        28.7914   53.1305   89.0838 H         1 DJS         0.0230
     46 H13        29.7862   54.3303   89.9770 H         1 DJS         0.0230
     47 H14        26.8576   61.3339   93.5539 H         1 DJS         0.0469
     48 H15        25.8923   59.8568   93.2174 H         1 DJS         0.0469
     49 H16        25.9359   61.1937   92.0184 H         1 DJS         0.0469
     50 H17        22.0692   55.9675   88.6838 H         1 DJS         0.0606
     51 H18        23.0283   53.7227   90.4905 H         1 DJS         0.0675
     52 H19        21.3453   53.0615   89.0690 H         1 DJS         0.2102
     53 H20        22.7539   55.7822   91.7497 H         1 DJS         0.0877
     54 H21        20.1102   55.9667   90.2708 H         1 DJS         0.0322
     55 H22        21.2706   57.2656   90.7100 H         1 DJS         0.0322
     56 H23        19.0193   56.7062   92.1953 H         1 DJS         0.0319
     57 H24        20.5277   57.3642   92.9154 H         1 DJS         0.0319
     58 H25        19.3296   54.6882   93.1985 H         1 DJS         0.0814
     59 H26        20.6464   55.4559   94.1491 H         1 DJS         0.0814
     60 H27        21.9973   54.1236   93.0399 H         1 DJS         0.2017
     61 H28        20.8296   53.6303   91.9898 H         1 DJS         0.2017
     62 H29        22.1661   54.0007   87.3371 H         1 DJS         0.0449
     63 H30        23.6871   53.4493   88.1176 H         1 DJS         0.0449
     64 H31        25.3222   53.3706   86.6001 H         1 DJS         0.0557
     65 H32        26.6401   54.3478   84.7693 H         1 DJS         0.0599
     66 H33        26.0258   56.5646   83.8361 H         1 DJS         0.0559
     67 H34        24.0558   57.7542   84.7373 H         1 DJS         0.0599
     68 H35        22.6985   56.7453   86.5299 H         1 DJS         0.0557
@<TRIPOS>BOND
     1    3    1 ar 
     2    1    7 ar 
     3    1   15 1  
     4    5    2 am 
     5    2   19 1  
     6    4    3 ar 
     7    4    5 1  
     8    4    9 ar 
     9    5    6 2  
    10    7    8 ar 
    11    8    9 ar 
    12    8   10 1  
    13   10   11 1  
    14   11   12 1  
    15   11   13 1  
    16   13   14 1  
    17   15   16 2  
    18   15   17 2  
    19   15   18 1  
    20   19   20 1  
    21   19   27 1  
    22   20   21 1  
    23   20   22 1  
    24   22   23 1  
    25   22   26 1  
    26   23   24 1  
    27   24   25 1  
    28   25   26 1  
    29   27   28 1  
    30   28   29 ar 
    31   28   33 ar 
    32   29   30 ar 
    33   30   31 ar 
    34   31   32 ar 
    35   32   33 ar 
    36    2   34 1  
    37    3   35 1  
    38    9   36 1  
    39   10   37 1  
    40   11   38 1  
    41   12   39 1  
    42   12   40 1  
    43   12   41 1  
    44   13   42 1  
    45   13   43 1  
    46   14   44 1  
    47   14   45 1  
    48   14   46 1  
    49   18   47 1  
    50   18   48 1  
    51   18   49 1  
    52   19   50 1  
    53   20   51 1  
    54   21   52 1  
    55   22   53 1  
    56   23   54 1  
    57   23   55 1  
    58   24   56 1  
    59   24   57 1  
    60   25   58 1  
    61   25   59 1  
    62   26   60 1  
    63   26   61 1  
    64   27   62 1  
    65   27   63 1  
    66   29   64 1  
    67   30   65 1  
    68   31   66 1  
    69   32   67 1  
    70   33   68 1  
@<TRIPOS>SUBSTRUCTURE
     1 DJS         1

