### 
### Created by X-TOOL on Mon Sep 10 21:13:31 2018
### 

@<TRIPOS>MOLECULE
6bfe_ligand
   62    64     1     0     0
SMALL
GAST_HUCK


@<TRIPOS>ATOM
      1 O1         22.7700   58.0400   88.6700 O.2       1 DJV        -0.3974
      2 C7         23.7400   57.4050   89.0820 C.2       1 DJV         0.1733
      3 O2         20.9380   53.7070   89.6310 O.3       1 DJV        -0.3837
      4 C6         25.4530   55.7040   85.0350 C.ar      1 DJV         0.1242
      5 C1         22.8700   56.0460   85.8220 C.ar      1 DJV        -0.0310
      6 N1         21.1230   54.5180   92.2680 N.4       1 DJV         0.2330
      7 C5         23.4280   56.8030   84.8210 C.ar      1 DJV         0.1242
      8 C4         23.6510   55.0910   86.4610 C.ar      1 DJV        -0.0445
      9 C3         24.7080   56.6450   84.3800 C.ar      1 DJV        -0.0019
     10 C2         24.9720   54.9300   86.0680 C.ar      1 DJV        -0.0310
     11 C8         14.2940   54.3200   89.1560 C.3       1 DJV        -0.0530
     12 C9         14.0120   55.6820   89.7630 C.3       1 DJV        -0.0527
     13 C10        15.2830   53.5430   90.0070 C.3       1 DJV        -0.0527
     14 C11        15.3050   56.4560   89.9880 C.3       1 DJV        -0.0481
     15 C12        16.5630   54.3400   90.2250 C.3       1 DJV        -0.0481
     16 C13        20.5940   56.3410   90.8850 C.3       1 DJV         0.0240
     17 C14        20.4290   55.4830   93.1270 C.3       1 DJV        -0.0062
     18 C15        16.2790   55.6860   90.8710 C.3       1 DJV        -0.0175
     19 C16        19.7160   56.3840   92.1340 C.3       1 DJV         0.1034
     20 C17        21.7170   55.3400   91.2060 C.3       1 DJV         0.0089
     21 C18        25.0280   58.0710   89.4470 C.3       1 DJV         0.0257
     22 C19        23.0750   54.3120   87.6220 C.3       1 DJV         0.0048
     23 C20        17.5430   56.4820   91.0860 C.3       1 DJV         0.0511
     24 C21        22.1090   54.4390   89.9950 C.3       1 DJV         0.1221
     25 C22        22.6220   55.2260   88.7740 C.3       1 DJV         0.0824
     26 N2         23.7320   56.0720   89.1860 N.am      1 DJV        -0.2795
     27 O3         18.4590   55.7380   91.9040 O.3       1 DJV        -0.3708
     28 F1         22.6620   57.7680   84.2410 F         1 DJV        -0.1863
     29 F2         26.7300   55.5230   84.6430 F         1 DJV        -0.1863
     30 H1         21.1354   53.1427   88.8926 H         1 DJV         0.2102
     31 H2         21.8350   56.1916   86.1094 H         1 DJV         0.0508
     32 H3         20.4730   53.8512   91.8821 H         1 DJV         0.2018
     33 H4         21.8382   54.0301   92.7842 H         1 DJV         0.2018
     34 H5         25.1105   57.2294   83.5605 H         1 DJV         0.0532
     35 H6         25.6125   54.2097   86.5639 H         1 DJV         0.0508
     36 H7         14.7137   54.4545   88.1482 H         1 DJV         0.0265
     37 H8         13.3534   53.7536   89.0890 H         1 DJV         0.0265
     38 H9         13.5005   55.5474   90.7275 H         1 DJV         0.0265
     39 H10        13.3647   56.2530   89.0812 H         1 DJV         0.0265
     40 H11        15.5297   52.5988   89.4995 H         1 DJV         0.0265
     41 H12        14.8244   53.3258   90.9829 H         1 DJV         0.0265
     42 H13        15.0666   57.4144   90.4724 H         1 DJV         0.0269
     43 H14        15.7806   56.6455   89.0144 H         1 DJV         0.0269
     44 H15        17.0504   54.5060   89.2530 H         1 DJV         0.0269
     45 H16        17.2351   53.7647   90.8787 H         1 DJV         0.0269
     46 H17        21.0141   57.3359   90.6760 H         1 DJV         0.0348
     47 H18        20.0111   55.9993   90.0170 H         1 DJV         0.0348
     48 H19        21.1448   56.0555   93.7352 H         1 DJV         0.0839
     49 H20        19.7093   54.9768   93.7872 H         1 DJV         0.0839
     50 H21        15.8101   55.5131   91.8509 H         1 DJV         0.0323
     51 H22        19.5831   57.4119   92.5024 H         1 DJV         0.0651
     52 H23        22.6122   55.8685   91.5654 H         1 DJV         0.0878
     53 H24        25.7489   57.3132   89.7877 H         1 DJV         0.0467
     54 H25        24.8497   58.7966   90.2543 H         1 DJV         0.0467
     55 H26        25.4330   58.5931   88.5676 H         1 DJV         0.0467
     56 H27        23.8433   53.6215   88.0001 H         1 DJV         0.0448
     57 H28        22.2079   53.7364   87.2658 H         1 DJV         0.0448
     58 H29        17.2958   57.4301   91.5859 H         1 DJV         0.0563
     59 H30        18.0113   56.6917   90.1130 H         1 DJV         0.0563
     60 H31        22.8984   53.7418   90.3126 H         1 DJV         0.0675
     61 H32        21.8044   55.8633   88.4060 H         1 DJV         0.0606
     62 H33        24.5407   55.6279   89.5717 H         1 DJV         0.1857
@<TRIPOS>BOND
     1    2    1 2  
     2    2   21 1  
     3   26    2 am 
     4   24    3 1  
     5    4    9 ar 
     6   10    4 ar 
     7    4   29 1  
     8    5    7 ar 
     9    8    5 ar 
    10    6   17 1  
    11   20    6 1  
    12    7    9 ar 
    13    7   28 1  
    14    8   10 ar 
    15   22    8 1  
    16   12   11 1  
    17   13   11 1  
    18   14   12 1  
    19   15   13 1  
    20   18   14 1  
    21   18   15 1  
    22   16   19 1  
    23   20   16 1  
    24   19   17 1  
    25   23   18 1  
    26   19   27 1  
    27   24   20 1  
    28   25   22 1  
    29   27   23 1  
    30   25   24 1  
    31   25   26 1  
    32    3   30 1  
    33    5   31 1  
    34    6   32 1  
    35    6   33 1  
    36    9   34 1  
    37   10   35 1  
    38   11   36 1  
    39   11   37 1  
    40   12   38 1  
    41   12   39 1  
    42   13   40 1  
    43   13   41 1  
    44   14   42 1  
    45   14   43 1  
    46   15   44 1  
    47   15   45 1  
    48   16   46 1  
    49   16   47 1  
    50   17   48 1  
    51   17   49 1  
    52   18   50 1  
    53   19   51 1  
    54   20   52 1  
    55   21   53 1  
    56   21   54 1  
    57   21   55 1  
    58   22   56 1  
    59   22   57 1  
    60   23   58 1  
    61   23   59 1  
    62   24   60 1  
    63   25   61 1  
    64   26   62 1  
@<TRIPOS>SUBSTRUCTURE
     1 DJV         1

