### 
### Created by X-TOOL on Mon Aug  2 16:12:39 2021
### 

@<TRIPOS>MOLECULE
6bfp_ligand
   65    68     1     0     0
SMALL
GAST_HUCK


@<TRIPOS>ATOM
      1 C01        -3.6880   21.9340  -23.0020 C.3       1 DJY         0.0618
      2 C04        -1.5030   20.3380  -21.9330 C.ar      1 DJY        -0.0150
      3 C06        -0.7640   18.7340  -20.3330 C.ar      1 DJY         0.0563
      4 C07        -2.0880   18.5580  -19.9010 C.ar      1 DJY        -0.0384
      5 C09        -4.5860   19.0420  -20.0680 C.2       1 DJY        -0.0640
      6 C10        -5.0090   17.8340  -19.6220 C.2       1 DJY        -0.1037
      7 C11         0.2890   17.9910  -19.5320 C.2       1 DJY         0.2262
      8 C14         0.6560   15.8840  -18.2020 C.ar      1 DJY         0.0657
      9 C15         1.0620   16.5130  -17.0230 C.ar      1 DJY        -0.0413
     10 C17         1.6890   14.3990  -16.1740 C.ar      1 DJY         0.0101
     11 C18         1.2220   13.7680  -17.3110 C.ar      1 DJY        -0.0703
     12 C19         0.6790   14.5160  -18.3310 C.ar      1 DJY        -0.0413
     13 C20         2.2220   13.5670  -15.0460 C.cat     1 DJY         0.2272
     14 N21         3.0450   14.1200  -14.0730 N.pl3     1 DJY        -0.2738
     15 C23         0.8630   19.8590  -21.7640 C.ar      1 DJY         0.0278
     16 C24         1.4600   21.1140  -21.6380 C.ar      1 DJY        -0.0265
     17 C26         3.4350   20.2450  -22.6800 C.ar      1 DJY         0.1249
     18 C28         1.6010   18.8350  -22.3590 C.ar      1 DJY         0.0954
     19 C29         1.0440   17.4380  -22.5720 C.2       1 DJY         0.0827
     20 C32         4.8750   20.3750  -23.1610 C.2       1 DJY         0.2239
     21 N34         5.3920   19.3300  -23.9780 N.am      1 DJY        -0.2840
     22 C35         6.7520   19.3440  -24.4390 C.3       1 DJY         0.0334
     23 C38         6.9060   19.5260  -26.9780 C.3       1 DJY        -0.0481
     24 O02        -3.9300   20.8380  -22.1200 O.3       1 DJY        -0.3143
     25 C03        -2.8300   20.1520  -21.5290 C.ar      1 DJY         0.1090
     26 C05        -0.4580   19.6500  -21.3260 C.ar      1 DJY         0.0053
     27 C08        -3.1320   19.2570  -20.5070 C.ar      1 DJY         0.0138
     28 O12         1.3270   18.5140  -19.2020 O.2       1 DJY        -0.3775
     29 N13        -0.0370   16.6900  -19.1250 N.am      1 DJY        -0.2345
     30 C16         1.6060   15.7650  -16.0020 C.ar      1 DJY        -0.0703
     31 N22         1.8150   12.3300  -14.8900 N.pl3     1 DJY        -0.2738
     32 C25         2.7620   21.3020  -22.0830 C.ar      1 DJY        -0.0119
     33 N27         2.8500   19.0490  -22.7850 N.ar      1 DJY        -0.2610
     34 O30         0.0200   17.2770  -23.3070 O.co2     1 DJY        -0.5571
     35 O31         1.6080   16.4370  -22.0470 O.co2     1 DJY        -0.5571
     36 O33         5.5600   21.3280  -22.8220 O.2       1 DJY        -0.3793
     37 C36         7.0630   20.2310  -25.6460 C.3       1 DJY        -0.0208
     38 C37         5.9300   20.6150  -26.5720 C.3       1 DJY        -0.0481
     39 H1         -4.6476   22.3365  -23.3585 H         1 DJY         0.0583
     40 H2         -3.0933   21.5892  -23.8607 H         1 DJY         0.0583
     41 H3         -3.1367   22.7209  -22.4664 H         1 DJY         0.0583
     42 H4         -1.2852   21.0329  -22.7359 H         1 DJY         0.0572
     43 H5         -2.3011   17.8724  -19.0888 H         1 DJY         0.0656
     44 H6         -5.2889   19.8724  -20.1154 H         1 DJY         0.0607
     45 H7         -6.0449   17.6994  -19.3144 H         1 DJY         0.0478
     46 H8         -4.3129   16.9980  -19.5713 H         1 DJY         0.0478
     47 H9          0.9495   17.5854  -16.9117 H         1 DJY         0.0503
     48 H10         1.2829   12.6893  -17.3993 H         1 DJY         0.0577
     49 H11         0.2783   14.0364  -19.2167 H         1 DJY         0.0503
     50 H12         3.4016   13.5328  -13.3056 H         1 DJY         0.3179
     51 H13         3.2986   15.1172  -14.1190 H         1 DJY         0.3179
     52 H14         0.9108   21.9372  -21.1955 H         1 DJY         0.0759
     53 H15         4.7955   18.5701  -24.2363 H         1 DJY         0.1847
     54 H16         7.0234   18.3120  -24.7060 H         1 DJY         0.0522
     55 H17         7.3826   19.6848  -23.6046 H         1 DJY         0.0522
     56 H18         6.5777   18.4766  -27.0101 H         1 DJY         0.0269
     57 H19         7.6295   19.7087  -27.7861 H         1 DJY         0.0269
     58 H20        -0.8549   16.2886  -19.5372 H         1 DJY         0.2250
     59 H21         1.9581   16.2357  -15.0912 H         1 DJY         0.0577
     60 H22         1.2041   11.8959  -15.5966 H         1 DJY         0.3179
     61 H23         2.1063   11.7927  -14.0609 H         1 DJY         0.3179
     62 H24         3.2475   22.2640  -21.9654 H         1 DJY         0.0775
     63 H25         7.8874   20.9288  -25.4378 H         1 DJY         0.0320
     64 H26         4.8937   20.3551  -26.3103 H         1 DJY         0.0269
     65 H27         5.9456   21.5872  -27.0863 H         1 DJY         0.0269
@<TRIPOS>BOND
     1   24    1 1  
     2   25    2 ar 
     3    2   26 ar 
     4    3    4 ar 
     5    3    7 1  
     6   26    3 ar 
     7    4   27 ar 
     8    5    6 2  
     9   27    5 1  
    10    7   28 2  
    11    7   29 am 
    12    8    9 ar 
    13    8   12 ar 
    14   29    8 1  
    15    9   30 ar 
    16   11   10 ar 
    17   10   13 1  
    18   30   10 ar 
    19   12   11 ar 
    20   13   14 ar 
    21   13   31 ar 
    22   15   16 ar 
    23   15   18 ar 
    24   26   15 1  
    25   16   32 ar 
    26   17   20 1  
    27   32   17 ar 
    28   33   17 ar 
    29   18   19 1  
    30   18   33 ar 
    31   19   34 ar 
    32   19   35 ar 
    33   20   21 am 
    34   20   36 2  
    35   21   22 1  
    36   22   37 1  
    37   37   23 1  
    38   23   38 1  
    39   24   25 1  
    40   25   27 ar 
    41   37   38 1  
    42    1   39 1  
    43    1   40 1  
    44    1   41 1  
    45    2   42 1  
    46    4   43 1  
    47    5   44 1  
    48    6   45 1  
    49    6   46 1  
    50    9   47 1  
    51   11   48 1  
    52   12   49 1  
    53   14   50 1  
    54   14   51 1  
    55   16   52 1  
    56   21   53 1  
    57   22   54 1  
    58   22   55 1  
    59   23   56 1  
    60   23   57 1  
    61   29   58 1  
    62   30   59 1  
    63   31   60 1  
    64   31   61 1  
    65   32   62 1  
    66   37   63 1  
    67   38   64 1  
    68   38   65 1  
@<TRIPOS>SUBSTRUCTURE
     1 DJY         1

