### 
### Created by X-TOOL on Mon Sep 10 21:13:32 2018
### 

@<TRIPOS>MOLECULE
6bfw_ligand
   63    65     1     0     0
SMALL
GAST_HUCK


@<TRIPOS>ATOM
      1 C6         15.9830    0.6310   -2.9050 C.ar      1 DK7         0.1242
      2 C1         15.6170   -1.2560   -1.4690 C.ar      1 DK7        -0.0445
      3 C5         15.6020   -0.1060   -4.0120 C.ar      1 DK7        -0.0019
      4 C3         15.2250   -1.4200   -3.8330 C.ar      1 DK7         0.1242
      5 C2         15.2460   -1.9910   -2.5790 C.ar      1 DK7        -0.0310
      6 F4         14.8330   -2.1740   -4.8740 F         1 DK7        -0.1863
      7 F7         16.3240    1.9290   -3.0570 F         1 DK7        -0.1863
      8 C8         15.9790    0.0680   -1.6410 C.ar      1 DK7        -0.0310
      9 C9         15.6180   -1.8900   -0.1070 C.3       1 DK7         0.0048
     10 C10        14.2010   -2.3040    0.3080 C.3       1 DK7         0.0825
     11 C12        14.1010   -2.9070    1.7060 C.3       1 DK7         0.1242
     12 O14        14.9600   -4.0490    1.8040 O.3       1 DK7        -0.3837
     13 C15        12.6770   -3.3700    2.0600 C.3       1 DK7         0.0303
     14 N17        12.6710   -3.9360    3.4170 N.4       1 DK7         0.2363
     15 C18        11.3620   -4.5010    3.7840 C.3       1 DK7         0.0191
     16 C19        10.9450   -5.5470    2.7560 C.3       1 DK7         0.1998
     17 O21        11.9100   -6.5860    2.8110 O.3       1 DK7        -0.3464
     18 C22        11.4820   -7.6960    2.0090 C.3       1 DK7         0.0537
     19 C23        12.5860   -8.7380    2.0200 C.3       1 DK7        -0.0175
     20 C24        12.0700  -10.0640    1.4730 C.3       1 DK7        -0.0481
     21 C25        13.2020  -11.0850    1.4100 C.3       1 DK7        -0.0527
     22 C26        14.4070  -10.5720    0.6330 C.3       1 DK7        -0.0530
     23 C27        14.9080   -9.2340    1.1830 C.3       1 DK7        -0.0527
     24 C28        13.7770   -8.2170    1.2280 C.3       1 DK7        -0.0481
     25 O29        10.8820   -4.9090    1.4770 O.3       1 DK7        -0.3410
     26 C30        12.1740   -4.4250    1.0710 C.3       1 DK7         0.0960
     27 N31        13.2830   -1.2070    0.1340 N.am      1 DK7        -0.2795
     28 C32        12.2900   -1.2190   -0.8230 C.2       1 DK7         0.1733
     29 C33        11.5890    0.0940   -0.9560 C.3       1 DK7         0.0257
     30 O34        11.9690   -2.1570   -1.5290 O.2       1 DK7        -0.3974
     31 H1         15.5999    0.3404   -4.9998 H         1 DK7         0.0532
     32 H2         14.9674   -3.0320   -2.4615 H         1 DK7         0.0508
     33 H3         16.2606    0.6667   -0.7823 H         1 DK7         0.0508
     34 H4         16.0109   -1.1691    0.6250 H         1 DK7         0.0448
     35 H5         16.2621   -2.7815   -0.1257 H         1 DK7         0.0448
     36 H6         13.8914   -3.0956   -0.3902 H         1 DK7         0.0606
     37 H7         14.4180   -2.1464    2.4347 H         1 DK7         0.0676
     38 H8         15.8573   -3.7840    1.6389 H         1 DK7         0.2102
     39 H9         12.0028   -2.5015    2.0267 H         1 DK7         0.0900
     40 H10        12.9041   -3.2069    4.0728 H         1 DK7         0.2020
     41 H11        13.3640   -4.6664    3.4661 H         1 DK7         0.2020
     42 H12        10.6119   -3.6969    3.8118 H         1 DK7         0.0864
     43 H13        11.4323   -4.9714    4.7758 H         1 DK7         0.0864
     44 H14         9.9544   -5.9555    3.0047 H         1 DK7         0.0966
     45 H15        11.2954   -7.3612    0.9779 H         1 DK7         0.0563
     46 H16        10.5599   -8.1252    2.4278 H         1 DK7         0.0563
     47 H17        12.9067   -8.8993    3.0598 H         1 DK7         0.0323
     48 H18        11.6656   -9.9072    0.4621 H         1 DK7         0.0269
     49 H19        11.2747  -10.4437    2.1313 H         1 DK7         0.0269
     50 H20        12.8284  -11.9963    0.9202 H         1 DK7         0.0265
     51 H21        13.5193  -11.3238    2.4358 H         1 DK7         0.0265
     52 H22        14.1214  -10.4396   -0.4210 H         1 DK7         0.0265
     53 H23        15.2177  -11.3121    0.7031 H         1 DK7         0.0265
     54 H24        15.7105   -8.8538    0.5338 H         1 DK7         0.0265
     55 H25        15.2994   -9.3848    2.1999 H         1 DK7         0.0265
     56 H26        14.1448   -7.2949    1.7016 H         1 DK7         0.0269
     57 H27        13.4535   -7.9973    0.1999 H         1 DK7         0.0269
     58 H28        12.8842   -5.2645    1.0426 H         1 DK7         0.0618
     59 H29        12.0960   -3.9766    0.0696 H         1 DK7         0.0618
     60 H30        13.3691   -0.4078    0.7289 H         1 DK7         0.1857
     61 H31        10.8126    0.0182   -1.7315 H         1 DK7         0.0467
     62 H32        12.3151    0.8704   -1.2388 H         1 DK7         0.0467
     63 H33        11.1232    0.3599    0.0044 H         1 DK7         0.0467
@<TRIPOS>BOND
     1    1    3 ar 
     2    1    7 1  
     3    8    1 ar 
     4    2    5 ar 
     5    2    8 ar 
     6    2    9 1  
     7    3    4 ar 
     8    4    5 ar 
     9    4    6 1  
    10    9   10 1  
    11   10   11 1  
    12   10   27 1  
    13   11   12 1  
    14   11   13 1  
    15   13   14 1  
    16   13   26 1  
    17   14   15 1  
    18   15   16 1  
    19   16   17 1  
    20   16   25 1  
    21   17   18 1  
    22   18   19 1  
    23   19   20 1  
    24   19   24 1  
    25   20   21 1  
    26   21   22 1  
    27   22   23 1  
    28   23   24 1  
    29   25   26 1  
    30   27   28 am 
    31   28   29 1  
    32   28   30 2  
    33    3   31 1  
    34    5   32 1  
    35    8   33 1  
    36    9   34 1  
    37    9   35 1  
    38   10   36 1  
    39   11   37 1  
    40   12   38 1  
    41   13   39 1  
    42   14   40 1  
    43   14   41 1  
    44   15   42 1  
    45   15   43 1  
    46   16   44 1  
    47   18   45 1  
    48   18   46 1  
    49   19   47 1  
    50   20   48 1  
    51   20   49 1  
    52   21   50 1  
    53   21   51 1  
    54   22   52 1  
    55   22   53 1  
    56   23   54 1  
    57   23   55 1  
    58   24   56 1  
    59   24   57 1  
    60   26   58 1  
    61   26   59 1  
    62   27   60 1  
    63   29   61 1  
    64   29   62 1  
    65   29   63 1  
@<TRIPOS>SUBSTRUCTURE
     1 DK7         1

