### 
### Created by X-TOOL on Mon Sep 10 21:13:33 2018
### 

@<TRIPOS>MOLECULE
6bfx_ligand
   62    63     1     0     0
SMALL
GAST_HUCK


@<TRIPOS>ATOM
      1 O1         23.0040   59.2020   88.3620 O.2       1 DKJ        -0.3974
      2 C7         23.9300   58.5450   88.8260 C.2       1 DKJ         0.1733
      3 O2         19.6730   58.2620   91.1790 O.3       1 DKJ        -0.3408
      4 C6         26.0160   56.4980   85.1520 C.ar      1 DKJ         0.1242
      5 C1         23.3660   56.9860   85.6100 C.ar      1 DKJ        -0.0310
      6 N1         20.9280   55.8390   91.9690 N.4       1 DKJ         0.2383
      7 C5         24.0610   57.6320   84.6120 C.ar      1 DKJ         0.1242
      8 C4         24.0410   56.0810   86.4230 C.ar      1 DKJ        -0.0445
      9 C3         25.3840   57.4020   84.3370 C.ar      1 DKJ        -0.0019
     10 C2         25.3900   55.8300   86.1840 C.ar      1 DKJ        -0.0310
     11 C8         20.3820   57.5080   90.1900 C.3       1 DKJ         0.0960
     12 C9         21.4290   56.6060   90.8200 C.3       1 DKJ         0.0306
     13 C10        20.1060   56.6200   92.8980 C.3       1 DKJ         0.0271
     14 C11        19.0590   57.4440   92.1500 C.3       1 DKJ         0.2025
     15 C12        25.2830   59.1390   89.0550 C.3       1 DKJ         0.0257
     16 C13        20.9950   57.5620   93.6920 C.3       1 DKJ        -0.0169
     17 C14        15.0030   56.7910   89.5630 C.3       1 DKJ        -0.0580
     18 C15        15.8840   54.9000   90.9000 C.3       1 DKJ        -0.0580
     19 C16        17.1370   55.7240   88.9100 C.3       1 DKJ        -0.0580
     20 C17        23.3220   55.4070   87.5680 C.3       1 DKJ         0.0048
     21 C18        17.0100   57.1160   90.9670 C.3       1 DKJ         0.0557
     22 C19        22.0460   55.6050   89.7840 C.3       1 DKJ         0.1242
     23 C20        22.7420   56.3820   88.6060 C.3       1 DKJ         0.0825
     24 C21        16.2710   56.1370   90.0940 C.3       1 DKJ        -0.0142
     25 N2         23.8000   57.2460   89.1300 N.am      1 DKJ        -0.2795
     26 O3         20.9980   54.7820   89.2900 O.3       1 DKJ        -0.3837
     27 O4         18.1560   56.5280   91.5790 O.3       1 DKJ        -0.3460
     28 F1         23.4210   58.6030   83.9060 F         1 DKJ        -0.1863
     29 F2         27.3380   56.2630   84.9380 F         1 DKJ        -0.1863
     30 H1         22.3100   57.1795   85.7597 H         1 DKJ         0.0508
     31 H2         21.7196   55.4751   92.4760 H         1 DKJ         0.2022
     32 H3         20.3717   55.0741   91.6206 H         1 DKJ         0.2022
     33 H4         25.8989   57.9036   83.5256 H         1 DKJ         0.0532
     34 H5         25.9375   55.1233   86.7971 H         1 DKJ         0.0508
     35 H6         20.8797   58.2043   89.4990 H         1 DKJ         0.0618
     36 H7         19.6652   56.8875   89.6322 H         1 DKJ         0.0618
     37 H8         22.2372   57.2583   91.1822 H         1 DKJ         0.0900
     38 H9         19.5955   55.9317   93.5876 H         1 DKJ         0.0898
     39 H10        18.5210   58.0891   92.8602 H         1 DKJ         0.0969
     40 H11        25.9530   58.3740   89.4744 H         1 DKJ         0.0467
     41 H12        25.1999   59.9797   89.7595 H         1 DKJ         0.0467
     42 H13        25.6914   59.5001   88.0996 H         1 DKJ         0.0467
     43 H14        20.3780   58.1480   94.3891 H         1 DKJ         0.0286
     44 H15        21.5162   58.2426   93.0027 H         1 DKJ         0.0286
     45 H16        21.7344   56.9775   94.2592 H         1 DKJ         0.0286
     46 H17        14.4618   56.0770   88.9249 H         1 DKJ         0.0236
     47 H18        15.2686   57.6811   88.9738 H         1 DKJ         0.0236
     48 H19        14.3624   57.0874   90.4066 H         1 DKJ         0.0236
     49 H20        16.7924   54.4175   91.2899 H         1 DKJ         0.0236
     50 H21        15.3434   54.1945   90.2520 H         1 DKJ         0.0236
     51 H22        15.2375   55.1965   91.7391 H         1 DKJ         0.0236
     52 H23        17.4151   56.6165   88.3302 H         1 DKJ         0.0236
     53 H24        16.5740   55.0305   88.2681 H         1 DKJ         0.0236
     54 H25        18.0471   55.2270   89.2770 H         1 DKJ         0.0236
     55 H26        24.0335   54.7416   88.0789 H         1 DKJ         0.0448
     56 H27        22.4952   54.8112   87.1539 H         1 DKJ         0.0448
     57 H28        16.3303   57.4723   91.7551 H         1 DKJ         0.0566
     58 H29        17.3344   57.9671   90.3502 H         1 DKJ         0.0566
     59 H30        22.7962   54.9770   90.2869 H         1 DKJ         0.0676
     60 H31        21.9879   57.0107   88.1100 H         1 DKJ         0.0606
     61 H32        24.4684   56.8419   89.7544 H         1 DKJ         0.1857
     62 H33        21.3545   54.1529   88.6739 H         1 DKJ         0.2102
@<TRIPOS>BOND
     1    2    1 2  
     2    2   15 1  
     3   25    2 am 
     4   11    3 1  
     5    3   14 1  
     6    4    9 ar 
     7   10    4 ar 
     8    4   29 1  
     9    5    7 ar 
    10    8    5 ar 
    11   12    6 1  
    12    6   13 1  
    13    7    9 ar 
    14    7   28 1  
    15    8   10 ar 
    16   20    8 1  
    17   12   11 1  
    18   22   12 1  
    19   13   14 1  
    20   13   16 1  
    21   14   27 1  
    22   24   17 1  
    23   24   18 1  
    24   24   19 1  
    25   23   20 1  
    26   21   24 1  
    27   27   21 1  
    28   23   22 1  
    29   22   26 1  
    30   23   25 1  
    31    5   30 1  
    32    6   31 1  
    33    6   32 1  
    34    9   33 1  
    35   10   34 1  
    36   11   35 1  
    37   11   36 1  
    38   12   37 1  
    39   13   38 1  
    40   14   39 1  
    41   15   40 1  
    42   15   41 1  
    43   15   42 1  
    44   16   43 1  
    45   16   44 1  
    46   16   45 1  
    47   17   46 1  
    48   17   47 1  
    49   17   48 1  
    50   18   49 1  
    51   18   50 1  
    52   18   51 1  
    53   19   52 1  
    54   19   53 1  
    55   19   54 1  
    56   20   55 1  
    57   20   56 1  
    58   21   57 1  
    59   21   58 1  
    60   22   59 1  
    61   23   60 1  
    62   25   61 1  
    63   26   62 1  
@<TRIPOS>SUBSTRUCTURE
     1 DKJ         1

