### 
### Created by X-TOOL on Wed Jan  1 15:39:35 2020
### 

@<TRIPOS>MOLECULE
6bg3_ligand
   58    60     1     0     0
SMALL
GAST_HUCK


@<TRIPOS>ATOM
      1 FBC        14.8260  -13.4610   -2.6990 F         1 DOJ        -0.2209
      2 CBB        14.6940  -12.1440   -2.4900 C.3       1 DOJ         0.3726
      3 FBD        14.7110  -11.9560   -1.1500 F         1 DOJ        -0.2209
      4 FBE        13.4650  -11.8010   -2.8970 F         1 DOJ        -0.2209
      5 CAZ        15.7780  -11.3810   -3.1950 C.ar      1 DOJ         0.0333
      6 CBA        15.7580  -11.3070   -4.5940 C.ar      1 DOJ        -0.0127
      7 CAY        16.7720  -10.7850   -2.4600 C.ar      1 DOJ        -0.0452
      8 CAX        17.7720  -10.0840   -3.1460 C.ar      1 DOJ        -0.0435
      9 CAW        17.7570   -9.9920   -4.5430 C.ar      1 DOJ        -0.0115
     10 CAV        16.7490  -10.5960   -5.2430 C.ar      1 DOJ         0.0953
     11 NAU        16.7980  -10.4820   -6.6580 N.am      1 DOJ        -0.2138
     12 CAS        15.6830  -10.7260   -7.4940 C.2       1 DOJ         0.2877
     13 OAT        14.5940  -11.0040   -7.1140 O.2       1 DOJ        -0.3905
     14 NAR        16.0440  -10.6280   -8.8480 N.am      1 DOJ        -0.2620
     15 CAQ        14.9130  -10.6620   -9.8170 C.3       1 DOJ         0.0789
     16 CAE        15.1350  -11.3300  -11.0220 C.3       1 DOJ         0.1239
     17 CAF        14.4470  -10.9780  -12.3180 C.3       1 DOJ        -0.0013
     18 OAD        15.5270  -12.7090  -10.8590 O.3       1 DOJ        -0.3411
     19 CAB        16.7420  -13.3060  -11.2360 C.3       1 DOJ         0.1540
     20 OAC        16.6940  -14.6670  -10.9720 O.3       1 DOJ        -0.3672
     21 CAA        17.8590  -12.6120  -10.4480 C.3       1 DOJ        -0.0138
     22 CAP        14.5160   -9.2600  -10.0380 C.3       1 DOJ         0.0130
     23 CAO        13.3460   -9.2020  -11.0340 C.3       1 DOJ        -0.0282
     24 NAG        13.7580   -9.6830  -12.3210 N.4       1 DOJ         0.2491
     25 CAH        12.8400   -9.5890  -13.2180 C.3       1 DOJ         0.0020
     26 CAI        12.1780   -8.2060  -13.3370 C.ar      1 DOJ         0.0014
     27 CAJ        10.8810   -7.9530  -12.8000 C.ar      1 DOJ        -0.0553
     28 CAK        10.3120   -6.6770  -12.9030 C.ar      1 DOJ        -0.0684
     29 CAL        11.0070   -5.6610  -13.5030 C.ar      1 DOJ        -0.0687
     30 CAM        12.3090   -5.9040  -14.0420 C.ar      1 DOJ        -0.0684
     31 CAN        12.8580   -7.1560  -13.9510 C.ar      1 DOJ        -0.0553
     32 H1         14.9759  -11.8007   -5.1593 H         1 DOJ         0.0709
     33 H2         16.7829  -10.8548   -1.3783 H         1 DOJ         0.0740
     34 H3         18.5687   -9.6060   -2.5875 H         1 DOJ         0.0663
     35 H4         18.5361   -9.4478   -5.0644 H         1 DOJ         0.0758
     36 H5         17.6628  -10.2163   -7.0841 H         1 DOJ         0.2257
     37 H6         16.9960  -10.5413   -9.1416 H         1 DOJ         0.1856
     38 H7         14.0785  -11.1838   -9.3257 H         1 DOJ         0.0583
     39 H8         16.1158  -10.8920  -11.2588 H         1 DOJ         0.0674
     40 H9         13.7044  -11.7603  -12.5339 H         1 DOJ         0.0841
     41 H10        15.2058  -10.9629  -13.1143 H         1 DOJ         0.0841
     42 H11        16.9106  -13.1580  -12.3129 H         1 DOJ         0.0904
     43 H12        16.5497  -14.8033  -10.0429 H         1 DOJ         0.2125
     44 H13        17.8624  -11.5379  -10.6855 H         1 DOJ         0.0278
     45 H14        18.8292  -13.0513  -10.7230 H         1 DOJ         0.0278
     46 H15        17.6868  -12.7486   -9.3702 H         1 DOJ         0.0278
     47 H16        15.3699   -8.6981  -10.4444 H         1 DOJ         0.0340
     48 H17        14.2046   -8.8134   -9.0822 H         1 DOJ         0.0340
     49 H18        13.0029   -8.1612  -11.1293 H         1 DOJ         0.0815
     50 H19        12.5215   -9.8272  -10.6608 H         1 DOJ         0.0815
     51 H20        14.4661   -9.0283  -12.6143 H         1 DOJ         0.2049
     52 H21        12.0553  -10.3221  -12.9797 H         1 DOJ         0.0980
     53 H22        13.2891   -9.8358  -14.1913 H         1 DOJ         0.0980
     54 H23        10.3339   -8.7506  -12.3106 H         1 DOJ         0.0558
     55 H24         9.3197   -6.4936  -12.5070 H         1 DOJ         0.0599
     56 H25        10.5696   -4.6714  -13.5694 H         1 DOJ         0.0559
     57 H26        12.8590   -5.1016  -14.5203 H         1 DOJ         0.0599
     58 H27        13.8435   -7.3338  -14.3660 H         1 DOJ         0.0558
@<TRIPOS>BOND
     1    1    2 1  
     2    2    3 1  
     3    2    4 1  
     4    2    5 1  
     5    5    6 ar 
     6    5    7 ar 
     7    6   10 ar 
     8    7    8 ar 
     9    8    9 ar 
    10    9   10 ar 
    11   10   11 1  
    12   11   12 am 
    13   12   13 2  
    14   12   14 am 
    15   14   15 1  
    16   15   16 1  
    17   15   22 1  
    18   16   17 1  
    19   16   18 1  
    20   17   24 1  
    21   18   19 1  
    22   19   20 1  
    23   19   21 1  
    24   22   23 1  
    25   23   24 1  
    26   24   25 1  
    27   25   26 1  
    28   26   27 ar 
    29   26   31 ar 
    30   27   28 ar 
    31   28   29 ar 
    32   29   30 ar 
    33   30   31 ar 
    34    6   32 1  
    35    7   33 1  
    36    8   34 1  
    37    9   35 1  
    38   11   36 1  
    39   14   37 1  
    40   15   38 1  
    41   16   39 1  
    42   17   40 1  
    43   17   41 1  
    44   19   42 1  
    45   20   43 1  
    46   21   44 1  
    47   21   45 1  
    48   21   46 1  
    49   22   47 1  
    50   22   48 1  
    51   23   49 1  
    52   23   50 1  
    53   24   51 1  
    54   25   52 1  
    55   25   53 1  
    56   27   54 1  
    57   28   55 1  
    58   29   56 1  
    59   30   57 1  
    60   31   58 1  
@<TRIPOS>SUBSTRUCTURE
     1 DOJ         1

