### 
### Created by X-TOOL on Wed Jan  1 15:39:35 2020
### 

@<TRIPOS>MOLECULE
6bg5_ligand
   62    65     1     0     0
SMALL
GAST_HUCK


@<TRIPOS>ATOM
      1 FBE        14.4160  -12.0060   -3.4880 F         1 DQD        -0.2209
      2 CBD        14.4220  -10.7370   -3.0920 C.3       1 DQD         0.3726
      3 FBF        14.4880  -10.7390   -1.7610 F         1 DQD        -0.2209
      4 FBG        13.1990  -10.2890   -3.3920 F         1 DQD        -0.2209
      5 CBB        15.5230   -9.9500   -3.7570 C.ar      1 DQD         0.0333
      6 CBC        15.5140   -9.8400   -5.1560 C.ar      1 DQD        -0.0127
      7 CBA        16.5310   -9.4050   -2.9620 C.ar      1 DQD        -0.0452
      8 CAZ        17.5660   -8.6960   -3.5920 C.ar      1 DQD        -0.0435
      9 CAY        17.5800   -8.5640   -4.9910 C.ar      1 DQD        -0.0115
     10 CAX        16.5420   -9.1340   -5.7530 C.ar      1 DQD         0.0953
     11 NAW        16.6310   -9.0650   -7.1580 N.am      1 DQD        -0.2135
     12 CAU        15.5380   -8.9030   -7.9690 C.2       1 DQD         0.2919
     13 OAV        14.4370   -8.6680   -7.5540 O.2       1 DQD        -0.3902
     14 NAJ        15.7960   -9.0330   -9.3610 N.am      1 DQD        -0.2413
     15 CAG        14.7540   -8.6400  -10.3920 C.3       1 DQD         0.0575
     16 CAH        14.6650   -7.2020  -10.2890 C.3       1 DQD         0.0109
     17 CAI        13.7820   -6.6060  -11.4040 C.3       1 DQD        -0.0298
     18 CAF        13.4620   -9.2530  -10.3540 C.3       1 DQD         0.0109
     19 CAE        12.5790   -8.6440  -11.4580 C.3       1 DQD        -0.0298
     20 NAD        12.4520   -7.2010  -11.3380 N.4       1 DQD         0.2353
     21 CAC        11.5950   -6.6980  -12.2060 C.3       1 DQD        -0.0322
     22 CAB        11.2060   -5.2390  -12.0720 C.3       1 DQD        -0.0153
     23 CAA        10.1670   -4.7750  -13.1180 C.3       1 DQD        -0.0605
     24 CAK        17.0940   -9.4110   -9.8620 C.3       1 DQD         0.0614
     25 CAL        16.8450  -10.7080  -10.7820 C.ar      1 DQD        -0.0406
     26 CAT        17.3770  -10.6530  -12.0850 C.ar      1 DQD        -0.0378
     27 CAS        17.2200  -11.7430  -12.9070 C.ar      1 DQD         0.1170
     28 OAR        17.6190  -11.9810  -14.1870 O.3       1 DQD        -0.2927
     29 CAQ        17.1990  -13.2080  -14.5600 C.3       1 DQD         0.1854
     30 OAP        16.5400  -13.7890  -13.5560 O.3       1 DQD        -0.2956
     31 CAO        16.5210  -12.8980  -12.4920 C.ar      1 DQD         0.1160
     32 CAN        15.9670  -12.9570  -11.1870 C.ar      1 DQD        -0.0477
     33 CAM        16.1440  -11.8610  -10.3330 C.ar      1 DQD        -0.0782
     34 H1         14.7276  -10.2933   -5.7486 H         1 DQD         0.0709
     35 H2         16.5157   -9.5258   -1.8849 H         1 DQD         0.0740
     36 H3         18.3556   -8.2497   -2.9984 H         1 DQD         0.0663
     37 H4         18.3845   -8.0270   -5.4803 H         1 DQD         0.0758
     38 H5         17.5334   -9.1376   -7.5828 H         1 DQD         0.2257
     39 H6         15.1705   -8.8929  -11.3782 H         1 DQD         0.0561
     40 H7         15.6758   -6.7753  -10.3679 H         1 DQD         0.0339
     41 H8         14.2317   -6.9403   -9.3124 H         1 DQD         0.0339
     42 H9         14.2325   -6.8220  -12.3840 H         1 DQD         0.0815
     43 H10        13.7042   -5.5172  -11.2681 H         1 DQD         0.0815
     44 H11        12.9989   -9.0743   -9.3724 H         1 DQD         0.0339
     45 H12        13.5636  -10.3357  -10.5199 H         1 DQD         0.0339
     46 H13        11.5766   -9.0925  -11.3952 H         1 DQD         0.0815
     47 H14        13.0251   -8.8785  -12.4357 H         1 DQD         0.0815
     48 H15        12.0815   -7.0034  -10.4217 H         1 DQD         0.2033
     49 H16        10.6705   -7.2893  -12.1304 H         1 DQD         0.0814
     50 H17        12.0322   -6.8274  -13.2071 H         1 DQD         0.0814
     51 H18        12.1121   -4.6259  -12.1868 H         1 DQD         0.0314
     52 H19        10.7824   -5.0831  -11.0689 H         1 DQD         0.0314
     53 H20         9.9357   -3.7115  -12.9582 H         1 DQD         0.0232
     54 H21         9.2481   -5.3702  -13.0111 H         1 DQD         0.0232
     55 H22        10.5777   -4.9130  -14.1291 H         1 DQD         0.0232
     56 H23        17.7702   -9.6554   -9.0295 H         1 DQD         0.0661
     57 H24        17.5273   -8.5949  -10.4589 H         1 DQD         0.0661
     58 H25        17.8995   -9.7690  -12.4323 H         1 DQD         0.0451
     59 H26        18.0691  -13.8246  -14.8298 H         1 DQD         0.0970
     60 H27        16.5311  -13.1159  -15.4292 H         1 DQD         0.0970
     61 H28        15.4183  -13.8320  -10.8579 H         1 DQD         0.0493
     62 H29        15.7450  -11.8918   -9.3256 H         1 DQD         0.0437
@<TRIPOS>BOND
     1    1    2 1  
     2    2    3 1  
     3    2    4 1  
     4    2    5 1  
     5    5    6 ar 
     6    5    7 ar 
     7    6   10 ar 
     8    7    8 ar 
     9    8    9 ar 
    10    9   10 ar 
    11   10   11 1  
    12   11   12 am 
    13   12   13 2  
    14   12   14 am 
    15   14   15 1  
    16   14   24 1  
    17   15   16 1  
    18   15   18 1  
    19   16   17 1  
    20   17   20 1  
    21   18   19 1  
    22   19   20 1  
    23   20   21 1  
    24   21   22 1  
    25   22   23 1  
    26   24   25 1  
    27   25   26 ar 
    28   25   33 ar 
    29   26   27 ar 
    30   27   28 1  
    31   27   31 ar 
    32   28   29 1  
    33   29   30 1  
    34   30   31 1  
    35   31   32 ar 
    36   32   33 ar 
    37    6   34 1  
    38    7   35 1  
    39    8   36 1  
    40    9   37 1  
    41   11   38 1  
    42   15   39 1  
    43   16   40 1  
    44   16   41 1  
    45   17   42 1  
    46   17   43 1  
    47   18   44 1  
    48   18   45 1  
    49   19   46 1  
    50   19   47 1  
    51   20   48 1  
    52   21   49 1  
    53   21   50 1  
    54   22   51 1  
    55   22   52 1  
    56   23   53 1  
    57   23   54 1  
    58   23   55 1  
    59   24   56 1  
    60   24   57 1  
    61   26   58 1  
    62   29   59 1  
    63   29   60 1  
    64   32   61 1  
    65   33   62 1  
@<TRIPOS>SUBSTRUCTURE
     1 DQD         1

