### 
### Created by X-TOOL on Wed Jan  1 15:39:37 2020
### 

@<TRIPOS>MOLECULE
6bgu_ligand
   40    42     1     0     0
SMALL
GAST_HUCK


@<TRIPOS>ATOM
      1 C10       -27.2750   22.4640    0.3610 C.ar      1 DKP        -0.0540
      2 C20       -23.3260   19.0300    7.7330 C.2       1 DKP         0.0666
      3 C01       -27.8220   25.0520    7.3290 C.3       1 DKP        -0.0632
      4 C02       -27.0800   23.7720    6.9670 C.3       1 DKP        -0.0318
      5 C03       -26.5480   23.7970    5.5390 C.3       1 DKP         0.0537
      6 C05       -25.7530   22.2840    3.8680 C.3       1 DKP         0.1531
      7 C06       -26.6990   22.1200    2.6870 C.ar      1 DKP         0.0157
      8 C07       -27.9150   21.4700    2.8440 C.ar      1 DKP        -0.0547
      9 C08       -28.7980   21.3100    1.7900 C.ar      1 DKP        -0.0678
     10 C09       -28.4800   21.8090    0.5410 C.ar      1 DKP        -0.0679
     11 C11       -26.4020   22.6150    1.4260 C.ar      1 DKP         0.0463
     12 C13       -25.0330   20.9760    4.1600 C.2       1 DKP         0.0902
     13 C14       -24.7260   19.9710    3.2500 C.2       1 DKP        -0.0437
     14 C15       -24.0690   18.9460    3.9700 C.ar      1 DKP         0.0317
     15 C17       -22.9940   17.0050    4.5180 C.ar      1 DKP        -0.0102
     16 C18       -22.8860   17.3540    5.8610 C.ar      1 DKP        -0.0377
     17 C19       -23.4020   18.5710    6.2810 C.ar      1 DKP         0.0438
     18 C23       -24.0040   19.3740    5.3030 C.ar      1 DKP         0.0993
     19 N16       -23.5620   17.7640    3.5930 N.ar      1 DKP        -0.3232
     20 N24       -24.5960   20.6080    5.3990 N.pl3     1 DKP        -0.2589
     21 O04       -26.5820   22.5090    5.0030 O.3       1 DKP        -0.3468
     22 O21       -22.5780   18.4260    8.5430 O.co2     1 DKP        -0.5601
     23 O22       -24.0120   20.0170    8.1100 O.co2     1 DKP        -0.5601
     24 CL1       -24.9080   23.4430    1.1470 Cl        1 DKP        -0.0765
     25 H1        -27.0137   22.8593   -0.6139 H         1 DKP         0.0606
     26 H2        -28.1849   24.9848    8.3652 H         1 DKP         0.0230
     27 H3        -28.6765   25.1853    6.6492 H         1 DKP         0.0230
     28 H4        -27.1405   25.9102    7.2341 H         1 DKP         0.0230
     29 H5        -27.7693   22.9213    7.0730 H         1 DKP         0.0285
     30 H6        -26.2333   23.6463    7.6579 H         1 DKP         0.0285
     31 H7        -25.5114   24.1651    5.5411 H         1 DKP         0.0565
     32 H8        -27.1729   24.4644    4.9274 H         1 DKP         0.0565
     33 H9        -25.0417   23.1058    3.6986 H         1 DKP         0.0982
     34 H10       -28.1806   21.0768    3.8186 H         1 DKP         0.0563
     35 H11       -29.7385   20.7935    1.9442 H         1 DKP         0.0602
     36 H12       -29.1674   21.6884   -0.2885 H         1 DKP         0.0562
     37 H13       -24.9492   19.9725    2.1841 H         1 DKP         0.0204
     38 H14       -22.5865   16.0493    4.2087 H         1 DKP         0.0732
     39 H15       -22.4065   16.6857    6.5671 H         1 DKP         0.0619
     40 H16       -24.6940   21.1630    6.2611 H         1 DKP         0.2303
@<TRIPOS>BOND
     1    1   10 ar 
     2   11    1 ar 
     3   17    2 1  
     4    2   22 ar 
     5    2   23 ar 
     6    4    3 1  
     7    5    4 1  
     8   21    5 1  
     9    6    7 1  
    10   12    6 1  
    11    6   21 1  
    12    7    8 ar 
    13    7   11 ar 
    14    8    9 ar 
    15    9   10 ar 
    16   11   24 1  
    17   13   12 2  
    18   12   20 1  
    19   14   13 1  
    20   14   18 ar 
    21   19   14 ar 
    22   16   15 ar 
    23   15   19 ar 
    24   16   17 ar 
    25   17   18 ar 
    26   18   20 1  
    27    1   25 1  
    28    3   26 1  
    29    3   27 1  
    30    3   28 1  
    31    4   29 1  
    32    4   30 1  
    33    5   31 1  
    34    5   32 1  
    35    6   33 1  
    36    8   34 1  
    37    9   35 1  
    38   10   36 1  
    39   13   37 1  
    40   15   38 1  
    41   16   39 1  
    42   20   40 1  
@<TRIPOS>SUBSTRUCTURE
     1 DKP         1

