### 
### Created by X-TOOL on Wed Jan  1 15:39:35 2020
### 

@<TRIPOS>MOLECULE
6bgv_ligand
   53    56     1     0     0
SMALL
GAST_HUCK


@<TRIPOS>ATOM
      1 C10       -29.3370   21.9390    3.8000 C.ar      1 DQG        -0.0678
      2 C13       -27.4410   22.9530    5.5210 C.ar      1 DQG         0.0463
      3 C17       -25.3040   24.8860    1.0450 C.3       1 DQG        -0.0074
      4 C20       -21.5440   24.5520    0.9230 C.3       1 DQG        -0.0123
      5 C21       -21.3940   26.0350    0.7760 C.3       1 DQG        -0.0434
      6 C24       -22.2170   26.5240   -0.3750 C.3       1 DQG        -0.0123
      7 C26       -24.6930   20.2180    3.1340 C.2       1 DQG        -0.0437
      8 C02       -23.4080   19.1240    7.6910 C.2       1 DQG         0.0666
      9 C03       -23.5100   18.7480    6.2560 C.ar      1 DQG         0.0438
     10 C04       -24.0460   19.6030    5.2860 C.ar      1 DQG         0.0993
     11 C06       -24.9860   21.3100    4.1210 C.2       1 DQG         0.0902
     12 C16       -25.7130   24.4220    2.4120 C.3       1 DQG         0.0937
     13 C19       -23.0160   24.1430    0.9210 C.3       1 DQG        -0.0318
     14 C25       -23.6850   26.1320   -0.2180 C.3       1 DQG        -0.0318
     15 C27       -24.1000   19.1760    3.9870 C.ar      1 DQG         0.0317
     16 C29       -23.1510   17.1540    4.5130 C.ar      1 DQG        -0.0102
     17 C30       -23.0540   17.4950    5.8570 C.ar      1 DQG        -0.0377
     18 N05       -24.5750   20.8920    5.3740 N.pl3     1 DQG        -0.2589
     19 N18       -23.8990   25.3100    0.9740 N.4       1 DQG         0.2369
     20 N28       -23.6600   17.9660    3.5900 N.ar      1 DQG        -0.3232
     21 O01       -24.0730   20.1020    8.1200 O.co2     1 DQG        -0.5601
     22 O15       -25.5230   22.9920    2.5230 O.3       1 DQG        -0.3415
     23 O31       -22.6670   18.4630    8.4660 O.co2     1 DQG        -0.5601
     24 C07       -25.5700   22.5010    3.8640 C.3       1 DQG         0.1534
     25 C08       -27.0190   22.4610    4.2970 C.ar      1 DQG         0.0157
     26 C09       -27.9980   21.9690    3.4430 C.ar      1 DQG        -0.0547
     27 C11       -29.7290   22.4250    5.0340 C.ar      1 DQG        -0.0679
     28 C12       -28.7740   22.9320    5.8950 C.ar      1 DQG        -0.0540
     29 CL1       -26.3030   23.5970    6.6420 Cl        1 DQG        -0.0765
     30 H1        -30.0740   21.5362    3.1147 H         1 DQG         0.0602
     31 H2        -25.9406   25.7364    0.7594 H         1 DQG         0.0837
     32 H3        -25.4560   24.0595    0.3352 H         1 DQG         0.0837
     33 H4        -21.0854   24.2372    1.8720 H         1 DQG         0.0317
     34 H5        -21.0323   24.0548    0.0858 H         1 DQG         0.0317
     35 H6        -20.3363   26.2776    0.5959 H         1 DQG         0.0269
     36 H7        -21.7312   26.5281    1.6997 H         1 DQG         0.0269
     37 H8        -21.8272   26.0854   -1.3054 H         1 DQG         0.0317
     38 H9        -22.1432   27.6203   -0.4274 H         1 DQG         0.0317
     39 H10       -24.8733   20.2011    2.0602 H         1 DQG         0.0204
     40 H11       -26.7735   24.6631    2.5771 H         1 DQG         0.0618
     41 H12       -25.0990   24.9315    3.1692 H         1 DQG         0.0618
     42 H13       -23.2113   23.5074    1.7973 H         1 DQG         0.0814
     43 H14       -23.2280   23.5763    0.0024 H         1 DQG         0.0814
     44 H15       -23.9993   25.5627   -1.1052 H         1 DQG         0.0814
     45 H16       -24.2916   27.0459   -0.1349 H         1 DQG         0.0814
     46 H17       -22.7945   16.1788    4.2016 H         1 DQG         0.0732
     47 H18       -22.6335   16.8020    6.5768 H         1 DQG         0.0619
     48 H19       -24.6480   21.4465    6.2389 H         1 DQG         0.2303
     49 H20       -23.6790   25.8529    1.7943 H         1 DQG         0.2034
     50 H21       -25.0460   23.2410    4.4868 H         1 DQG         0.0982
     51 H22       -27.7058   21.5972    2.4676 H         1 DQG         0.0563
     52 H23       -30.7737   22.4085    5.3228 H         1 DQG         0.0562
     53 H24       -29.0693   23.3141    6.8655 H         1 DQG         0.0606
@<TRIPOS>BOND
     1   26    1 ar 
     2    1   27 ar 
     3   25    2 ar 
     4    2   28 ar 
     5    2   29 1  
     6   12    3 1  
     7    3   19 1  
     8    4    5 1  
     9   13    4 1  
    10    6    5 1  
    11   14    6 1  
    12   11    7 2  
    13    7   15 1  
    14    9    8 1  
    15    8   21 ar 
    16    8   23 ar 
    17   10    9 ar 
    18    9   17 ar 
    19   10   15 ar 
    20   18   10 1  
    21   11   18 1  
    22   24   11 1  
    23   22   12 1  
    24   19   13 1  
    25   19   14 1  
    26   15   20 ar 
    27   17   16 ar 
    28   20   16 ar 
    29   24   22 1  
    30   25   24 1  
    31   25   26 ar 
    32   27   28 ar 
    33    1   30 1  
    34    3   31 1  
    35    3   32 1  
    36    4   33 1  
    37    4   34 1  
    38    5   35 1  
    39    5   36 1  
    40    6   37 1  
    41    6   38 1  
    42    7   39 1  
    43   12   40 1  
    44   12   41 1  
    45   13   42 1  
    46   13   43 1  
    47   14   44 1  
    48   14   45 1  
    49   16   46 1  
    50   17   47 1  
    51   18   48 1  
    52   19   49 1  
    53   24   50 1  
    54   26   51 1  
    55   27   52 1  
    56   28   53 1  
@<TRIPOS>SUBSTRUCTURE
     1 DQG         1

