### 
### Created by X-TOOL on Wed Jan  1 15:39:36 2020
### 

@<TRIPOS>MOLECULE
6bgw_ligand
   53    56     1     0     0
SMALL
GAST_HUCK


@<TRIPOS>ATOM
      1 C10       -29.4830   22.0660    3.5950 C.ar      1 DKS        -0.0678
      2 C13       -27.8000   23.2220    5.5030 C.ar      1 DKS         0.0463
      3 C17       -25.3790   23.6810    0.5980 C.3       1 DKS        -0.0074
      4 C20       -21.6290   24.0510    0.8480 C.3       1 DKS         0.0511
      5 C21       -21.4280   25.1210   -0.1800 C.3       1 DKS         0.2585
      6 C24       -22.5700   26.0910   -0.2290 C.3       1 DKS         0.0511
      7 C26       -24.7480   20.3080    3.3730 C.2       1 DKS        -0.0437
      8 C02       -23.2120   18.9690    7.7720 C.2       1 DKS         0.0666
      9 C03       -23.3670   18.6560    6.2780 C.ar      1 DKS         0.0438
     10 C04       -23.9680   19.5400    5.3890 C.ar      1 DKS         0.0993
     11 C06       -24.9970   21.2790    4.3130 C.2       1 DKS         0.0902
     12 C07       -25.6910   22.6170    4.2000 C.3       1 DKS         0.1534
     13 C08       -27.2090   22.6600    4.3740 C.ar      1 DKS         0.0157
     14 C09       -28.0730   22.0610    3.4560 C.ar      1 DKS        -0.0547
     15 C11       -30.0580   22.6610    4.7330 C.ar      1 DKS        -0.0679
     16 C12       -29.2040   23.2430    5.6940 C.ar      1 DKS        -0.0540
     17 C16       -25.6190   22.7230    1.7260 C.3       1 DKS         0.0937
     18 C19       -23.0090   23.3780    0.6690 C.3       1 DKS        -0.0263
     19 C25       -23.9350   25.3630   -0.3380 C.3       1 DKS        -0.0263
     20 C27       -24.0880   19.2140    4.0360 C.ar      1 DKS         0.0317
     21 C29       -23.0470   17.1910    4.4150 C.ar      1 DKS        -0.0102
     22 C30       -22.8860   17.4350    5.7730 C.ar      1 DKS        -0.0377
     23 F22       -20.2550   25.7990    0.0770 F         1 DKS        -0.2052
     24 F23       -21.2520   24.5410   -1.4300 F         1 DKS        -0.2052
     25 N05       -24.5410   20.8040    5.5340 N.pl3     1 DKS        -0.2589
     26 N18       -24.0850   24.3670    0.7220 N.4       1 DKS         0.2372
     27 N28       -23.6340   18.0470    3.5290 N.ar      1 DKS        -0.3232
     28 O01       -23.8850   19.9500    8.2610 O.co2     1 DKS        -0.5601
     29 O15       -25.2550   23.3370    3.0000 O.3       1 DKS        -0.3415
     30 O31       -22.4260   18.2760    8.5110 O.co2     1 DKS        -0.5601
     31 CL1       -26.8190   23.9520    6.7280 Cl        1 DKS        -0.0765
     32 H1        -30.1110   21.6170    2.8340 H         1 DKS         0.0602
     33 H2        -26.1809   24.4340    0.5952 H         1 DKS         0.0837
     34 H3        -25.3958   23.1239   -0.3503 H         1 DKS         0.0837
     35 H4        -21.5722   24.4982    1.8514 H         1 DKS         0.0375
     36 H5        -20.8399   23.2924    0.7394 H         1 DKS         0.0375
     37 H6        -22.4443   26.7461   -1.1037 H         1 DKS         0.0375
     38 H7        -22.5619   26.6982    0.6882 H         1 DKS         0.0375
     39 H8        -25.0042   20.3573    2.3157 H         1 DKS         0.0204
     40 H9        -25.3050   23.1980    5.0505 H         1 DKS         0.0982
     41 H10       -27.6432   21.5666    2.5923 H         1 DKS         0.0563
     42 H11       -31.1334   22.6721    4.8686 H         1 DKS         0.0562
     43 H12       -29.6227   23.7069    6.5798 H         1 DKS         0.0606
     44 H13       -25.0096   21.8205    1.5712 H         1 DKS         0.0618
     45 H14       -26.6837   22.4473    1.7474 H         1 DKS         0.0618
     46 H15       -23.1572   22.6418    1.4727 H         1 DKS         0.0816
     47 H16       -23.0369   22.8680   -0.3052 H         1 DKS         0.0816
     48 H17       -23.9976   24.8608   -1.3146 H         1 DKS         0.0816
     49 H18       -24.7447   26.1027   -0.2534 H         1 DKS         0.0816
     50 H19       -22.6778   16.2476    4.0292 H         1 DKS         0.0732
     51 H20       -22.4065   16.7098    6.4205 H         1 DKS         0.0619
     52 H21       -24.6152   21.3145    6.4255 H         1 DKS         0.2303
     53 H22       -24.0489   24.8382    1.6123 H         1 DKS         0.2034
@<TRIPOS>BOND
     1   14    1 ar 
     2    1   15 ar 
     3   13    2 ar 
     4    2   16 ar 
     5    2   31 1  
     6    3   17 1  
     7   26    3 1  
     8    4    5 1  
     9   18    4 1  
    10    5    6 1  
    11    5   23 1  
    12    5   24 1  
    13    6   19 1  
    14   11    7 2  
    15    7   20 1  
    16    9    8 1  
    17    8   28 ar 
    18    8   30 ar 
    19   10    9 ar 
    20    9   22 ar 
    21   10   20 ar 
    22   25   10 1  
    23   12   11 1  
    24   11   25 1  
    25   12   13 1  
    26   29   12 1  
    27   13   14 ar 
    28   16   15 ar 
    29   17   29 1  
    30   18   26 1  
    31   19   26 1  
    32   20   27 ar 
    33   22   21 ar 
    34   21   27 ar 
    35    1   32 1  
    36    3   33 1  
    37    3   34 1  
    38    4   35 1  
    39    4   36 1  
    40    6   37 1  
    41    6   38 1  
    42    7   39 1  
    43   12   40 1  
    44   14   41 1  
    45   15   42 1  
    46   16   43 1  
    47   17   44 1  
    48   17   45 1  
    49   18   46 1  
    50   18   47 1  
    51   19   48 1  
    52   19   49 1  
    53   21   50 1  
    54   22   51 1  
    55   25   52 1  
    56   26   53 1  
@<TRIPOS>SUBSTRUCTURE
     1 DKS         1

