### 
### Created by X-TOOL on Wed Jan  1 15:39:37 2020
### 

@<TRIPOS>MOLECULE
6bgx_ligand
   50    53     1     0     0
SMALL
GAST_HUCK


@<TRIPOS>ATOM
      1 C10       -24.9570   21.1370    4.0460 C.2       1 DKV         0.0902
      2 C13       -28.1770   22.0830    3.3440 C.ar      1 DKV        -0.0547
      3 C15       -29.9220   22.5630    5.0070 C.ar      1 DKV        -0.0679
      4 C17       -27.5660   23.0070    5.4480 C.ar      1 DKV         0.0463
      5 C20       -24.5060   23.2210    1.6900 C.3       1 DKV         0.0567
      6 C21       -24.6920   23.1440    0.2040 C.3       1 DKV        -0.0167
      7 C22       -23.3820   23.2100   -0.5450 C.3       1 DKV        -0.0427
      8 C24       -24.4210   21.9170   -2.4570 C.3       1 DKV         0.2490
      9 C28       -25.3950   21.7950   -0.1400 C.3       1 DKV        -0.0427
     10 C02       -23.2830   19.0390    7.7530 C.2       1 DKV         0.0666
     11 C03       -23.3800   18.6000    6.3070 C.ar      1 DKV         0.0438
     12 C04       -22.9040   17.3440    5.8960 C.ar      1 DKV        -0.0377
     13 C05       -23.0050   16.9690    4.5660 C.ar      1 DKV        -0.0102
     14 C07       -24.0250   19.0030    3.9710 C.ar      1 DKV         0.0317
     15 C08       -23.9590   19.4520    5.2980 C.ar      1 DKV         0.0993
     16 C11       -25.6390   22.5120    3.7100 C.3       1 DKV         0.1532
     17 C12       -27.1600   22.5340    4.1810 C.ar      1 DKV         0.0157
     18 C14       -29.5430   22.0860    3.7300 C.ar      1 DKV        -0.0678
     19 C16       -28.9180   23.0290    5.8750 C.ar      1 DKV        -0.0540
     20 C23       -23.6540   23.1490   -2.0600 C.3       1 DKV         0.0111
     21 C27       -25.6660   21.7090   -1.6480 C.3       1 DKV         0.0111
     22 C29       -24.6510   20.0650    3.1900 C.2       1 DKV        -0.0437
     23 F25       -23.5990   20.8040   -2.3290 F         1 DKV        -0.2057
     24 F26       -24.7220   21.9980   -3.8000 F         1 DKV        -0.2057
     25 N06       -23.5470   17.7580    3.6030 N.ar      1 DKV        -0.3232
     26 N09       -24.5270   20.7480    5.3290 N.pl3     1 DKV        -0.2589
     27 O01       -23.9850   20.0310    8.1680 O.co2     1 DKV        -0.5601
     28 O19       -25.6740   22.6400    2.2990 O.3       1 DKV        -0.3465
     29 O30       -22.5300   18.4490    8.5190 O.co2     1 DKV        -0.5601
     30 CL1       -26.3450   23.6100    6.5930 Cl        1 DKV        -0.0765
     31 H1        -27.9153   21.7150    2.3585 H         1 DKV         0.0563
     32 H2        -30.9629   22.5692    5.3097 H         1 DKV         0.0562
     33 H3        -24.4015   24.2705    2.0023 H         1 DKV         0.0567
     34 H4        -23.6081   22.6590    1.9865 H         1 DKV         0.0567
     35 H5        -25.3268   23.9827   -0.1177 H         1 DKV         0.0323
     36 H6        -22.7485   22.3600   -0.2516 H         1 DKV         0.0270
     37 H7        -22.8677   24.1516   -0.3023 H         1 DKV         0.0270
     38 H8        -26.3486   21.7328    0.4048 H         1 DKV         0.0270
     39 H9        -24.7456   20.9596    0.1608 H         1 DKV         0.0270
     40 H10       -22.4584   16.6693    6.6181 H         1 DKV         0.0619
     41 H11       -22.6311   15.9929    4.2787 H         1 DKV         0.0732
     42 H12       -25.0785   23.3374    4.1733 H         1 DKV         0.0982
     43 H13       -30.2987   21.7214    3.0437 H         1 DKV         0.0602
     44 H14       -29.1752   23.4011    6.8601 H         1 DKV         0.0606
     45 H15       -22.6912   23.1521   -2.5920 H         1 DKV         0.0323
     46 H16       -24.2362   24.0360   -2.3502 H         1 DKV         0.0323
     47 H17       -26.0770   20.7150   -1.8784 H         1 DKV         0.0323
     48 H18       -26.3998   22.4816   -1.9212 H         1 DKV         0.0323
     49 H19       -24.8486   20.0323    2.1196 H         1 DKV         0.0204
     50 H20       -24.6140   21.3281    6.1756 H         1 DKV         0.2303
@<TRIPOS>BOND
     1   16    1 1  
     2    1   22 2  
     3    1   26 1  
     4   17    2 ar 
     5    2   18 ar 
     6   18    3 ar 
     7   19    3 ar 
     8   17    4 ar 
     9    4   19 ar 
    10    4   30 1  
    11    5    6 1  
    12   28    5 1  
    13    6    7 1  
    14    6    9 1  
    15    7   20 1  
    16   20    8 1  
    17   21    8 1  
    18    8   23 1  
    19    8   24 1  
    20    9   21 1  
    21   11   10 1  
    22   10   27 ar 
    23   10   29 ar 
    24   11   12 ar 
    25   15   11 ar 
    26   12   13 ar 
    27   25   13 ar 
    28   15   14 ar 
    29   22   14 1  
    30   14   25 ar 
    31   26   15 1  
    32   16   17 1  
    33   16   28 1  
    34    2   31 1  
    35    3   32 1  
    36    5   33 1  
    37    5   34 1  
    38    6   35 1  
    39    7   36 1  
    40    7   37 1  
    41    9   38 1  
    42    9   39 1  
    43   12   40 1  
    44   13   41 1  
    45   16   42 1  
    46   18   43 1  
    47   19   44 1  
    48   20   45 1  
    49   20   46 1  
    50   21   47 1  
    51   21   48 1  
    52   22   49 1  
    53   26   50 1  
@<TRIPOS>SUBSTRUCTURE
     1 DKV         1

