### 
### Created by X-TOOL on Wed Jan  1 15:39:35 2020
### 

@<TRIPOS>MOLECULE
6bgy_ligand
   50    53     1     0     0
SMALL
GAST_HUCK


@<TRIPOS>ATOM
      1 C10       -24.2860   23.2290    1.9270 C.3       1 DLJ         0.0561
      2 C15       -25.7280   22.3310   -2.6010 C.2       1 DLJ        -0.0173
      3 C17       -25.4340   21.5090   -0.4760 C.3       1 DLJ        -0.0230
      4 C20       -24.7580   20.2150    3.2640 C.2       1 DLJ        -0.0437
      5 C21       -24.1750   19.1560    3.9900 C.ar      1 DLJ         0.0317
      6 C22       -24.1080   19.5610    5.3320 C.ar      1 DLJ         0.0993
      7 C24       -23.4760   19.1740    7.7270 C.2       1 DLJ         0.0666
      8 C28       -23.2400   17.1380    4.5230 C.ar      1 DLJ        -0.0102
      9 C02       -27.6220   23.0350    5.4390 C.ar      1 DLJ         0.0463
     10 C03       -28.9800   23.0740    5.7520 C.ar      1 DLJ        -0.0540
     11 C04       -29.8690   22.6040    4.8060 C.ar      1 DLJ        -0.0679
     12 C05       -29.3940   22.1130    3.5670 C.ar      1 DLJ        -0.0678
     13 C06       -28.0150   22.0550    3.3000 C.ar      1 DLJ        -0.0547
     14 C07       -27.1080   22.5470    4.2460 C.ar      1 DLJ         0.0157
     15 C08       -25.6090   22.5690    3.9250 C.3       1 DLJ         0.1531
     16 C11       -24.5980   23.7890    0.5190 C.3       1 DLJ        -0.0053
     17 C12       -24.5150   22.7040   -0.6450 C.3       1 DLJ         0.0407
     18 C14       -25.2070   24.7300   -2.0730 C.3       1 DLJ         0.0132
     19 C16       -25.7700   21.1770   -1.8930 C.2       1 DLJ        -0.0919
     20 C18       -24.9860   21.2360    4.1700 C.2       1 DLJ         0.0902
     21 C23       -23.5760   18.7210    6.2910 C.ar      1 DLJ         0.0438
     22 C27       -23.1310   17.4610    5.8760 C.ar      1 DLJ        -0.0377
     23 N13       -24.9830   23.2900   -1.9280 N.pl3     1 DLJ        -0.3238
     24 N19       -24.6170   20.8350    5.3960 N.pl3     1 DLJ        -0.2589
     25 N29       -23.7650   17.9430    3.5910 N.ar      1 DLJ        -0.3232
     26 O09       -25.5720   22.8320    2.5230 O.3       1 DLJ        -0.3467
     27 O25       -24.1600   20.1630    8.0720 O.co2     1 DLJ        -0.5601
     28 O26       -22.7110   18.5430    8.4770 O.co2     1 DLJ        -0.5601
     29 CL1       -26.4760   23.6030    6.6410 Cl        1 DLJ        -0.0765
     30 H1        -23.8058   24.0027    2.5441 H         1 DLJ         0.0565
     31 H2        -23.6201   22.3570    1.8484 H         1 DLJ         0.0565
     32 H3        -26.2115   22.4852   -3.5645 H         1 DLJ         0.0749
     33 H4        -26.3345   21.7745    0.0972 H         1 DLJ         0.0364
     34 H5        -24.9173   20.6736    0.0191 H         1 DLJ         0.0364
     35 H6        -24.9845   20.2271    2.1989 H         1 DLJ         0.0204
     36 H7        -22.8744   16.1685    4.2046 H         1 DLJ         0.0732
     37 H8        -29.3256   23.4597    6.7043 H         1 DLJ         0.0606
     38 H9        -30.9330   22.6112    5.0129 H         1 DLJ         0.0562
     39 H10       -30.1005   21.7782    2.8161 H         1 DLJ         0.0602
     40 H11       -27.6566   21.6324    2.3683 H         1 DLJ         0.0563
     41 H12       -25.0878   23.3469    4.5022 H         1 DLJ         0.0982
     42 H13       -23.8764   24.5891    0.2976 H         1 DLJ         0.0311
     43 H14       -25.6158   24.2060    0.5307 H         1 DLJ         0.0311
     44 H15       -23.4721   22.3640   -0.7275 H         1 DLJ         0.0565
     45 H16       -25.5489   24.9467   -3.0958 H         1 DLJ         0.0477
     46 H17       -24.2678   25.2686   -1.8785 H         1 DLJ         0.0477
     47 H18       -25.9726   25.0563   -1.3537 H         1 DLJ         0.0477
     48 H19       -26.0055   20.1886   -2.2849 H         1 DLJ         0.0263
     49 H20       -22.7134   16.7558    6.5855 H         1 DLJ         0.0619
     50 H21       -24.7025   21.3972    6.2548 H         1 DLJ         0.2303
@<TRIPOS>BOND
     1   16    1 1  
     2    1   26 1  
     3   19    2 2  
     4    2   23 1  
     5   17    3 1  
     6    3   19 1  
     7    4    5 1  
     8   20    4 2  
     9    5    6 ar 
    10    5   25 ar 
    11    6   21 ar 
    12    6   24 1  
    13   21    7 1  
    14    7   27 ar 
    15    7   28 ar 
    16    8   22 ar 
    17   25    8 ar 
    18    9   10 ar 
    19   14    9 ar 
    20    9   29 1  
    21   10   11 ar 
    22   12   11 ar 
    23   13   12 ar 
    24   14   13 ar 
    25   15   14 1  
    26   15   20 1  
    27   26   15 1  
    28   16   17 1  
    29   17   23 1  
    30   23   18 1  
    31   20   24 1  
    32   21   22 ar 
    33    1   30 1  
    34    1   31 1  
    35    2   32 1  
    36    3   33 1  
    37    3   34 1  
    38    4   35 1  
    39    8   36 1  
    40   10   37 1  
    41   11   38 1  
    42   12   39 1  
    43   13   40 1  
    44   15   41 1  
    45   16   42 1  
    46   16   43 1  
    47   17   44 1  
    48   18   45 1  
    49   18   46 1  
    50   18   47 1  
    51   19   48 1  
    52   22   49 1  
    53   24   50 1  
@<TRIPOS>SUBSTRUCTURE
     1 DLJ         1

