### 
### Created by X-TOOL on Wed Jan  1 15:39:36 2020
### 

@<TRIPOS>MOLECULE
6bgz_ligand
   47    50     1     0     0
SMALL
GAST_HUCK


@<TRIPOS>ATOM
      1 C10       -25.4990   24.2290    2.2720 C.3       1 DNV         0.0692
      2 C15       -28.3480   21.9550   -0.2850 C.2       1 DNV         0.0276
      3 C17       -25.8800   21.5190   -0.3990 C.3       1 DNV         0.0462
      4 C20       -24.7180   20.2040    3.3330 C.2       1 DNV        -0.0437
      5 C21       -24.1320   19.1160    4.0320 C.ar      1 DNV         0.0317
      6 C22       -24.0460   19.5110    5.3470 C.ar      1 DNV         0.0993
      7 C24       -23.3940   19.0470    7.7520 C.2       1 DNV         0.0666
      8 C28       -23.1890   17.0600    4.5170 C.ar      1 DNV        -0.0102
      9 C02       -27.5860   22.9910    5.4620 C.ar      1 DNV         0.0463
     10 C03       -28.9450   22.9590    5.7410 C.ar      1 DNV        -0.0540
     11 C04       -29.8190   22.4480    4.8040 C.ar      1 DNV        -0.0679
     12 C05       -29.3420   21.9750    3.6010 C.ar      1 DNV        -0.0678
     13 C06       -27.9860   22.0080    3.3290 C.ar      1 DNV        -0.0547
     14 C07       -27.0770   22.5230    4.2560 C.ar      1 DNV         0.0157
     15 C08       -25.5770   22.5680    3.9630 C.3       1 DNV         0.1534
     16 C18       -24.9520   21.2060    4.2570 C.2       1 DNV         0.0902
     17 C23       -23.5080   18.6440    6.2860 C.ar      1 DNV         0.0438
     18 C27       -23.0840   17.4180    5.8540 C.ar      1 DNV        -0.0377
     19 N19       -24.5530   20.7770    5.4390 N.pl3     1 DNV        -0.2589
     20 N29       -23.7100   17.8940    3.6000 N.ar      1 DNV        -0.3232
     21 O09       -25.3950   22.8670    2.5770 O.3       1 DNV        -0.3442
     22 O25       -22.6800   18.3700    8.5360 O.co2     1 DNV        -0.5601
     23 O26       -24.0140   20.0570    8.1750 O.co2     1 DNV        -0.5601
     24 CL1       -26.4860   23.6550    6.6970 Cl        1 DNV        -0.0765
     25 C11       -25.8460   24.3620    0.7930 C.3       1 DNV         0.0473
     26 C12       -27.0620   23.5850    0.4320 C.2       1 DNV         0.1159
     27 C14       -29.1090   23.0100    0.1350 C.2       1 DNV        -0.0366
     28 N13       -28.3190   24.0200    0.5810 N.2       1 DNV        -0.3389
     29 N16       -27.0530   22.3190   -0.0970 N.pl3     1 DNV        -0.2533
     30 H1        -24.5414   24.7303    2.4761 H         1 DNV         0.0593
     31 H2        -26.2906   24.6878    2.8827 H         1 DNV         0.0593
     32 H3        -28.7084   21.0105   -0.6898 H         1 DNV         0.0796
     33 H4        -26.1941   20.5495   -0.8130 H         1 DNV         0.0581
     34 H5        -25.3014   21.3543    0.5219 H         1 DNV         0.0581
     35 H6        -25.2556   22.0469   -1.1348 H         1 DNV         0.0581
     36 H7        -24.9415   20.2423    2.2679 H         1 DNV         0.0204
     37 H8        -22.8417   16.0820    4.2038 H         1 DNV         0.0732
     38 H9        -29.3170   23.3327    6.6881 H         1 DNV         0.0606
     39 H10       -30.8820   22.4186    5.0143 H         1 DNV         0.0562
     40 H11       -30.0312   21.5759    2.8656 H         1 DNV         0.0602
     41 H12       -27.6230   21.6279    2.3809 H         1 DNV         0.0563
     42 H13       -25.0976   23.3403    4.5824 H         1 DNV         0.0983
     43 H14       -22.6607   16.7170    6.5643 H         1 DNV         0.0619
     44 H15       -24.6150   21.3212    6.3113 H         1 DNV         0.2303
     45 H16       -24.9992   23.9936    0.1954 H         1 DNV         0.0520
     46 H17       -26.0222   25.4233    0.5639 H         1 DNV         0.0520
     47 H18       -30.1975   23.0366    0.1147 H         1 DNV         0.0408
@<TRIPOS>BOND
     1    1   21 1  
     2   25    1 1  
     3    2   27 2  
     4   29    2 1  
     5   29    3 1  
     6    4    5 1  
     7   16    4 2  
     8    6    5 ar 
     9    5   20 ar 
    10    6   17 ar 
    11   19    6 1  
    12   17    7 1  
    13    7   22 ar 
    14    7   23 ar 
    15   18    8 ar 
    16   20    8 ar 
    17    9   10 ar 
    18   14    9 ar 
    19    9   24 1  
    20   10   11 ar 
    21   12   11 ar 
    22   13   12 ar 
    23   14   13 ar 
    24   15   14 1  
    25   15   16 1  
    26   21   15 1  
    27   16   19 1  
    28   17   18 ar 
    29   26   25 1  
    30   26   28 2  
    31   26   29 1  
    32   27   28 1  
    33    1   30 1  
    34    1   31 1  
    35    2   32 1  
    36    3   33 1  
    37    3   34 1  
    38    3   35 1  
    39    4   36 1  
    40    8   37 1  
    41   10   38 1  
    42   11   39 1  
    43   12   40 1  
    44   13   41 1  
    45   15   42 1  
    46   18   43 1  
    47   19   44 1  
    48   25   45 1  
    49   25   46 1  
    50   27   47 1  
@<TRIPOS>SUBSTRUCTURE
     1 DNV         1

