### 
### Created by X-TOOL on Wed Jan  1 15:39:36 2020
### 

@<TRIPOS>MOLECULE
6bh0_ligand
   53    56     1     0     0
SMALL
GAST_HUCK


@<TRIPOS>ATOM
      1 C10       -27.7750   23.7270    6.8660 C.ar      1 DO1        -0.0678
      2 C13       -27.9670   22.5000    4.4050 C.ar      1 DO1         0.0463
      3 C17       -23.7890   25.8140    3.1300 C.3       1 DO1        -0.0074
      4 C20       -22.6400   25.2430    0.5060 C.3       1 DO1        -0.0123
      5 C21       -21.5240   26.2440    0.5000 C.3       1 DO1        -0.0434
      6 C24       -21.4250   26.9370    1.8260 C.3       1 DO1        -0.0123
      7 C26       -24.7670   20.3410    3.2360 C.2       1 DO1        -0.0437
      8 C02       -23.3500   19.1470    7.7310 C.2       1 DO1         0.0666
      9 C03       -23.5260   18.7870    6.2960 C.ar      1 DO1         0.0438
     10 C04       -24.0600   19.6730    5.3550 C.ar      1 DO1         0.0993
     11 C06       -24.9630   21.4360    4.2460 C.2       1 DO1         0.0902
     12 C07       -25.4600   22.6660    4.0320 C.3       1 DO1         0.1534
     13 C08       -26.7120   22.8880    4.8530 C.ar      1 DO1         0.0157
     14 C09       -26.6450   23.5040    6.0950 C.ar      1 DO1        -0.0547
     15 C11       -29.0160   23.3280    6.3970 C.ar      1 DO1        -0.0679
     16 C12       -29.1110   22.7120    5.1600 C.ar      1 DO1        -0.0540
     17 C16       -24.9810   24.9470    3.4030 C.3       1 DO1         0.0937
     18 C19       -22.5580   24.3060    1.7110 C.3       1 DO1        -0.0318
     19 C25       -21.3830   25.9410    2.9860 C.3       1 DO1        -0.0318
     20 C27       -24.1860   19.2620    4.0570 C.ar      1 DO1         0.0317
     21 C29       -23.3110   17.1900    4.5270 C.ar      1 DO1        -0.0102
     22 C30       -23.1430   17.5170    5.8690 C.ar      1 DO1        -0.0377
     23 N05       -24.5240   20.9830    5.4750 N.pl3     1 DO1        -0.2589
     24 N18       -22.5420   25.0490    2.9720 N.4       1 DO1         0.2369
     25 N28       -23.8190   18.0350    3.6340 N.ar      1 DO1        -0.3232
     26 O01       -24.0080   20.1050    8.2160 O.co2     1 DO1        -0.5601
     27 O15       -24.5860   23.7890    4.1830 O.3       1 DO1        -0.3415
     28 O31       -22.5510   18.5010    8.4560 O.co2     1 DO1        -0.5601
     29 CL1       -28.1430   21.7250    2.8690 Cl        1 DO1        -0.0765
     30 H1        -27.6881   24.2115    7.8318 H         1 DO1         0.0602
     31 H2        -23.6660   26.5142    3.9694 H         1 DO1         0.0837
     32 H3        -23.9722   26.3795    2.2045 H         1 DO1         0.0837
     33 H4        -22.5854   24.6438   -0.4148 H         1 DO1         0.0317
     34 H5        -23.5994   25.7801    0.5377 H         1 DO1         0.0317
     35 H6        -21.7138   26.9914   -0.2845 H         1 DO1         0.0269
     36 H7        -20.5760   25.7264    0.2917 H         1 DO1         0.0269
     37 H8        -22.2993   27.5926    1.9512 H         1 DO1         0.0317
     38 H9        -20.5070   27.5427    1.8435 H         1 DO1         0.0317
     39 H10       -24.9953   20.3433    2.1712 H         1 DO1         0.0204
     40 H11       -25.7646   22.6732    2.9751 H         1 DO1         0.0982
     41 H12       -25.6797   23.8203    6.4734 H         1 DO1         0.0563
     42 H13       -29.9055   23.4965    6.9932 H         1 DO1         0.0562
     43 H14       -30.0771   22.3964    4.7829 H         1 DO1         0.0606
     44 H15       -25.4141   24.6126    2.4488 H         1 DO1         0.0618
     45 H16       -25.7307   25.5248    3.9634 H         1 DO1         0.0618
     46 H17       -21.6370   23.7091    1.6369 H         1 DO1         0.0814
     47 H18       -23.4307   23.6364    1.7024 H         1 DO1         0.0814
     48 H19       -21.3727   26.4979    3.9345 H         1 DO1         0.0814
     49 H20       -20.4670   25.3373    2.9052 H         1 DO1         0.0814
     50 H21       -23.0145   16.2019    4.1941 H         1 DO1         0.0732
     51 H22       -22.7239   16.8005    6.5661 H         1 DO1         0.0619
     52 H23       -24.5373   21.5298    6.3478 H         1 DO1         0.2303
     53 H24       -22.4631   24.3973    3.7369 H         1 DO1         0.2034
@<TRIPOS>BOND
     1   14    1 ar 
     2    1   15 ar 
     3   13    2 ar 
     4    2   16 ar 
     5    2   29 1  
     6    3   17 1  
     7   24    3 1  
     8    4    5 1  
     9   18    4 1  
    10    5    6 1  
    11    6   19 1  
    12   11    7 2  
    13    7   20 1  
    14    9    8 1  
    15    8   26 ar 
    16    8   28 ar 
    17   10    9 ar 
    18    9   22 ar 
    19   10   20 ar 
    20   23   10 1  
    21   12   11 1  
    22   11   23 1  
    23   12   13 1  
    24   27   12 1  
    25   13   14 ar 
    26   16   15 ar 
    27   17   27 1  
    28   18   24 1  
    29   19   24 1  
    30   20   25 ar 
    31   22   21 ar 
    32   21   25 ar 
    33    1   30 1  
    34    3   31 1  
    35    3   32 1  
    36    4   33 1  
    37    4   34 1  
    38    5   35 1  
    39    5   36 1  
    40    6   37 1  
    41    6   38 1  
    42    7   39 1  
    43   12   40 1  
    44   14   41 1  
    45   15   42 1  
    46   16   43 1  
    47   17   44 1  
    48   17   45 1  
    49   18   46 1  
    50   18   47 1  
    51   19   48 1  
    52   19   49 1  
    53   21   50 1  
    54   22   51 1  
    55   23   52 1  
    56   24   53 1  
@<TRIPOS>SUBSTRUCTURE
     1 DO1         1

