### 
### Created by X-TOOL on Wed Jan  1 15:39:35 2020
### 

@<TRIPOS>MOLECULE
6bh1_ligand
   53    56     1     0     0
SMALL
GAST_HUCK


@<TRIPOS>ATOM
      1 C10       -29.1370   22.0430    3.6580 C.ar      1 DQG        -0.0678
      2 C13       -27.3900   23.0450    5.5440 C.ar      1 DQG         0.0463
      3 C17       -25.1390   24.9050    1.2210 C.3       1 DQG        -0.0074
      4 C20       -21.4960   23.9890    0.7180 C.3       1 DQG        -0.0123
      5 C21       -21.1170   25.3760    0.3030 C.3       1 DQG        -0.0434
      6 C24       -22.0750   25.8930   -0.7260 C.3       1 DQG        -0.0123
      7 C26       -24.5830   20.2200    3.2500 C.2       1 DQG        -0.0437
      8 C02       -23.1890   19.0720    7.7300 C.2       1 DQG         0.0666
      9 C03       -23.3220   18.7000    6.2840 C.ar      1 DQG         0.0438
     10 C04       -23.8730   19.5590    5.3600 C.ar      1 DQG         0.0993
     11 C06       -24.8450   21.2800    4.2740 C.2       1 DQG         0.0902
     12 C16       -25.4640   24.4380    2.6160 C.3       1 DQG         0.0937
     13 C19       -23.0150   23.8220    0.7880 C.3       1 DQG        -0.0318
     14 C25       -23.5100   25.9510   -0.2010 C.3       1 DQG        -0.0318
     15 C27       -23.9700   19.1600    4.0520 C.ar      1 DQG         0.0317
     16 C29       -23.0290   17.1070    4.5040 C.ar      1 DQG        -0.0102
     17 C30       -22.8880   17.4400    5.8570 C.ar      1 DQG        -0.0377
     18 N05       -24.3850   20.8440    5.4950 N.pl3     1 DQG        -0.2589
     19 N18       -23.6940   25.1060    0.9920 N.4       1 DQG         0.2369
     20 N28       -23.5600   17.9500    3.6140 N.ar      1 DQG        -0.3232
     21 O01       -23.8410   20.0530    8.1870 O.co2     1 DQG        -0.5601
     22 O15       -25.1630   23.0300    2.7380 O.3       1 DQG        -0.3415
     23 O31       -22.4430   18.4280    8.4940 O.co2     1 DQG        -0.5601
     24 C07       -25.3650   22.4870    4.0530 C.3       1 DQG         0.1534
     25 C08       -26.8550   22.5020    4.3610 C.ar      1 DQG         0.0157
     26 C09       -27.7720   22.0190    3.4280 C.ar      1 DQG        -0.0547
     27 C11       -29.6320   22.5810    4.8300 C.ar      1 DQG        -0.0679
     28 C12       -28.7530   23.0830    5.7800 C.ar      1 DQG        -0.0540
     29 CL1       -26.3630   23.6820    6.7780 Cl        1 DQG        -0.0765
     30 H1        -29.8180   21.6392    2.9176 H         1 DQG         0.0602
     31 H2        -25.6563   25.8594    1.0433 H         1 DQG         0.0837
     32 H3        -25.5037   24.1517    0.5072 H         1 DQG         0.0837
     33 H4        -21.0674   23.7826    1.7098 H         1 DQG         0.0317
     34 H5        -21.0908   23.2736   -0.0127 H         1 DQG         0.0317
     35 H6        -20.1020   25.3630   -0.1208 H         1 DQG         0.0269
     36 H7        -21.1387   26.0362    1.1825 H         1 DQG         0.0269
     37 H8        -22.0451   25.2297   -1.6030 H         1 DQG         0.0317
     38 H9        -21.7647   26.9060   -1.0217 H         1 DQG         0.0317
     39 H10       -24.7944   20.2339    2.1818 H         1 DQG         0.0204
     40 H11       -26.5327   24.6027    2.8176 H         1 DQG         0.0618
     41 H12       -24.8624   25.0052    3.3415 H         1 DQG         0.0618
     42 H13       -23.2616   23.1517    1.6246 H         1 DQG         0.0814
     43 H14       -23.3684   23.3778   -0.1542 H         1 DQG         0.0814
     44 H15       -24.1919   25.6037   -0.9911 H         1 DQG         0.0814
     45 H16       -23.7512   26.9920    0.0601 H         1 DQG         0.0814
     46 H17       -22.6959   16.1319    4.1674 H         1 DQG         0.0732
     47 H18       -22.4523   16.7373    6.5580 H         1 DQG         0.0619
     48 H19       -24.4153   21.3847    6.3712 H         1 DQG         0.2303
     49 H20       -23.2933   25.5666    1.7941 H         1 DQG         0.2034
     50 H21       -24.8694   23.1707    4.7580 H         1 DQG         0.0982
     51 H22       -27.4044   21.6119    2.4930 H         1 DQG         0.0563
     52 H23       -30.7010   22.6110    5.0070 H         1 DQG         0.0562
     53 H24       -29.1332   23.5035    6.7039 H         1 DQG         0.0606
@<TRIPOS>BOND
     1   26    1 ar 
     2    1   27 ar 
     3   25    2 ar 
     4    2   28 ar 
     5    2   29 1  
     6   12    3 1  
     7    3   19 1  
     8    4    5 1  
     9   13    4 1  
    10    6    5 1  
    11   14    6 1  
    12   11    7 2  
    13    7   15 1  
    14    9    8 1  
    15    8   21 ar 
    16    8   23 ar 
    17   10    9 ar 
    18    9   17 ar 
    19   10   15 ar 
    20   18   10 1  
    21   11   18 1  
    22   24   11 1  
    23   22   12 1  
    24   19   13 1  
    25   19   14 1  
    26   15   20 ar 
    27   17   16 ar 
    28   20   16 ar 
    29   24   22 1  
    30   25   24 1  
    31   25   26 ar 
    32   27   28 ar 
    33    1   30 1  
    34    3   31 1  
    35    3   32 1  
    36    4   33 1  
    37    4   34 1  
    38    5   35 1  
    39    5   36 1  
    40    6   37 1  
    41    6   38 1  
    42    7   39 1  
    43   12   40 1  
    44   12   41 1  
    45   13   42 1  
    46   13   43 1  
    47   14   44 1  
    48   14   45 1  
    49   16   46 1  
    50   17   47 1  
    51   18   48 1  
    52   19   49 1  
    53   24   50 1  
    54   26   51 1  
    55   27   52 1  
    56   28   53 1  
@<TRIPOS>SUBSTRUCTURE
     1 DQG         1

