### 
### Created by X-TOOL on Wed Jan  1 15:39:36 2020
### 

@<TRIPOS>MOLECULE
6bh2_ligand
   43    45     1     0     0
SMALL
GAST_HUCK


@<TRIPOS>ATOM
      1 C4        -20.6660   20.2870    1.8100 C.2       1 90V         0.0715
      2 C14       -21.6470   18.9230    7.5620 C.3       1 90V        -0.0076
      3 C5        -21.1960   20.1770    3.1100 C.2       1 90V        -0.0324
      4 C6        -22.0610   19.0560    3.0780 C.2       1 90V         0.0943
      5 C10       -22.9450   18.4190    4.1210 C.2       1 90V         0.2094
      6 C13       -21.5970   19.3810    6.0740 C.3       1 90V         0.0357
      7 C3        -18.3830   20.5460    0.8000 C.3       1 90V        -0.0491
      8 C1        -20.3060   21.9910   -0.0070 C.3       1 90V        -0.0491
      9 C15       -23.1670   18.6520    7.8070 C.3       1 90V         0.0641
     10 C17       -23.5360   18.0130    6.4760 C.3       1 90V         0.0564
     11 C19       -24.2730   20.3250    9.2330 C.2       1 90V         0.1794
     12 C2        -19.6860   21.2630    1.2070 C.3       1 90V         0.0157
     13 C21       -25.0420   21.6220    9.2780 C.3       1 90V         0.0489
     14 C22       -24.8060   22.5350   10.4850 C.3       1 90V        -0.0309
     15 C23       -26.1070   21.7330   10.3740 C.3       1 90V        -0.0309
     16 N12       -22.6890   18.6070    5.4330 N.am      1 90V        -0.2702
     17 N18       -23.9210   19.8830    8.0200 N.am      1 90V        -0.2817
     18 N7        -22.0250   18.5820    1.8200 N.2       1 90V        -0.2073
     19 N9        -21.1800   19.3230    1.0650 N.pl3     1 90V        -0.2132
     20 O11       -23.8670   17.7640    3.7530 O.2       1 90V        -0.3854
     21 O20       -23.9790   19.7000   10.2510 O.2       1 90V        -0.3968
     22 H1        -21.2756   19.7141    8.2300 H         1 90V         0.0308
     23 H2        -21.0549   18.0082    7.7124 H         1 90V         0.0308
     24 H3        -20.9846   20.8203    3.9629 H         1 90V         0.0273
     25 H4        -20.6248   19.1375    5.6207 H         1 90V         0.0523
     26 H5        -21.7804   20.4623    5.9896 H         1 90V         0.0523
     27 H6        -17.6843   21.2750    0.3636 H         1 90V         0.0258
     28 H7        -18.6099   19.7662    0.0582 H         1 90V         0.0258
     29 H8        -17.9252   20.0855    1.6878 H         1 90V         0.0258
     30 H9        -21.2331   22.4957    0.3024 H         1 90V         0.0258
     31 H10       -20.5328   21.2595   -0.7966 H         1 90V         0.0258
     32 H11       -19.5936   22.7360   -0.3909 H         1 90V         0.0258
     33 H12       -23.3288   17.9682    8.6533 H         1 90V         0.0577
     34 H13       -24.5952   18.2063    6.2507 H         1 90V         0.0545
     35 H14       -23.3632   16.9277    6.5230 H         1 90V         0.0545
     36 H15       -19.4401   22.0165    1.9697 H         1 90V         0.0502
     37 H16       -25.2010   22.0324    8.2699 H         1 90V         0.0538
     38 H17       -24.8211   23.6277   10.3594 H         1 90V         0.0294
     39 H18       -24.0553   22.2633   11.2417 H         1 90V         0.0294
     40 H19       -26.2901   20.8855   11.0509 H         1 90V         0.0294
     41 H20       -27.0560   22.2499   10.1685 H         1 90V         0.0294
     42 H21       -24.1875   20.4222    7.2211 H         1 90V         0.1855
     43 H22       -20.9710   19.1616    0.0694 H         1 90V         0.2576
@<TRIPOS>BOND
     1    3    1 2  
     2    1   12 1  
     3    1   19 1  
     4    2    6 1  
     5    9    2 1  
     6    4    3 1  
     7    5    4 1  
     8    4   18 2  
     9   16    5 am 
    10    5   20 2  
    11   16    6 1  
    12   12    7 1  
    13   12    8 1  
    14    9   10 1  
    15   17    9 1  
    16   10   16 1  
    17   11   13 1  
    18   11   17 am 
    19   11   21 2  
    20   13   14 1  
    21   13   15 1  
    22   14   15 1  
    23   18   19 1  
    24    2   22 1  
    25    2   23 1  
    26    3   24 1  
    27    6   25 1  
    28    6   26 1  
    29    7   27 1  
    30    7   28 1  
    31    7   29 1  
    32    8   30 1  
    33    8   31 1  
    34    8   32 1  
    35    9   33 1  
    36   10   34 1  
    37   10   35 1  
    38   12   36 1  
    39   13   37 1  
    40   14   38 1  
    41   14   39 1  
    42   15   40 1  
    43   15   41 1  
    44   17   42 1  
    45   19   43 1  
@<TRIPOS>SUBSTRUCTURE
     1 90V         1

