### 
### Created by X-TOOL on Wed Jan  1 15:39:37 2020
### 

@<TRIPOS>MOLECULE
6bh3_ligand
   43    45     1     0     0
SMALL
GAST_HUCK


@<TRIPOS>ATOM
      1 C02       -22.8170   16.8680    4.0640 C.2       1 DQJ         0.2094
      2 C03       -22.0220   17.6740    3.0640 C.2       1 DQJ         0.0943
      3 C04       -21.1590   18.7890    3.1900 C.2       1 DQJ        -0.0324
      4 C05       -20.7210   19.0850    1.8830 C.2       1 DQJ         0.0715
      5 C06       -19.7950   20.1530    1.3530 C.3       1 DQJ         0.0157
      6 C07       -18.3560   19.6130    1.2070 C.3       1 DQJ        -0.0491
      7 C08       -20.3130   20.7140    0.0080 C.3       1 DQJ        -0.0491
      8 C12       -23.4610   16.2900    6.3640 C.3       1 DQJ         0.0357
      9 C13       -22.7610   16.5700    7.7300 C.3       1 DQJ        -0.0076
     10 C14       -22.2700   18.0500    7.5810 C.3       1 DQJ         0.0641
     11 C16       -23.8680   19.1930    9.0270 C.2       1 DQJ         0.1794
     12 C17       -25.0080   20.1760    9.1310 C.3       1 DQJ         0.0489
     13 C18       -25.1330   20.9710   10.4350 C.3       1 DQJ        -0.0309
     14 C19       -26.1040   19.8230   10.1420 C.3       1 DQJ        -0.0309
     15 C21       -21.8360   18.0490    6.1200 C.3       1 DQJ         0.0564
     16 N09       -21.2760   18.2220    1.0510 N.pl3     1 DQJ        -0.2132
     17 N10       -22.0590   17.3700    1.7520 N.2       1 DQJ        -0.2073
     18 N11       -22.6810   17.0890    5.3920 N.am      1 DQJ        -0.2702
     19 N15       -23.3770   18.9790    7.7960 N.am      1 DQJ        -0.2817
     20 O01       -23.5590   16.0370    3.6480 O.2       1 DQJ        -0.3854
     21 O20       -23.4070   18.6190   10.0130 O.2       1 DQJ        -0.3968
     22 H1        -20.8891   19.3105    4.1071 H         1 DQJ         0.0273
     23 H2        -19.7761   20.9778    2.0805 H         1 DQJ         0.0502
     24 H3        -17.7031   20.4092    0.8200 H         1 DQJ         0.0258
     25 H4        -18.3522   18.7637    0.5080 H         1 DQJ         0.0258
     26 H5        -17.9874   19.2815    2.1889 H         1 DQJ         0.0258
     27 H6        -21.3379   21.0916    0.1386 H         1 DQJ         0.0258
     28 H7        -20.3102   19.9150   -0.7480 H         1 DQJ         0.0258
     29 H8        -19.6594   21.5344   -0.3232 H         1 DQJ         0.0258
     30 H9        -24.5104   16.6188    6.3877 H         1 DQJ         0.0523
     31 H10       -23.4176   15.2196    6.1145 H         1 DQJ         0.0523
     32 H11       -21.9133   15.8867    7.8867 H         1 DQJ         0.0308
     33 H12       -23.4705   16.4716    8.5648 H         1 DQJ         0.0308
     34 H13       -21.4386   18.2850    8.2618 H         1 DQJ         0.0577
     35 H14       -25.2398   20.6309    8.1567 H         1 DQJ         0.0538
     36 H15       -25.4890   22.0116   10.4128 H         1 DQJ         0.0294
     37 H16       -24.3721   20.8605   11.2216 H         1 DQJ         0.0294
     38 H17       -26.0403   18.8882   10.7183 H         1 DQJ         0.0294
     39 H18       -27.1571   20.0393    9.9094 H         1 DQJ         0.0294
     40 H19       -20.7806   17.7483    6.0449 H         1 DQJ         0.0545
     41 H20       -21.9619   19.0549    5.6931 H         1 DQJ         0.0545
     42 H21       -21.1351   18.2011    0.0309 H         1 DQJ         0.2576
     43 H22       -23.7743   19.4619    7.0157 H         1 DQJ         0.1855
@<TRIPOS>BOND
     1    1    2 1  
     2   18    1 am 
     3    1   20 2  
     4    2    3 1  
     5    2   17 2  
     6    3    4 2  
     7    4    5 1  
     8    4   16 1  
     9    5    6 1  
    10    5    7 1  
    11    9    8 1  
    12    8   18 1  
    13   10    9 1  
    14   10   15 1  
    15   19   10 1  
    16   11   12 1  
    17   11   19 am 
    18   11   21 2  
    19   12   13 1  
    20   12   14 1  
    21   13   14 1  
    22   15   18 1  
    23   16   17 1  
    24    3   22 1  
    25    5   23 1  
    26    6   24 1  
    27    6   25 1  
    28    6   26 1  
    29    7   27 1  
    30    7   28 1  
    31    7   29 1  
    32    8   30 1  
    33    8   31 1  
    34    9   32 1  
    35    9   33 1  
    36   10   34 1  
    37   12   35 1  
    38   13   36 1  
    39   13   37 1  
    40   14   38 1  
    41   14   39 1  
    42   15   40 1  
    43   15   41 1  
    44   16   42 1  
    45   19   43 1  
@<TRIPOS>SUBSTRUCTURE
     1 DQJ         1

