### 
### Created by X-TOOL on Wed Jan  1 15:39:37 2020
### 

@<TRIPOS>MOLECULE
6bh5_ligand
   56    59     1     0     0
SMALL
GAST_HUCK


@<TRIPOS>ATOM
      1 C10       -24.1110   23.4360    2.1220 C.3       1 DNY         0.0587
      2 C15       -26.4290   21.3960   -3.5270 C.3       1 DNY        -0.0123
      3 C17       -26.0370   23.8390   -3.6630 C.3       1 DNY        -0.0123
      4 C21       -24.6640   20.1880    3.2550 C.2       1 DNY        -0.0437
      5 C22       -24.0630   19.1050    3.9650 C.ar      1 DNY         0.0317
      6 C24       -23.4470   18.6980    6.3540 C.ar      1 DNY         0.0438
      7 C28       -22.9870   17.4620    5.9340 C.ar      1 DNY        -0.0377
      8 C02       -27.6590   23.0570    5.4350 C.ar      1 DNY         0.0463
      9 C03       -29.0260   23.0560    5.7450 C.ar      1 DNY        -0.0540
     10 C04       -29.9360   22.5600    4.8130 C.ar      1 DNY        -0.0679
     11 C05       -29.4510   22.0790    3.5980 C.ar      1 DNY        -0.0678
     12 C06       -28.0810   22.0950    3.3240 C.ar      1 DNY        -0.0547
     13 C07       -27.1230   22.5900    4.2320 C.ar      1 DNY         0.0157
     14 C08       -25.5940   22.6010    3.9170 C.3       1 DNY         0.1531
     15 C11       -23.9260   23.0240    0.6180 C.3       1 DNY         0.0114
     16 C12       -25.2180   22.4930   -0.0820 C.3       1 DNY        -0.0298
     17 C14       -25.7740   21.2540   -2.1520 C.3       1 DNY        -0.0319
     18 C16       -25.7870   22.5030   -4.3220 C.3       1 DNY        -0.0434
     19 C18       -25.7790   23.7940   -2.1450 C.3       1 DNY        -0.0319
     20 C19       -24.9510   21.2210    4.1200 C.2       1 DNY         0.0902
     21 C23       -23.9910   19.5170    5.3260 C.ar      1 DNY         0.0993
     22 C25       -23.3710   19.1480    7.8190 C.2       1 DNY         0.0666
     23 C29       -23.0780   17.0880    4.5550 C.ar      1 DNY        -0.0102
     24 N13       -25.1590   22.5200   -1.5860 N.4       1 DNY         0.2353
     25 N20       -24.5460   20.8410    5.4400 N.pl3     1 DNY        -0.2589
     26 N30       -23.5910   17.8610    3.5940 N.ar      1 DNY        -0.3232
     27 O09       -25.4120   23.0930    2.6030 O.3       1 DNY        -0.3465
     28 O26       -24.0760   20.1220    8.1550 O.co2     1 DNY        -0.5601
     29 O27       -22.6150   18.5030    8.5590 O.co2     1 DNY        -0.5601
     30 CL1       -26.5810   23.6910    6.6470 Cl        1 DNY        -0.0765
     31 H1        -23.9709   24.5231    2.2146 H         1 DNY         0.0567
     32 H2        -23.3565   22.9159    2.7304 H         1 DNY         0.0567
     33 H3        -27.4973   21.6220   -3.3944 H         1 DNY         0.0317
     34 H4        -26.3199   20.4493   -4.0764 H         1 DNY         0.0317
     35 H5        -27.0836   24.1296   -3.8363 H         1 DNY         0.0317
     36 H6        -25.3691   24.5875   -4.1142 H         1 DNY         0.0317
     37 H7        -24.8662   20.1963    2.1850 H         1 DNY         0.0204
     38 H8        -22.5559   16.7741    6.6523 H         1 DNY         0.0619
     39 H9        -29.3717   23.4368    6.6992 H         1 DNY         0.0606
     40 H10       -30.9983   22.5486    5.0285 H         1 DNY         0.0562
     41 H11       -30.1424   21.6893    2.8596 H         1 DNY         0.0602
     42 H12       -27.7394   21.7094    2.3702 H         1 DNY         0.0563
     43 H13       -25.1049   23.2974    4.6140 H         1 DNY         0.0982
     44 H14       -23.1627   22.2333    0.5716 H         1 DNY         0.0339
     45 H15       -23.5745   23.9061    0.0627 H         1 DNY         0.0339
     46 H16       -26.0661   23.1144    0.2414 H         1 DNY         0.0815
     47 H17       -25.3819   21.4535    0.2384 H         1 DNY         0.0815
     48 H18       -24.9790   20.4980   -2.2321 H         1 DNY         0.0814
     49 H19       -26.5417   20.9055   -1.4456 H         1 DNY         0.0814
     50 H20       -26.2123   22.5142   -5.3364 H         1 DNY         0.0269
     51 H21       -24.7031   22.3253   -4.3808 H         1 DNY         0.0269
     52 H22       -26.7448   23.9422   -1.6398 H         1 DNY         0.0814
     53 H23       -25.1044   24.6271   -1.8983 H         1 DNY         0.0814
     54 H24       -22.7050   16.1105    4.2713 H         1 DNY         0.0732
     55 H25       -24.1870   22.5248   -1.8529 H         1 DNY         0.2033
     56 H26       -24.6340   21.4023    6.2991 H         1 DNY         0.2303
@<TRIPOS>BOND
     1   15    1 1  
     2    1   27 1  
     3   17    2 1  
     4    2   18 1  
     5   18    3 1  
     6    3   19 1  
     7    4    5 1  
     8   20    4 2  
     9    5   21 ar 
    10    5   26 ar 
    11    6    7 ar 
    12   21    6 ar 
    13    6   22 1  
    14    7   23 ar 
    15    8    9 ar 
    16   13    8 ar 
    17    8   30 1  
    18    9   10 ar 
    19   11   10 ar 
    20   12   11 ar 
    21   13   12 ar 
    22   14   13 1  
    23   14   20 1  
    24   27   14 1  
    25   16   15 1  
    26   24   16 1  
    27   17   24 1  
    28   19   24 1  
    29   20   25 1  
    30   21   25 1  
    31   22   28 ar 
    32   22   29 ar 
    33   23   26 ar 
    34    1   31 1  
    35    1   32 1  
    36    2   33 1  
    37    2   34 1  
    38    3   35 1  
    39    3   36 1  
    40    4   37 1  
    41    7   38 1  
    42    9   39 1  
    43   10   40 1  
    44   11   41 1  
    45   12   42 1  
    46   14   43 1  
    47   15   44 1  
    48   15   45 1  
    49   16   46 1  
    50   16   47 1  
    51   17   48 1  
    52   17   49 1  
    53   18   50 1  
    54   18   51 1  
    55   19   52 1  
    56   19   53 1  
    57   23   54 1  
    58   24   55 1  
    59   25   56 1  
@<TRIPOS>SUBSTRUCTURE
     1 DNY         1

