### 
### Created by X-TOOL on Mon Aug  2 16:10:02 2021
### 

@<TRIPOS>MOLECULE
6bib_ligand
   86    89     1     0     0
SMALL
GAST_HUCK


@<TRIPOS>ATOM
      1 C34        -2.8890    2.9380   10.0270 C.2       1 DW7         0.3240
      2 O43        -3.1170    3.6070   10.9870 O.2       1 DW7        -0.3773
      3 O35        -2.5700    1.5940   10.0960 O.3       1 DW7        -0.2505
      4 C36        -2.5200    1.0590   11.3950 C.3       1 DW7         0.1113
      5 C37        -3.5440   -0.0730   11.5930 C.ar      1 DW7        -0.0130
      6 C38        -3.7820   -1.0020   10.5860 C.ar      1 DW7        -0.0578
      7 C39        -4.6950   -2.0270   10.7990 C.ar      1 DW7        -0.0685
      8 C40        -5.3720   -2.1370   12.0110 C.ar      1 DW7        -0.0687
      9 C41        -5.1370   -1.2150   13.0140 C.ar      1 DW7        -0.0685
     10 C42        -4.2210   -0.1910   12.8100 C.ar      1 DW7        -0.0578
     11 N18        -1.6590    3.9390    2.0210 N.am      1 DW7        -0.2869
     12 C19        -1.0000    5.0000    2.7260 C.3       1 DW7         0.0336
     13 C20         0.0010    4.3880    3.6910 C.3       1 DW7        -0.0023
     14 C21         0.4730    5.5400    4.5390 C.3       1 DW7         0.0772
     15 N30        -0.2020    5.4310    5.7900 N.pl3     1 DW7        -0.1812
     16 C29        -1.3240    6.0450    6.2360 C.2       1 DW7         0.0696
     17 C28        -1.6310    5.6130    7.5640 C.2       1 DW7         0.0414
     18 C27        -2.7240    5.9720    8.5260 C.3       1 DW7         0.0221
     19 C26        -3.6590    4.8040    8.6530 C.3       1 DW7         0.1394
     20 N33        -2.9630    3.5320    8.7200 N.am      1 DW7        -0.2398
     21 C02        -4.5860    4.8490    7.4410 C.2       1 DW7         0.2054
     22 O01        -4.4100    4.1620    6.4820 O.2       1 DW7        -0.3942
     23 N32        -0.6470    4.7610    7.7970 N.2       1 DW7        -0.2263
     24 N31         0.1760    4.6530    6.7600 N.2       1 DW7        -0.1020
     25 N13        -6.6090    5.8450    3.9780 N.am      1 DW7        -0.2797
     26 C14        -6.1570    6.1760    2.6440 C.3       1 DW7         0.0672
     27 C15        -5.4090    5.0020    2.0370 C.3       1 DW7        -0.0108
     28 C16        -3.9590    4.9820    2.5260 C.3       1 DW7         0.0394
     29 C17        -3.0920    3.8930    1.9010 C.2       1 DW7         0.1760
     30 O22        -3.5590    2.9790    1.3320 O.2       1 DW7        -0.3971
     31 C23        -7.4270    6.4610    1.8830 C.3       1 DW7         0.0673
     32 O24        -8.1080    7.4870    2.6060 O.3       1 DW7        -0.3927
     33 N03        -5.6630    5.7630    7.5470 N.am      1 DW7        -0.2636
     34 C04        -6.6250    5.8920    6.4820 C.3       1 DW7         0.1311
     35 C12        -5.9820    6.3440    5.1780 C.2       1 DW7         0.2020
     36 O25        -5.0320    7.0560    5.1560 O.2       1 DW7        -0.3945
     37 C05        -7.6180    6.9210    6.9690 C.3       1 DW7        -0.0096
     38 C06        -8.4140    6.4670    8.1920 C.3       1 DW7        -0.0368
     39 C11        -9.4050    7.5790    8.5330 C.3       1 DW7        -0.0500
     40 C10       -10.4710    7.1500    9.5230 C.3       1 DW7        -0.0528
     41 C09       -11.1050    5.8190    9.1730 C.3       1 DW7        -0.0530
     42 C08       -10.0570    4.7470    9.0140 C.3       1 DW7        -0.0528
     43 C07        -9.0940    5.1240    7.9140 C.3       1 DW7        -0.0500
     44 H1         -2.7329    1.8606   12.1175 H         1 DW7         0.0776
     45 H2         -1.5109    0.6605   11.5762 H         1 DW7         0.0776
     46 H3         -3.2580   -0.9267    9.6401 H         1 DW7         0.0557
     47 H4         -4.8826   -2.7494   10.0129 H         1 DW7         0.0599
     48 H5         -6.0805   -2.9424   12.1674 H         1 DW7         0.0559
     49 H6         -5.6661   -1.2910   13.9570 H         1 DW7         0.0599
     50 H7         -4.0294    0.5235   13.6023 H         1 DW7         0.0557
     51 H8         -1.1101    3.2149    1.6034 H         1 DW7         0.1850
     52 H9         -1.7409    5.5905    3.2849 H         1 DW7         0.0521
     53 H10        -0.4758    5.6512    2.0111 H         1 DW7         0.0521
     54 H11         0.8430    3.9398    3.1432 H         1 DW7         0.0314
     55 H12        -0.4811    3.6204    4.3142 H         1 DW7         0.0314
     56 H13         0.2219    6.4952    4.0547 H         1 DW7         0.0648
     57 H14         1.5611    5.4797    4.6888 H         1 DW7         0.0648
     58 H15        -1.9086    6.7647    5.6648 H         1 DW7         0.0899
     59 H16        -3.2745    6.8472    8.1505 H         1 DW7         0.0428
     60 H17        -2.2893    6.2063    9.5089 H         1 DW7         0.0428
     61 H18        -4.2530    4.9195    9.5716 H         1 DW7         0.0817
     62 H19        -2.5626    3.0987    7.9126 H         1 DW7         0.1900
     63 H20        -7.3980    5.2381    4.0735 H         1 DW7         0.1855
     64 H21        -5.5042    7.0612    2.6585 H         1 DW7         0.0580
     65 H22        -5.4204    5.0928    0.9408 H         1 DW7         0.0313
     66 H23        -5.9039    4.0652    2.3325 H         1 DW7         0.0313
     67 H24        -3.9666    4.8311    3.6156 H         1 DW7         0.0503
     68 H25        -3.5053    5.9568    2.2939 H         1 DW7         0.0503
     69 H26        -8.0498    5.5559    1.8294 H         1 DW7         0.0580
     70 H27        -7.1916    6.8050    0.8650 H         1 DW7         0.0580
     71 H28        -8.2987    7.1804    3.4847 H         1 DW7         0.2095
     72 H29        -5.7566    6.3244    8.3692 H         1 DW7         0.1883
     73 H30        -7.1282    4.9284    6.3139 H         1 DW7         0.0800
     74 H31        -8.3245    7.1366    6.1539 H         1 DW7         0.0315
     75 H32        -7.0696    7.8378    7.2310 H         1 DW7         0.0315
     76 H33        -7.7281    6.3338    9.0416 H         1 DW7         0.0303
     77 H34        -9.8999    7.9022    7.6053 H         1 DW7         0.0268
     78 H35        -8.8474    8.4233    8.9645 H         1 DW7         0.0268
     79 H36       -11.2582    7.9179    9.5447 H         1 DW7         0.0265
     80 H37       -10.0113    7.0678   10.5190 H         1 DW7         0.0265
     81 H38       -11.6603    5.9221    8.2291 H         1 DW7         0.0265
     82 H39       -11.7980    5.5283    9.9762 H         1 DW7         0.0265
     83 H40       -10.5457    3.7949    8.7595 H         1 DW7         0.0265
     84 H41        -9.5047    4.6347    9.9587 H         1 DW7         0.0265
     85 H42        -8.3227    4.3440    7.8328 H         1 DW7         0.0268
     86 H43        -9.6463    5.1937    6.9653 H         1 DW7         0.0268
@<TRIPOS>BOND
     1    1    2 2  
     2    1    3 1  
     3   20    1 am 
     4    3    4 1  
     5    4    5 1  
     6    5    6 ar 
     7    5   10 ar 
     8    6    7 ar 
     9    7    8 ar 
    10    9    8 ar 
    11   10    9 ar 
    12   11   12 1  
    13   29   11 am 
    14   12   13 1  
    15   13   14 1  
    16   14   15 1  
    17   15   16 1  
    18   15   24 1  
    19   16   17 2  
    20   17   18 1  
    21   23   17 1  
    22   18   19 1  
    23   19   20 1  
    24   19   21 1  
    25   21   22 2  
    26   21   33 am 
    27   24   23 2  
    28   26   25 1  
    29   25   35 am 
    30   27   26 1  
    31   26   31 1  
    32   28   27 1  
    33   28   29 1  
    34   29   30 2  
    35   31   32 1  
    36   33   34 1  
    37   34   35 1  
    38   34   37 1  
    39   35   36 2  
    40   37   38 1  
    41   38   39 1  
    42   38   43 1  
    43   39   40 1  
    44   40   41 1  
    45   41   42 1  
    46   42   43 1  
    47    4   44 1  
    48    4   45 1  
    49    6   46 1  
    50    7   47 1  
    51    8   48 1  
    52    9   49 1  
    53   10   50 1  
    54   11   51 1  
    55   12   52 1  
    56   12   53 1  
    57   13   54 1  
    58   13   55 1  
    59   14   56 1  
    60   14   57 1  
    61   16   58 1  
    62   18   59 1  
    63   18   60 1  
    64   19   61 1  
    65   20   62 1  
    66   25   63 1  
    67   26   64 1  
    68   27   65 1  
    69   27   66 1  
    70   28   67 1  
    71   28   68 1  
    72   31   69 1  
    73   31   70 1  
    74   32   71 1  
    75   33   72 1  
    76   34   73 1  
    77   37   74 1  
    78   37   75 1  
    79   38   76 1  
    80   39   77 1  
    81   39   78 1  
    82   40   79 1  
    83   40   80 1  
    84   41   81 1  
    85   41   82 1  
    86   42   83 1  
    87   42   84 1  
    88   43   85 1  
    89   43   86 1  
@<TRIPOS>SUBSTRUCTURE
     1 DW7         1

