### 
### Created by X-TOOL on Mon Aug  2 16:10:02 2021
### 

@<TRIPOS>MOLECULE
6bic_ligand
   79    81     1     0     0
SMALL
GAST_HUCK


@<TRIPOS>ATOM
      1 C26        40.0010   67.4230  -10.1310 C.2       1 MOL         0.3240
      2 O27        40.4170   67.9650  -11.1070 O.2       1 MOL        -0.3773
      3 O35        39.4430   66.1080  -10.2490 O.3       1 MOL        -0.2505
      4 C1         40.1600   65.0930   -9.5630 C.3       1 MOL         0.1113
      5 C2         40.8600   64.1970  -10.6130 C.ar      1 MOL        -0.0130
      6 C3         40.8160   64.5300  -11.9650 C.ar      1 MOL        -0.0578
      7 C4         41.4590   63.7270  -12.9130 C.ar      1 MOL        -0.0685
      8 C5         42.1520   62.5980  -12.5010 C.ar      1 MOL        -0.0687
      9 C6         42.1990   62.2680  -11.1430 C.ar      1 MOL        -0.0685
     10 C7         41.5540   63.0670  -10.2040 C.ar      1 MOL        -0.0578
     11 N16        39.1290   68.9230   -2.0400 N.am      1 MOL        -0.2869
     12 C17        38.4370   70.1210   -2.5050 C.3       1 MOL         0.0336
     13 C18        37.0710   69.7840   -3.1430 C.3       1 MOL        -0.0023
     14 C19        36.7830   70.8030   -4.2130 C.3       1 MOL         0.0772
     15 N20        37.4390   70.3900   -5.4480 N.pl3     1 MOL        -0.1812
     16 C21        38.3910   71.0270   -6.1730 C.2       1 MOL         0.0696
     17 C22        38.7710   70.2640   -7.3550 C.2       1 MOL         0.0414
     18 C23        39.8040   70.5740   -8.4700 C.3       1 MOL         0.0221
     19 C24        40.7720   69.4310   -8.7690 C.3       1 MOL         0.1394
     20 N25        40.0830   68.1380   -8.8200 N.am      1 MOL        -0.2398
     21 C36        41.8880   69.4370   -7.7160 C.2       1 MOL         0.2054
     22 O37        41.8400   68.7710   -6.7280 O.2       1 MOL        -0.3942
     23 N38        37.9890   69.2000   -7.2220 N.2       1 MOL        -0.2263
     24 N39        37.2240   69.2760   -6.1190 N.2       1 MOL        -0.1020
     25 N11        43.0440   70.3160   -7.9770 N.am      1 MOL        -0.2636
     26 C06        44.1490   70.3840   -7.0300 C.3       1 MOL         0.1311
     27 C05        43.5990   70.9480   -5.7190 C.2       1 MOL         0.2020
     28 O12        42.6720   71.6990   -5.7170 O.2       1 MOL        -0.3945
     29 C07        45.2620   71.2620   -7.5730 C.3       1 MOL        -0.0101
     30 C08        45.9350   70.6320   -8.8320 C.3       1 MOL        -0.0425
     31 C10        46.5790   69.2760   -8.5740 C.3       1 MOL        -0.0625
     32 C09        46.9590   71.5960   -9.4070 C.3       1 MOL        -0.0625
     33 N04        44.2340   70.5080   -4.4720 N.am      1 MOL        -0.2797
     34 C03        43.7290   71.0070   -3.1850 C.3       1 MOL         0.0672
     35 C13        42.9270   69.8830   -2.5070 C.3       1 MOL        -0.0108
     36 C14        41.4130   70.1110   -2.5430 C.3       1 MOL         0.0394
     37 C15        40.5870   68.8920   -2.0360 C.2       1 MOL         0.1760
     38 O40        41.1220   67.9080   -1.6480 O.2       1 MOL        -0.3971
     39 C02        44.8820   71.4240   -2.2880 C.3       1 MOL         0.0673
     40 O01        45.5520   72.4970   -2.8970 O.3       1 MOL        -0.3927
     41 H1         39.4649   64.4881   -8.9622 H         1 MOL         0.0776
     42 H2         40.9124   65.5502   -8.9036 H         1 MOL         0.0776
     43 H3         40.2803   65.4166  -12.2843 H         1 MOL         0.0557
     44 H4         41.4160   63.9858  -13.9648 H         1 MOL         0.0599
     45 H5         42.6557   61.9734  -13.2298 H         1 MOL         0.0559
     46 H6         42.7402   61.3859  -10.8204 H         1 MOL         0.0599
     47 H7         41.5936   62.8066   -9.1525 H         1 MOL         0.0557
     48 H8         38.6073   68.1295   -1.7265 H         1 MOL         0.1850
     49 H9         39.0645   70.6265   -3.2538 H         1 MOL         0.0521
     50 H10        38.2741   70.7927   -1.6493 H         1 MOL         0.0521
     51 H11        36.2837   69.8184   -2.3755 H         1 MOL         0.0314
     52 H12        37.1063   68.7784   -3.5874 H         1 MOL         0.0314
     53 H13        37.1682   71.7849   -3.9010 H         1 MOL         0.0648
     54 H14        35.6973   70.8700   -4.3763 H         1 MOL         0.0648
     55 H15        38.8196   71.9915   -5.9048 H         1 MOL         0.0899
     56 H16        40.3920   71.4505   -8.1602 H         1 MOL         0.0428
     57 H17        39.2538   70.8091   -9.3930 H         1 MOL         0.0428
     58 H18        41.2253   69.6099   -9.7552 H         1 MOL         0.0817
     59 H19        39.6767   67.7427   -7.9962 H         1 MOL         0.1900
     60 H20        43.0692   70.8690   -8.8098 H         1 MOL         0.1883
     61 H21        44.5465   69.3733   -6.8556 H         1 MOL         0.0800
     62 H22        46.0241   71.3952   -6.7910 H         1 MOL         0.0315
     63 H23        44.8419   72.2412   -7.8463 H         1 MOL         0.0315
     64 H24        45.1469   70.4818   -9.5846 H         1 MOL         0.0298
     65 H25        47.0290   68.9007   -9.5050 H         1 MOL         0.0232
     66 H26        45.8138   68.5671   -8.2249 H         1 MOL         0.0232
     67 H27        47.3594   69.3809   -7.8059 H         1 MOL         0.0232
     68 H28        46.4830   72.5708   -9.5891 H         1 MOL         0.0232
     69 H29        47.3482   71.1953  -10.3546 H         1 MOL         0.0232
     70 H30        47.7871   71.7198   -8.6936 H         1 MOL         0.0232
     71 H31        45.0057   69.8725   -4.4974 H         1 MOL         0.1855
     72 H32        43.0746   71.8737   -3.3597 H         1 MOL         0.0580
     73 H33        43.2444   69.8129   -1.4561 H         1 MOL         0.0313
     74 H34        43.1496   68.9364   -3.0212 H         1 MOL         0.0313
     75 H35        41.1178   70.3235   -3.5811 H         1 MOL         0.0503
     76 H36        41.1768   70.9788   -1.9096 H         1 MOL         0.0503
     77 H37        45.5749   70.5798   -2.1570 H         1 MOL         0.0580
     78 H38        44.4951   71.7365   -1.3069 H         1 MOL         0.0580
     79 H39        45.8818   72.2228   -3.7447 H         1 MOL         0.2095
@<TRIPOS>BOND
     1    1    2 2  
     2    1    3 1  
     3   20    1 am 
     4    3    4 1  
     5    4    5 1  
     6    5    6 ar 
     7    5   10 ar 
     8    6    7 ar 
     9    7    8 ar 
    10    9    8 ar 
    11   10    9 ar 
    12   12   11 1  
    13   11   37 am 
    14   13   12 1  
    15   14   13 1  
    16   15   14 1  
    17   16   15 1  
    18   15   24 1  
    19   17   16 2  
    20   18   17 1  
    21   17   23 1  
    22   19   18 1  
    23   19   20 1  
    24   19   21 1  
    25   21   22 2  
    26   21   25 am 
    27   23   24 2  
    28   25   26 1  
    29   26   27 1  
    30   26   29 1  
    31   27   28 2  
    32   27   33 am 
    33   29   30 1  
    34   30   31 1  
    35   30   32 1  
    36   33   34 1  
    37   34   35 1  
    38   34   39 1  
    39   35   36 1  
    40   36   37 1  
    41   37   38 2  
    42   39   40 1  
    43    4   41 1  
    44    4   42 1  
    45    6   43 1  
    46    7   44 1  
    47    8   45 1  
    48    9   46 1  
    49   10   47 1  
    50   11   48 1  
    51   12   49 1  
    52   12   50 1  
    53   13   51 1  
    54   13   52 1  
    55   14   53 1  
    56   14   54 1  
    57   16   55 1  
    58   18   56 1  
    59   18   57 1  
    60   19   58 1  
    61   20   59 1  
    62   25   60 1  
    63   26   61 1  
    64   29   62 1  
    65   29   63 1  
    66   30   64 1  
    67   31   65 1  
    68   31   66 1  
    69   31   67 1  
    70   32   68 1  
    71   32   69 1  
    72   32   70 1  
    73   33   71 1  
    74   34   72 1  
    75   35   73 1  
    76   35   74 1  
    77   36   75 1  
    78   36   76 1  
    79   39   77 1  
    80   39   78 1  
    81   40   79 1  
@<TRIPOS>SUBSTRUCTURE
     1 MOL         1

