### 
### Created by X-TOOL on Mon Aug  2 16:10:02 2021
### 

@<TRIPOS>MOLECULE
6bid_ligand
   83    86     1     0     0
SMALL
GAST_HUCK


@<TRIPOS>ATOM
      1 C33        85.1950  -48.5280  140.8210 C.2       1 DW4         0.3240
      2 O42        85.8010  -49.3260  141.4630 O.2       1 DW4        -0.3773
      3 O34        84.4020  -47.5180  141.3750 O.3       1 DW4        -0.2505
      4 C35        84.1840  -47.5880  142.7600 C.3       1 DW4         0.1113
      5 C36        85.1380  -46.6110  143.4480 C.ar      1 DW4        -0.0130
      6 C37        85.7990  -46.9880  144.6050 C.ar      1 DW4        -0.0578
      7 C38        86.6600  -46.1000  145.2370 C.ar      1 DW4        -0.0685
      8 C39        86.8520  -44.8380  144.7100 C.ar      1 DW4        -0.0687
      9 C40        86.1840  -44.4600  143.5530 C.ar      1 DW4        -0.0685
     10 C41        85.3240  -45.3460  142.9260 C.ar      1 DW4        -0.0578
     11 N18        83.4470  -46.8610  134.7920 N.am      1 DW4        -0.2841
     12 C19        82.1510  -47.3720  134.3560 C.3       1 DW4         0.0611
     13 C20        82.0750  -48.9040  134.4450 C.3       1 DW4         0.0954
     14 N29        82.5630  -49.3850  135.7290 N.pl3     1 DW4        -0.1793
     15 O01        86.5350  -47.8880  137.1330 O.2       1 DW4        -0.3942
     16 C02        86.7750  -48.9690  137.5690 C.2       1 DW4         0.2054
     17 C25        85.9870  -49.5950  138.7260 C.3       1 DW4         0.1394
     18 C26        85.0830  -50.7110  138.2250 C.3       1 DW4         0.0221
     19 C27        83.8960  -50.1960  137.4270 C.2       1 DW4         0.0414
     20 C28        83.8120  -49.7800  136.0480 C.2       1 DW4         0.0696
     21 N30        81.8740  -49.5530  136.8390 N.2       1 DW4        -0.1019
     22 N31        82.6430  -50.0220  137.8280 N.2       1 DW4        -0.2263
     23 N32        85.2440  -48.5400  139.3740 N.am      1 DW4        -0.2398
     24 N13        88.2850  -47.6470  134.0860 N.am      1 DW4        -0.2797
     25 C14        87.6220  -47.1760  132.8740 C.3       1 DW4         0.0672
     26 C15        86.8470  -45.9020  133.2030 C.3       1 DW4        -0.0108
     27 C16        85.8450  -46.1110  134.3160 C.3       1 DW4         0.0394
     28 C17        84.5020  -46.6580  133.8140 C.2       1 DW4         0.1761
     29 O21        84.3110  -46.9260  132.6670 O.2       1 DW4        -0.3971
     30 C22        88.6800  -46.9020  131.8170 C.3       1 DW4         0.0673
     31 O23        89.3690  -48.0840  131.4980 O.3       1 DW4        -0.3927
     32 N03        87.8670  -49.7710  137.0510 N.am      1 DW4        -0.2636
     33 C04        88.6830  -49.2360  135.9920 C.3       1 DW4         0.1311
     34 C12        87.8670  -48.8760  134.7530 C.2       1 DW4         0.2020
     35 O24        86.9750  -49.5530  134.3530 O.2       1 DW4        -0.3945
     36 C05        89.7400  -50.2540  135.5760 C.3       1 DW4        -0.0096
     37 C06        90.7840  -50.5620  136.6650 C.3       1 DW4        -0.0368
     38 C11        91.8060  -51.4270  135.9990 C.3       1 DW4        -0.0500
     39 C10        92.9520  -51.8050  136.9130 C.3       1 DW4        -0.0528
     40 C09        93.6220  -50.5630  137.5400 C.3       1 DW4        -0.0530
     41 C08        92.6360  -49.4660  138.0420 C.3       1 DW4        -0.0528
     42 C07        91.4260  -49.2740  137.1180 C.3       1 DW4        -0.0500
     43 H1         84.3790  -48.6105  143.1157 H         1 DW4         0.0776
     44 H2         83.1433  -47.3131  142.9868 H         1 DW4         0.0776
     45 H3         85.6442  -47.9781  145.0183 H         1 DW4         0.0557
     46 H4         87.1796  -46.3966  146.1410 H         1 DW4         0.0599
     47 H5         87.5242  -44.1426  145.1996 H         1 DW4         0.0559
     48 H6         86.3359  -43.4695  143.1397 H         1 DW4         0.0599
     49 H7         84.7976  -45.0471  142.0268 H         1 DW4         0.0557
     50 H8         83.6075  -46.6522  135.7567 H         1 DW4         0.1852
     51 H9         81.9828  -47.0685  133.3122 H         1 DW4         0.0550
     52 H10        81.3662  -46.9402  134.9945 H         1 DW4         0.0550
     53 H11        82.6882  -49.3402  133.6427 H         1 DW4         0.0668
     54 H12        81.0285  -49.2186  134.3190 H         1 DW4         0.0668
     55 H13        86.6942  -50.0259  139.4500 H         1 DW4         0.0817
     56 H14        84.7059  -51.2734  139.0919 H         1 DW4         0.0428
     57 H15        85.6742  -51.3802  137.5827 H         1 DW4         0.0428
     58 H16        84.6506  -49.7845  135.3533 H         1 DW4         0.0899
     59 H17        84.7762  -47.8371  138.8382 H         1 DW4         0.1900
     60 H18        89.0418  -47.1163  134.4675 H         1 DW4         0.1855
     61 H19        86.9258  -47.9440  132.5059 H         1 DW4         0.0580
     62 H20        86.3104  -45.5716  132.3014 H         1 DW4         0.0313
     63 H21        87.5605  -45.1235  133.5110 H         1 DW4         0.0313
     64 H22        85.6672  -45.1465  134.8142 H         1 DW4         0.0503
     65 H23        86.2668  -46.8249  135.0388 H         1 DW4         0.0503
     66 H24        89.3937  -46.1589  132.2022 H         1 DW4         0.0580
     67 H25        88.1948  -46.5093  130.9113 H         1 DW4         0.0580
     68 H26        89.7907  -48.4239  132.2785 H         1 DW4         0.2095
     69 H27        88.0502  -50.6808  137.4233 H         1 DW4         0.1883
     70 H28        89.1809  -48.3284  136.3641 H         1 DW4         0.0800
     71 H29        90.2674  -49.8625  134.6937 H         1 DW4         0.0315
     72 H30        89.2301  -51.1922  135.3120 H         1 DW4         0.0315
     73 H31        90.3246  -51.0798  137.5198 H         1 DW4         0.0303
     74 H32        92.2133  -50.8842  135.1333 H         1 DW4         0.0268
     75 H33        91.3139  -52.3488  135.6554 H         1 DW4         0.0268
     76 H34        93.7034  -52.3587  136.3309 H         1 DW4         0.0265
     77 H35        92.5671  -52.4466  137.7194 H         1 DW4         0.0265
     78 H36        94.2788  -50.1106  136.7825 H         1 DW4         0.0265
     79 H37        94.2258  -50.8969  138.3967 H         1 DW4         0.0265
     80 H38        93.1792  -48.5119  138.1099 H         1 DW4         0.0265
     81 H39        92.2722  -49.7526  139.0397 H         1 DW4         0.0265
     82 H40        90.6708  -48.6828  137.6567 H         1 DW4         0.0268
     83 H41        91.7570  -48.7212  136.2265 H         1 DW4         0.0268
@<TRIPOS>BOND
     1    1    2 2  
     2    1    3 1  
     3   23    1 am 
     4    3    4 1  
     5    4    5 1  
     6    5    6 ar 
     7    5   10 ar 
     8    6    7 ar 
     9    7    8 ar 
    10    9    8 ar 
    11   10    9 ar 
    12   11   12 1  
    13   28   11 am 
    14   12   13 1  
    15   13   14 1  
    16   14   20 1  
    17   14   21 1  
    18   16   15 2  
    19   17   16 1  
    20   16   32 am 
    21   18   17 1  
    22   17   23 1  
    23   19   18 1  
    24   20   19 2  
    25   22   19 1  
    26   21   22 2  
    27   25   24 1  
    28   24   34 am 
    29   26   25 1  
    30   25   30 1  
    31   27   26 1  
    32   27   28 1  
    33   28   29 2  
    34   30   31 1  
    35   32   33 1  
    36   33   34 1  
    37   33   36 1  
    38   34   35 2  
    39   36   37 1  
    40   37   38 1  
    41   37   42 1  
    42   38   39 1  
    43   39   40 1  
    44   40   41 1  
    45   41   42 1  
    46    4   43 1  
    47    4   44 1  
    48    6   45 1  
    49    7   46 1  
    50    8   47 1  
    51    9   48 1  
    52   10   49 1  
    53   11   50 1  
    54   12   51 1  
    55   12   52 1  
    56   13   53 1  
    57   13   54 1  
    58   17   55 1  
    59   18   56 1  
    60   18   57 1  
    61   20   58 1  
    62   23   59 1  
    63   24   60 1  
    64   25   61 1  
    65   26   62 1  
    66   26   63 1  
    67   27   64 1  
    68   27   65 1  
    69   30   66 1  
    70   30   67 1  
    71   31   68 1  
    72   32   69 1  
    73   33   70 1  
    74   36   71 1  
    75   36   72 1  
    76   37   73 1  
    77   38   74 1  
    78   38   75 1  
    79   39   76 1  
    80   39   77 1  
    81   40   78 1  
    82   40   79 1  
    83   41   80 1  
    84   41   81 1  
    85   42   82 1  
    86   42   83 1  
@<TRIPOS>SUBSTRUCTURE
     1 DW4         1

