### 
### Created by X-TOOL on Mon Aug  2 16:12:39 2021
### 

@<TRIPOS>MOLECULE
6bik_ligand
   80    84     1     0     0
SMALL
GAST_HUCK


@<TRIPOS>ATOM
      1 C4        105.3630  -50.0410    0.8530 C.3       1 DTJ        -0.0831
      2 C14       103.8850  -48.5030   -7.7140 C.ar      1 DTJ         0.0812
      3 C5        105.3790  -49.0260   -1.4150 C.ar      1 DTJ        -0.0451
      4 C6        104.4320  -49.9980   -1.7340 C.ar      1 DTJ        -0.0356
      5 C11       103.6960  -49.1570   -5.3710 C.2       1 DTJ         0.2497
      6 C7        103.8730  -50.0390   -3.0100 C.ar      1 DTJ        -0.0139
      7 C8        104.2750  -49.1230   -3.9960 C.ar      1 DTJ         0.0828
      8 C9        105.2410  -48.1540   -3.6640 C.ar      1 DTJ        -0.0139
      9 C10       105.7820  -48.1150   -2.3850 C.ar      1 DTJ        -0.0356
     10 C3        107.4880  -49.2910   -0.1240 C.3       1 DTJ        -0.0831
     11 C1        105.8260  -47.5840    0.5850 C.3       1 DTJ        -0.0831
     12 C2        105.9990  -48.9720   -0.0390 C.3       1 DTJ        -0.0435
     13 O12       102.6350  -49.7460   -5.5780 O.2       1 DTJ        -0.3622
     14 N13       104.3690  -48.5580   -6.3860 N.am      1 DTJ        -0.2307
     15 C15       104.1110  -49.5030   -8.6410 C.ar      1 DTJ        -0.0396
     16 C16       103.6200  -49.4000   -9.9270 C.ar      1 DTJ        -0.0734
     17 C17       102.9030  -48.2860  -10.3170 C.ar      1 DTJ        -0.0614
     18 C18       102.6870  -47.2510   -9.4070 C.ar      1 DTJ         0.0242
     19 C19       103.1630  -47.3760   -8.0940 C.ar      1 DTJ         0.0286
     20 C20       102.9760  -46.2660   -7.0860 C.3       1 DTJ         0.0806
     21 O21       101.9770  -46.5460   -6.1190 O.3       1 DTJ        -0.3827
     22 C22       101.9070  -46.0650   -9.8230 C.2       1 DTJ         0.0967
     23 C23       102.1670  -45.4060  -11.0500 C.2       1 DTJ         0.0006
     24 C24       101.3890  -44.3290  -11.3930 C.2       1 DTJ         0.1006
     25 C25       100.3680  -43.8910  -10.5220 C.2       1 DTJ         0.2567
     26 O26        99.6880  -42.9140  -10.8220 O.2       1 DTJ        -0.3659
     27 N27       100.1660  -44.5300   -9.3640 N.am      1 DTJ        -0.1628
     28 N28       100.9460  -45.6430   -9.0360 N.pl3     1 DTJ        -0.1965
     29 C29        99.1240  -44.0640   -8.4550 C.3       1 DTJ         0.0493
     30 N30       101.5190  -43.5920  -12.5670 N.2       1 DTJ        -0.2916
     31 C31       102.3820  -43.7960  -13.6250 C.ar      1 DTJ         0.0818
     32 C32       102.1270  -43.0110  -14.7440 C.ar      1 DTJ        -0.0216
     33 C33       102.9260  -43.1330  -15.8350 C.ar      1 DTJ        -0.0294
     34 C34       103.9970  -44.0390  -15.7850 C.ar      1 DTJ         0.0698
     35 C35       104.2020  -44.8110  -14.6320 C.ar      1 DTJ         0.0222
     36 N36       103.3910  -44.6630  -13.5930 N.ar      1 DTJ        -0.2877
     37 C37       104.8600  -44.1760  -16.9690 C.2       1 DTJ         0.2099
     38 O38       105.0500  -45.2880  -17.4070 O.2       1 DTJ        -0.3850
     39 N39       105.4190  -43.1010  -17.5710 N.am      1 DTJ        -0.2681
     40 C40       105.2310  -41.7240  -17.0760 C.3       1 DTJ         0.0568
     41 C41       106.0930  -40.7910  -17.9310 C.3       1 DTJ         0.0680
     42 O42       105.6880  -40.9370  -19.2930 O.3       1 DTJ        -0.3758
     43 C43       105.7540  -42.2700  -19.8210 C.3       1 DTJ         0.0680
     44 C44       106.2710  -43.2550  -18.7600 C.3       1 DTJ         0.0568
     45 H1        105.8160  -49.9998    1.8545 H         1 DTJ         0.0139
     46 H2        105.5345  -51.0347    0.4136 H         1 DTJ         0.0139
     47 H3        104.2814  -49.8567    0.9320 H         1 DTJ         0.0139
     48 H4        104.1297  -50.7237   -0.9877 H         1 DTJ         0.0854
     49 H5        103.1214  -50.7844   -3.2436 H         1 DTJ         0.0741
     50 H6        105.5638  -47.4358   -4.4090 H         1 DTJ         0.0741
     51 H7        106.5266  -47.3660   -2.1406 H         1 DTJ         0.0854
     52 H8        107.9873  -48.5441   -0.7587 H         1 DTJ         0.0139
     53 H9        107.6243  -50.2920   -0.5593 H         1 DTJ         0.0139
     54 H10       107.9263  -49.2669    0.8846 H         1 DTJ         0.0139
     55 H11       104.7548  -47.3428    0.6515 H         1 DTJ         0.0139
     56 H12       106.3323  -46.8347   -0.0412 H         1 DTJ         0.0139
     57 H13       106.2665  -47.5776    1.5929 H         1 DTJ         0.0139
     58 H14       105.2520  -48.1339   -6.1848 H         1 DTJ         0.2238
     59 H15       104.6811  -50.3793   -8.3545 H         1 DTJ         0.0541
     60 H16       103.7987  -50.1999  -10.6364 H         1 DTJ         0.0544
     61 H17       102.5101  -48.2162  -11.3249 H         1 DTJ         0.0543
     62 H18       102.6927  -45.3498   -7.6247 H         1 DTJ         0.0720
     63 H19       103.9308  -46.1043   -6.5642 H         1 DTJ         0.0720
     64 H20       101.1438  -46.6792   -6.5555 H         1 DTJ         0.2127
     65 H21       102.9665  -45.7466  -11.7063 H         1 DTJ         0.0424
     66 H22       100.7616  -46.1438   -8.1550 H         1 DTJ         0.2244
     67 H23        98.6262  -43.1840   -8.8883 H         1 DTJ         0.0512
     68 H24        99.5747  -43.7918   -7.4892 H         1 DTJ         0.0512
     69 H25        98.3855  -44.8648   -8.3023 H         1 DTJ         0.0512
     70 H26       101.3002  -42.3100  -14.7453 H         1 DTJ         0.0676
     71 H27       102.7408  -42.5434  -16.7256 H         1 DTJ         0.0760
     72 H28       105.0177  -45.5237  -14.5904 H         1 DTJ         0.0859
     73 H29       105.5433  -41.6600  -16.0232 H         1 DTJ         0.0544
     74 H30       104.1725  -41.4376  -17.1626 H         1 DTJ         0.0544
     75 H31       107.1537  -41.0630  -17.8262 H         1 DTJ         0.0580
     76 H32       105.9479  -39.7494  -17.6085 H         1 DTJ         0.0580
     77 H33       106.4343  -42.2818  -20.6853 H         1 DTJ         0.0580
     78 H34       104.7486  -42.5807  -20.1414 H         1 DTJ         0.0580
     79 H35       106.2060  -44.2855  -19.1392 H         1 DTJ         0.0544
     80 H36       107.3160  -43.0224  -18.5074 H         1 DTJ         0.0544
@<TRIPOS>BOND
     1   12    1 1  
     2   14    2 1  
     3    2   15 ar 
     4    2   19 ar 
     5    4    3 ar 
     6    3    9 ar 
     7    3   12 1  
     8    6    4 ar 
     9    7    5 1  
    10    5   13 2  
    11    5   14 am 
    12    6    7 ar 
    13    7    8 ar 
    14    8    9 ar 
    15   12   10 1  
    16   12   11 1  
    17   15   16 ar 
    18   16   17 ar 
    19   17   18 ar 
    20   18   19 ar 
    21   18   22 1  
    22   19   20 1  
    23   20   21 1  
    24   22   23 2  
    25   22   28 1  
    26   23   24 1  
    27   24   25 1  
    28   24   30 2  
    29   25   26 2  
    30   25   27 am 
    31   27   28 1  
    32   27   29 1  
    33   30   31 1  
    34   31   32 ar 
    35   31   36 ar 
    36   32   33 ar 
    37   33   34 ar 
    38   34   35 ar 
    39   34   37 1  
    40   35   36 ar 
    41   37   38 2  
    42   37   39 am 
    43   39   40 1  
    44   39   44 1  
    45   40   41 1  
    46   41   42 1  
    47   42   43 1  
    48   43   44 1  
    49    1   45 1  
    50    1   46 1  
    51    1   47 1  
    52    4   48 1  
    53    6   49 1  
    54    8   50 1  
    55    9   51 1  
    56   10   52 1  
    57   10   53 1  
    58   10   54 1  
    59   11   55 1  
    60   11   56 1  
    61   11   57 1  
    62   14   58 1  
    63   15   59 1  
    64   16   60 1  
    65   17   61 1  
    66   20   62 1  
    67   20   63 1  
    68   21   64 1  
    69   23   65 1  
    70   28   66 1  
    71   29   67 1  
    72   29   68 1  
    73   29   69 1  
    74   32   70 1  
    75   33   71 1  
    76   35   72 1  
    77   40   73 1  
    78   40   74 1  
    79   41   75 1  
    80   41   76 1  
    81   43   77 1  
    82   43   78 1  
    83   44   79 1  
    84   44   80 1  
@<TRIPOS>SUBSTRUCTURE
     1 DTJ         1

