### 
### Created by X-TOOL on Wed Jan  1 15:39:34 2020
### 

@<TRIPOS>MOLECULE
6bjo_ligand
   78    81     1     0     0
SMALL
GAST_HUCK


@<TRIPOS>ATOM
      1 C1        -14.8060   37.3090   -8.7530 C.2       1 DUY         0.2042
      2 C2        -14.1850   36.1160   -9.5200 C.3       1 DUY         0.1357
      3 C3        -16.4200   35.5110  -10.5300 C.2       1 DUY         0.3249
      4 O4         -8.7970   38.4910   -4.3330 O.co2     1 DUY        -0.5666
      5 C5        -18.2590   35.1660   -7.4070 C.3       1 DUY        -0.0320
      6 C6        -18.9360   34.1530   -9.4490 C.3       1 DUY        -0.0320
      7 O6        -13.3710   39.4210   -3.7490 O.2       1 DUY        -0.3650
      8 C7        -18.7930   36.5940   -9.3700 C.3       1 DUY        -0.0320
      9 C8        -14.4300   36.3570  -11.8160 C.3       1 DUY         0.0388
     10 C9        -13.0120   36.8280  -11.5200 C.3       1 DUY        -0.0282
     11 C10       -12.7850   36.2930  -10.1070 C.3       1 DUY        -0.0104
     12 C15       -10.8420   37.4870   -3.5850 C.3       1 DUY         0.0965
     13 C16       -10.3980   37.7610   -2.1500 C.3       1 DUY        -0.0060
     14 C17       -11.4330   38.0580   -1.0120 C.3       1 DUY        -0.0466
     15 C18       -11.9830   36.7030   -0.5670 C.3       1 DUY        -0.0526
     16 C19       -10.8340   35.7380   -0.8350 C.3       1 DUY        -0.0526
     17 C20        -9.7870   36.5060   -1.6430 C.3       1 DUY        -0.0466
     18 C21        -9.7610   37.7040   -4.5880 C.2       1 DUY         0.0605
     19 OH        -15.5340   38.1700   -9.2520 O.2       1 DUY        -0.3943
     20 N         -15.0940   35.9710  -10.6170 N.am      1 DUY        -0.2274
     21 O         -16.8680   35.1810   -9.2730 O.3       1 DUY        -0.2579
     22 C         -18.1010   35.3100   -8.9190 C.3       1 DUY         0.0905
     23 O3        -17.1510   35.4210  -11.5040 O.2       1 DUY        -0.3773
     24 N2        -14.6150   37.3100   -7.3630 N.am      1 DUY        -0.2729
     25 CE1       -14.9600   38.4980   -6.5940 C.3       1 DUY         0.0269
     26 CD1       -15.4640   38.1640   -5.2170 C.3       1 DUY        -0.0414
     27 CG        -14.4960   37.2910   -4.4230 C.3       1 DUY         0.0484
     28 CB        -13.3710   38.2420   -4.1120 C.2       1 DUY         0.1694
     29 N3        -12.0690   38.0550   -3.8890 N.am      1 DUY        -0.2776
     30 O5         -9.9470   36.8510   -5.4750 O.co2     1 DUY        -0.5666
     31 CD2       -15.0220   36.8900   -3.0360 C.ar      1 DUY        -0.0359
     32 CE2       -15.2830   35.5530   -2.6980 C.ar      1 DUY        -0.0374
     33 C24       -15.6550   35.2110   -1.4180 C.ar      1 DUY        -0.0234
     34 C25       -15.8550   36.2600   -0.5190 C.ar      1 DUY         0.0420
     35 BR1       -16.4580   35.9000    1.3100 Br        1 DUY        -0.0232
     36 C26       -15.6660   37.5930   -0.7740 C.ar      1 DUY        -0.0234
     37 C27       -15.2530   37.8640   -2.0810 C.ar      1 DUY        -0.0374
     38 C28       -14.1050   36.1480   -5.4310 C.3       1 DUY        -0.0414
     39 C29       -13.5370   36.6050   -6.7920 C.3       1 DUY         0.0269
     40 H1        -14.1813   35.2259   -8.8738 H         1 DUY         0.0801
     41 H2        -19.3191   35.2806   -7.1366 H         1 DUY         0.0260
     42 H3        -17.6656   35.9416   -6.9008 H         1 DUY         0.0260
     43 H4        -17.9063   34.1721   -7.0945 H         1 DUY         0.0260
     44 H5        -18.9012   34.1492  -10.5484 H         1 DUY         0.0260
     45 H6        -19.9777   34.2697   -9.1156 H         1 DUY         0.0260
     46 H7        -18.5325   33.2040   -9.0661 H         1 DUY         0.0260
     47 H8        -18.2239   37.4634   -9.0092 H         1 DUY         0.0260
     48 H9        -19.8120   36.6259   -8.9571 H         1 DUY         0.0260
     49 H10       -18.8416   36.6179  -10.4687 H         1 DUY         0.0260
     50 H11       -14.3890   35.4958  -12.4990 H         1 DUY         0.0523
     51 H12       -14.9903   37.1756  -12.2913 H         1 DUY         0.0523
     52 H13       -12.9420   37.9254  -11.5473 H         1 DUY         0.0287
     53 H14       -12.2916   36.3968  -12.2306 H         1 DUY         0.0287
     54 H15       -12.2548   35.3297  -10.1391 H         1 DUY         0.0313
     55 H16       -12.2039   37.0117   -9.5105 H         1 DUY         0.0313
     56 H17       -11.0286   36.4035   -3.6189 H         1 DUY         0.0730
     57 H18        -9.6688   38.5839   -2.1827 H         1 DUY         0.0341
     58 H19       -12.2466   38.6925   -1.3934 H         1 DUY         0.0270
     59 H20       -10.9381   38.5633   -0.1695 H         1 DUY         0.0270
     60 H21       -12.8708   36.4281   -1.1554 H         1 DUY         0.0265
     61 H22       -12.2415   36.7170    0.5021 H         1 DUY         0.0265
     62 H23       -11.1940   34.8716   -1.4093 H         1 DUY         0.0265
     63 H24       -10.4001   35.3934    0.1153 H         1 DUY         0.0265
     64 H25        -8.9278   36.7469   -0.9998 H         1 DUY         0.0270
     65 H26        -9.4498   35.8907   -2.4902 H         1 DUY         0.0270
     66 H27       -15.7435   39.0518   -7.1321 H         1 DUY         0.0514
     67 H28       -14.0643   39.1294   -6.4986 H         1 DUY         0.0514
     68 H29       -16.4200   37.6286   -5.3139 H         1 DUY         0.0190
     69 H30       -15.6234   39.1020   -4.6650 H         1 DUY         0.0190
     70 H31       -11.7560   38.9874   -4.0695 H         1 DUY         0.1872
     71 H32       -15.1905   34.7812   -3.4536 H         1 DUY         0.0852
     72 H33       -15.7864   34.1765   -1.1220 H         1 DUY         0.0720
     73 H34       -15.8225   38.3660   -0.0303 H         1 DUY         0.0720
     74 H35       -15.1046   38.8999   -2.3638 H         1 DUY         0.0852
     75 H36       -15.0074   35.5504   -5.6275 H         1 DUY         0.0190
     76 H37       -13.3460   35.5172   -4.9453 H         1 DUY         0.0190
     77 H38       -12.6635   37.2597   -6.6564 H         1 DUY         0.0514
     78 H39       -13.2554   35.7419   -7.4130 H         1 DUY         0.0514
@<TRIPOS>BOND
     1    1    2 1  
     2    1   19 2  
     3   24    1 am 
     4    2   11 1  
     5    2   20 1  
     6   20    3 am 
     7    3   21 1  
     8    3   23 2  
     9   18    4 ar 
    10   22    5 1  
    11   22    6 1  
    12   28    7 2  
    13   22    8 1  
    14    9   10 1  
    15   20    9 1  
    16   11   10 1  
    17   12   13 1  
    18   12   18 1  
    19   29   12 1  
    20   13   14 1  
    21   13   17 1  
    22   14   15 1  
    23   16   15 1  
    24   17   16 1  
    25   18   30 ar 
    26   21   22 1  
    27   25   24 1  
    28   24   39 1  
    29   26   25 1  
    30   27   26 1  
    31   28   27 1  
    32   27   31 1  
    33   27   38 1  
    34   28   29 am 
    35   31   32 ar 
    36   31   37 ar 
    37   32   33 ar 
    38   33   34 ar 
    39   34   35 1  
    40   34   36 ar 
    41   36   37 ar 
    42   38   39 1  
    43    2   40 1  
    44    5   41 1  
    45    5   42 1  
    46    5   43 1  
    47    6   44 1  
    48    6   45 1  
    49    6   46 1  
    50    8   47 1  
    51    8   48 1  
    52    8   49 1  
    53    9   50 1  
    54    9   51 1  
    55   10   52 1  
    56   10   53 1  
    57   11   54 1  
    58   11   55 1  
    59   12   56 1  
    60   13   57 1  
    61   14   58 1  
    62   14   59 1  
    63   15   60 1  
    64   15   61 1  
    65   16   62 1  
    66   16   63 1  
    67   17   64 1  
    68   17   65 1  
    69   25   66 1  
    70   25   67 1  
    71   26   68 1  
    72   26   69 1  
    73   29   70 1  
    74   32   71 1  
    75   33   72 1  
    76   36   73 1  
    77   37   74 1  
    78   38   75 1  
    79   38   76 1  
    80   39   77 1  
    81   39   78 1  
@<TRIPOS>SUBSTRUCTURE
     1 DUY         1

