### 
### Created by X-TOOL on Mon Aug  2 16:12:39 2021
### 

@<TRIPOS>MOLECULE
6bke_ligand
   67    72     1     0     0
SMALL
GAST_HUCK


@<TRIPOS>ATOM
      1 C4         37.8620   25.4880   17.6090 C.3       1 DVJ         0.1043
      2 C6         35.4940   26.1780   17.7520 C.2       1 DVJ         0.1063
      3 C11        35.0120   27.9600   13.4200 C.2       1 DVJ         0.1390
      4 C7         34.5630   26.6960   16.9370 C.2       1 DVJ        -0.0206
      5 C8         35.1390   26.8800   15.6670 C.2       1 DVJ         0.0946
      6 C12        36.2920   27.6980   13.0050 C.2       1 DVJ        -0.0178
      7 C13        36.7930   28.3090   11.8290 C.2       1 DVJ         0.0508
      8 N2         36.6020   25.1800   19.7030 N.4       1 DVJ         0.2502
      9 C3         37.8080   25.7820   19.1130 C.3       1 DVJ        -0.0016
     10 C1         36.6640   25.2370   21.1720 C.3       1 DVJ        -0.0413
     11 N5         36.6290   26.0280   17.0320 N.pl3     1 DVJ        -0.2096
     12 N9         36.3870   26.4710   15.7310 N.2       1 DVJ        -0.2267
     13 N10        34.4430   27.3960   14.5640 N.pl3     1 DVJ        -0.2684
     14 N14        36.0300   29.1250   11.1390 N.2       1 DVJ        -0.1852
     15 N15        34.7200   29.4040   11.5390 N.am      1 DVJ        -0.1658
     16 C17        34.2130   28.8390   12.6500 C.2       1 DVJ         0.2618
     17 O18        33.0670   29.0870   12.9950 O.2       1 DVJ        -0.4005
     18 C19        38.1830   28.0230   11.3730 C.ar      1 DVJ        -0.0216
     19 C20        39.2130   27.9270   12.3090 C.ar      1 DVJ        -0.0770
     20 C21        40.5040   27.6540   11.8970 C.ar      1 DVJ        -0.0831
     21 C22        40.7910   27.4740   10.5560 C.ar      1 DVJ        -0.0487
     22 C23        39.7740   27.5620    9.6160 C.ar      1 DVJ         0.0677
     23 C24        38.4760   27.8300   10.0210 C.ar      1 DVJ        -0.0116
     24 C25        37.4110   27.9270    8.9620 C.3       1 DVJ         0.0007
     25 C26        37.4750   29.3410    8.3750 C.3       1 DVJ         0.0518
     26 O27        36.5900   29.4420    7.2560 O.3       1 DVJ        -0.3932
     27 N28        40.0360   27.3790    8.2530 N.am      1 DVJ        -0.2366
     28 C29        40.6890   28.3020    7.5190 C.2       1 DVJ         0.2398
     29 O30        41.0770   29.3340    8.0350 O.2       1 DVJ        -0.3755
     30 C31        40.9300   28.0470    6.0900 C.2       1 DVJ         0.1106
     31 C32        40.5300   26.9500    5.4400 C.2       1 DVJ        -0.0359
     32 C33        40.8610   26.8920    4.0760 C.ar      1 DVJ        -0.0147
     33 C34        40.5760   25.8730    3.1340 C.ar      1 DVJ        -0.0623
     34 C35        40.9810   25.9940    1.8410 C.ar      1 DVJ        -0.0688
     35 C36        41.6820   27.1180    1.4190 C.ar      1 DVJ        -0.0679
     36 C37        41.9740   28.1240    2.3090 C.ar      1 DVJ        -0.0469
     37 C38        41.5670   28.0220    3.6460 C.ar      1 DVJ         0.0418
     38 S39        41.7850   29.1230    5.0010 S.3       1 DVJ        -0.0226
     39 C40        35.3590   25.8120   19.2110 C.3       1 DVJ         0.0287
     40 H1         37.9184   24.4031   17.4362 H         1 DVJ         0.0675
     41 H2         38.7379   25.9772   17.1579 H         1 DVJ         0.0675
     42 H3         33.5363   26.9336   17.2117 H         1 DVJ         0.0220
     43 H4         36.9231   27.0209   13.5787 H         1 DVJ         0.0467
     44 H5         36.5799   24.2100   19.4296 H         1 DVJ         0.2049
     45 H6         37.7855   26.8704   19.2704 H         1 DVJ         0.0842
     46 H7         38.7001   25.3597   19.5985 H         1 DVJ         0.0842
     47 H8         35.7557   24.7832   21.5952 H         1 DVJ         0.0778
     48 H9         36.7348   26.2859   21.4956 H         1 DVJ         0.0778
     49 H10        37.5478   24.6844   21.5234 H         1 DVJ         0.0778
     50 H11        33.4145   27.3551   14.6012 H         1 DVJ         0.2092
     51 H12        34.1565   30.0270   10.9965 H         1 DVJ         0.2663
     52 H13        39.0003   28.0669   13.3627 H         1 DVJ         0.0463
     53 H14        41.2982   27.5804   12.6311 H         1 DVJ         0.0520
     54 H15        41.8068   27.2649   10.2404 H         1 DVJ         0.0471
     55 H16        36.4209   27.7494    9.4072 H         1 DVJ         0.0422
     56 H17        37.5969   27.1837    8.1728 H         1 DVJ         0.0422
     57 H18        38.5033   29.5542    8.0476 H         1 DVJ         0.0577
     58 H19        37.1764   30.0692    9.1435 H         1 DVJ         0.0577
     59 H20        36.6343   30.3204    6.8969 H         1 DVJ         0.2096
     60 H21        39.7290   26.5368    7.8098 H         1 DVJ         0.2226
     61 H22        39.9817   26.1509    5.9367 H         1 DVJ         0.0546
     62 H23        40.0307   24.9896    3.4461 H         1 DVJ         0.0594
     63 H24        40.7548   25.2057    1.1322 H         1 DVJ         0.0564
     64 H25        41.9990   27.2012    0.3857 H         1 DVJ         0.0589
     65 H26        42.5207   28.9987    1.9757 H         1 DVJ         0.0576
     66 H27        34.5225   25.1080   19.3318 H         1 DVJ         0.1028
     67 H28        35.1596   26.7221   19.7957 H         1 DVJ         0.1028
@<TRIPOS>BOND
     1    1    9 1  
     2   11    1 1  
     3    4    2 2  
     4    2   11 1  
     5    2   39 1  
     6    3    6 2  
     7   13    3 1  
     8    3   16 1  
     9    5    4 1  
    10    5   12 2  
    11    5   13 1  
    12    6    7 1  
    13    7   14 2  
    14    7   18 1  
    15    9    8 1  
    16    8   10 1  
    17    8   39 1  
    18   11   12 1  
    19   14   15 1  
    20   15   16 am 
    21   16   17 2  
    22   18   19 ar 
    23   18   23 ar 
    24   19   20 ar 
    25   20   21 ar 
    26   21   22 ar 
    27   22   23 ar 
    28   22   27 1  
    29   23   24 1  
    30   24   25 1  
    31   25   26 1  
    32   27   28 am 
    33   28   29 2  
    34   28   30 1  
    35   30   31 2  
    36   30   38 1  
    37   31   32 1  
    38   32   33 ar 
    39   32   37 ar 
    40   33   34 ar 
    41   34   35 ar 
    42   35   36 ar 
    43   36   37 ar 
    44   37   38 1  
    45    1   40 1  
    46    1   41 1  
    47    4   42 1  
    48    6   43 1  
    49    8   44 1  
    50    9   45 1  
    51    9   46 1  
    52   10   47 1  
    53   10   48 1  
    54   10   49 1  
    55   13   50 1  
    56   15   51 1  
    57   19   52 1  
    58   20   53 1  
    59   21   54 1  
    60   24   55 1  
    61   24   56 1  
    62   25   57 1  
    63   25   58 1  
    64   26   59 1  
    65   27   60 1  
    66   31   61 1  
    67   33   62 1  
    68   34   63 1  
    69   35   64 1  
    70   36   65 1  
    71   39   66 1  
    72   39   67 1  
@<TRIPOS>SUBSTRUCTURE
     1 DVJ         1

