### 
### Created by X-TOOL on Mon Aug  2 16:12:39 2021
### 

@<TRIPOS>MOLECULE
6bkh_ligand
   64    69     1     0     0
SMALL
GAST_HUCK


@<TRIPOS>ATOM
      1 C4         95.1200  113.7950  -17.8640 C.3       1 DVD         0.1043
      2 C6         94.5310  111.3890  -18.1070 C.2       1 DVD         0.1063
      3 C11        95.8120  110.1930  -13.8270 C.2       1 DVD         0.1390
      4 C7         94.5120  110.3070  -17.3350 C.2       1 DVD        -0.0206
      5 C8         94.9600  110.7180  -16.0650 C.2       1 DVD         0.0946
      6 C12        96.2910  111.4470  -13.4840 C.2       1 DVD        -0.0178
      7 C13        97.0360  111.5310  -12.2750 C.2       1 DVD         0.0509
      8 N2         94.1840  112.9220  -19.9980 N.4       1 DVD         0.2502
      9 C3         95.2800  113.6960  -19.3970 C.3       1 DVD        -0.0016
     10 C1         94.2180  112.9980  -21.4720 C.3       1 DVD        -0.0413
     11 C17        96.0650  109.0760  -13.0110 C.2       1 DVD         0.2618
     12 C19        97.6250  112.7910  -11.7830 C.ar      1 DVD        -0.0195
     13 C20        98.3770  113.5640  -12.6640 C.ar      1 DVD        -0.0769
     14 C21        98.9390  114.7480  -12.2410 C.ar      1 DVD        -0.0831
     15 C22        98.7610  115.1360  -10.9280 C.ar      1 DVD        -0.0486
     16 C23        98.0290  114.3780  -10.0240 C.ar      1 DVD         0.0698
     17 C24        97.4480  113.1780  -10.4380 C.ar      1 DVD         0.0115
     18 C25        96.5910  112.3720   -9.4880 C.3       1 DVD         0.0749
     19 C28        98.8160  114.7700   -7.7570 C.2       1 DVD         0.2398
     20 C30        98.5850  115.1810   -6.3640 C.2       1 DVD         0.1106
     21 C31        97.4160  115.4860   -5.7350 C.2       1 DVD        -0.0359
     22 C32        97.5690  115.8070   -4.3630 C.ar      1 DVD        -0.0147
     23 C33        96.6020  116.1870   -3.4120 C.ar      1 DVD        -0.0623
     24 C34        96.9550  116.4600   -2.1260 C.ar      1 DVD        -0.0688
     25 C35        98.2720  116.3710   -1.7050 C.ar      1 DVD        -0.0679
     26 C36        99.2520  115.9990   -2.5940 C.ar      1 DVD        -0.0469
     27 C37        98.9040  115.7180   -3.9090 C.ar      1 DVD         0.0418
     28 C39        94.1710  111.4970  -19.5760 C.3       1 DVD         0.0287
     29 N10        95.0820  109.9090  -14.9690 N.pl3     1 DVD        -0.2684
     30 N14        97.2580  110.4660  -11.5300 N.2       1 DVD        -0.1852
     31 N15        96.7690  109.2260  -11.8880 N.am      1 DVD        -0.1658
     32 N27        97.8360  114.7950   -8.6920 N.am      1 DVD        -0.2365
     33 N5         94.9690  112.4210  -17.3750 N.pl3     1 DVD        -0.2096
     34 N9         95.2330  111.9930  -16.0900 N.2       1 DVD        -0.2267
     35 O18        95.6390  107.9480  -13.3240 O.2       1 DVD        -0.4005
     36 O26        97.2760  111.7210   -8.4150 O.3       1 DVD        -0.3848
     37 O29        99.9410  114.3630   -8.0450 O.2       1 DVD        -0.3755
     38 S38        99.9360  115.2320   -5.2360 S.3       1 DVD        -0.0226
     39 H1         94.2290  114.3888  -17.6118 H         1 DVD         0.0675
     40 H2         96.0103  114.2621  -17.4177 H         1 DVD         0.0675
     41 H3         94.2099  109.3023  -17.6269 H         1 DVD         0.0220
     42 H4         96.1071  112.3214  -14.1065 H         1 DVD         0.0467
     43 H5         93.3206  113.3383  -19.6863 H         1 DVD         0.2049
     44 H6         96.2357  113.2022  -19.6267 H         1 DVD         0.0842
     45 H7         95.2792  114.7098  -19.8239 H         1 DVD         0.0842
     46 H8         93.3871  112.4098  -21.8887 H         1 DVD         0.0778
     47 H9         95.1732  112.5936  -21.8381 H         1 DVD         0.0778
     48 H10        94.1190  114.0471  -21.7875 H         1 DVD         0.0778
     49 H11        98.5205  113.2327  -13.6861 H         1 DVD         0.0463
     50 H12        99.5104  115.3638  -12.9261 H         1 DVD         0.0520
     51 H13        99.2081  116.0643  -10.5914 H         1 DVD         0.0471
     52 H14        96.0761  111.5978  -10.0757 H         1 DVD         0.0694
     53 H15        95.8478  113.0527   -9.0472 H         1 DVD         0.0694
     54 H16        96.4514  115.4834   -6.2404 H         1 DVD         0.0546
     55 H17        95.5621  116.2631   -3.7084 H         1 DVD         0.0594
     56 H18        96.1897  116.7532   -1.4165 H         1 DVD         0.0564
     57 H19        98.5291  116.5944   -0.6759 H         1 DVD         0.0589
     58 H20       100.2847  115.9257   -2.2726 H         1 DVD         0.0576
     59 H21        93.1666  111.0785  -19.7369 H         1 DVD         0.1028
     60 H22        94.9030  110.9334  -20.1731 H         1 DVD         0.1028
     61 H23        94.5859  109.0067  -14.9954 H         1 DVD         0.2092
     62 H24        96.9436  108.4349  -11.3017 H         1 DVD         0.2663
     63 H25        96.9312  115.1256   -8.4237 H         1 DVD         0.2226
     64 H26        96.6489  111.2461   -7.8823 H         1 DVD         0.2122
@<TRIPOS>BOND
     1    1    9 1  
     2   33    1 1  
     3    4    2 2  
     4    2   28 1  
     5    2   33 1  
     6    6    3 2  
     7    3   11 1  
     8    3   29 1  
     9    5    4 1  
    10   29    5 1  
    11    5   34 2  
    12    7    6 1  
    13   12    7 1  
    14    7   30 2  
    15    8    9 1  
    16    8   10 1  
    17   28    8 1  
    18   11   31 am 
    19   11   35 2  
    20   12   13 ar 
    21   17   12 ar 
    22   14   13 ar 
    23   15   14 ar 
    24   16   15 ar 
    25   16   17 ar 
    26   32   16 1  
    27   17   18 1  
    28   18   36 1  
    29   19   20 1  
    30   19   32 am 
    31   19   37 2  
    32   20   21 2  
    33   20   38 1  
    34   21   22 1  
    35   22   23 ar 
    36   22   27 ar 
    37   23   24 ar 
    38   24   25 ar 
    39   25   26 ar 
    40   26   27 ar 
    41   27   38 1  
    42   30   31 1  
    43   33   34 1  
    44    1   39 1  
    45    1   40 1  
    46    4   41 1  
    47    6   42 1  
    48    8   43 1  
    49    9   44 1  
    50    9   45 1  
    51   10   46 1  
    52   10   47 1  
    53   10   48 1  
    54   13   49 1  
    55   14   50 1  
    56   15   51 1  
    57   18   52 1  
    58   18   53 1  
    59   21   54 1  
    60   23   55 1  
    61   24   56 1  
    62   25   57 1  
    63   26   58 1  
    64   28   59 1  
    65   28   60 1  
    66   29   61 1  
    67   31   62 1  
    68   32   63 1  
    69   36   64 1  
@<TRIPOS>SUBSTRUCTURE
     1 DVD         1

