### 
### Created by X-TOOL on Mon Aug  2 16:10:36 2021
### 

@<TRIPOS>MOLECULE
6bkw_ligand
   60    64     1     0     0
SMALL
GAST_HUCK


@<TRIPOS>ATOM
      1 C4         42.5550  -17.9360   10.8650 C.2       1 DXM        -0.0067
      2 C5         43.1090  -18.1220    9.6670 C.2       1 DXM         0.0916
      3 C6         42.7970  -14.8300    8.0390 C.3       1 DXM         0.0489
      4 N1         41.2710  -18.8190   14.9050 N.pl3     1 DXM        -0.2141
      5 C7         42.1770  -15.6430   10.2550 C.2       1 DXM         0.2523
      6 C8         43.6550  -19.4420    9.2080 C.ar      1 DXM         0.0450
      7 N2         41.6390  -18.4750   13.6120 N.2       1 DXM        -0.2277
      8 C9         43.5300  -19.8760    7.8740 C.ar      1 DXM         0.1724
      9 C10        44.0180  -21.0990    7.4570 C.ar      1 DXM         0.1422
     10 C11        44.8860  -21.6230    5.2690 C.2       1 DXM         0.2225
     11 C12        44.7180  -22.0140    3.8360 C.2       1 DXM         0.0914
     12 N3         41.4840  -16.4030   12.4090 N.2       1 DXM        -0.3122
     13 C13        43.6310  -22.3130    3.2150 C.2       1 DXM        -0.0621
     14 C14        43.8080  -22.5640    1.9590 C.2       1 DXM        -0.0505
     15 C15        45.0960  -22.5170    1.5980 C.2       1 DXM         0.0190
     16 N4         43.1970  -17.1330    8.7620 N.pl3     1 DXM        -0.2004
     17 C1         41.5490  -20.2250   15.2960 C.3       1 DXM         0.0571
     18 C16        45.6070  -22.7880    0.1960 C.3       1 DXM        -0.0083
     19 C17        44.5650  -23.5050   -0.6440 C.3       1 DXM        -0.0409
     20 C18        43.2080  -22.8340   -0.5040 C.3       1 DXM        -0.0465
     21 C19        42.7200  -22.8810    0.9390 C.3       1 DXM        -0.0348
     22 C2         41.3170  -17.1720   13.5440 C.2       1 DXM         0.0505
     23 C20        44.6480  -21.8930    8.3830 C.ar      1 DXM         0.1587
     24 C21        44.7890  -21.4880    9.7010 C.ar      1 DXM        -0.0365
     25 C22        44.2960  -20.2590   10.1230 C.ar      1 DXM        -0.0594
     26 C23        40.7480  -16.6960   14.7140 C.2       1 DXM        -0.0396
     27 C24        40.7410  -17.7930   15.5510 C.2       1 DXM         0.0627
     28 C25        40.1650  -17.6410   16.9360 C.3       1 DXM        -0.0028
     29 C3         42.0830  -16.7540   11.2190 C.2       1 DXM         0.0925
     30 F1         42.9230  -19.1190    6.9470 F         1 DXM        -0.1865
     31 F2         45.1380  -23.0990    8.0240 F         1 DXM        -0.1882
     32 N5         42.7050  -15.8720    9.0620 N.am      1 DXM        -0.1650
     33 N6         43.8520  -21.4860    6.1030 N.am      1 DXM        -0.2351
     34 O1         41.7230  -14.5040   10.5560 O.2       1 DXM        -0.3684
     35 O2         46.0140  -21.4030    5.7120 O.2       1 DXM        -0.3874
     36 S1         46.0970  -22.0870    2.8610 S.3       1 DXM        -0.0333
     37 H1         42.4905  -18.7703   11.5619 H         1 DXM         0.0395
     38 H2         43.2672  -15.2443    7.1350 H         1 DXM         0.0511
     39 H3         43.4049  -13.9957    8.4190 H         1 DXM         0.0511
     40 H4         41.7881  -14.4667    7.7938 H         1 DXM         0.0511
     41 H5         42.6568  -22.3509    3.7003 H         1 DXM         0.0472
     42 H6         43.6302  -17.3117    7.8448 H         1 DXM         0.2220
     43 H7         41.2204  -20.3890   16.3329 H         1 DXM         0.0594
     44 H8         42.6287  -20.4206   15.2182 H         1 DXM         0.0594
     45 H9         41.0037  -20.9065   14.6265 H         1 DXM         0.0594
     46 H10        46.5091  -23.4143    0.2586 H         1 DXM         0.0446
     47 H11        45.8577  -21.8310   -0.2849 H         1 DXM         0.0446
     48 H12        44.4875  -24.5498   -0.3089 H         1 DXM         0.0291
     49 H13        44.8728  -23.4804   -1.6998 H         1 DXM         0.0291
     50 H14        42.4819  -23.3541   -1.1461 H         1 DXM         0.0281
     51 H15        43.2918  -21.7840   -0.8210 H         1 DXM         0.0281
     52 H16        41.9084  -22.1478    1.0562 H         1 DXM         0.0350
     53 H17        42.3344  -23.8907    1.1435 H         1 DXM         0.0350
     54 H18        45.2894  -22.1370   10.4105 H         1 DXM         0.0554
     55 H19        44.4119  -19.9448   11.1540 H         1 DXM         0.0540
     56 H20        40.3894  -15.6895   14.9244 H         1 DXM         0.0234
     57 H21        39.8257  -16.6046   17.0803 H         1 DXM         0.0437
     58 H22        40.9364  -17.8815   17.6824 H         1 DXM         0.0437
     59 H23        39.3126  -18.3258   17.0558 H         1 DXM         0.0437
     60 H24        42.9290  -21.6624    5.7609 H         1 DXM         0.2218
@<TRIPOS>BOND
     1    1    2 2  
     2   29    1 1  
     3    2    6 1  
     4    2   16 1  
     5   32    3 1  
     6    7    4 1  
     7    4   17 1  
     8    4   27 1  
     9   29    5 1  
    10    5   32 am 
    11    5   34 2  
    12    6    8 ar 
    13    6   25 ar 
    14   22    7 2  
    15    8    9 ar 
    16    8   30 1  
    17    9   23 ar 
    18    9   33 1  
    19   10   11 1  
    20   33   10 am 
    21   10   35 2  
    22   11   13 2  
    23   11   36 1  
    24   12   22 1  
    25   12   29 2  
    26   13   14 1  
    27   14   15 2  
    28   14   21 1  
    29   15   18 1  
    30   15   36 1  
    31   16   32 1  
    32   18   19 1  
    33   19   20 1  
    34   20   21 1  
    35   22   26 1  
    36   23   24 ar 
    37   23   31 1  
    38   24   25 ar 
    39   26   27 2  
    40   27   28 1  
    41    1   37 1  
    42    3   38 1  
    43    3   39 1  
    44    3   40 1  
    45   13   41 1  
    46   16   42 1  
    47   17   43 1  
    48   17   44 1  
    49   17   45 1  
    50   18   46 1  
    51   18   47 1  
    52   19   48 1  
    53   19   49 1  
    54   20   50 1  
    55   20   51 1  
    56   21   52 1  
    57   21   53 1  
    58   24   54 1  
    59   25   55 1  
    60   26   56 1  
    61   28   57 1  
    62   28   58 1  
    63   28   59 1  
    64   33   60 1  
@<TRIPOS>SUBSTRUCTURE
     1 DXM         1

