### 
### Created by X-TOOL on Wed Jan  1 15:39:35 2020
### 

@<TRIPOS>MOLECULE
6bkx_ligand
   48    51     1     0     0
SMALL
GAST_HUCK


@<TRIPOS>ATOM
      1 C4         31.7150   19.9450   -8.5690 C.3       1 DWP        -0.0384
      2 C5         30.4220   19.2110   -8.8520 C.3       1 DWP         0.0031
      3 C6         30.6300   18.1910   -9.9390 C.ar      1 DWP         0.0244
      4 C7         29.7210   17.1680  -10.0860 C.ar      1 DWP         0.0559
      5 C13        28.8570   12.4170  -12.7190 C.ar      1 DWP        -0.0715
      6 C15        29.3000   12.9820  -15.0020 C.ar      1 DWP        -0.0715
      7 C20        33.3770   21.5430   -9.6830 C.3       1 DWP         0.0288
      8 C22        32.7100   22.8100   -9.1650 C.3       1 DWP        -0.0467
      9 C24        33.5100   21.2410  -12.2280 C.3       1 DWP         0.1495
     10 C25        34.3250   21.5240  -13.3990 C.1       1 DWP         0.1131
     11 C14        28.6850   12.1820  -14.0660 C.ar      1 DWP        -0.0734
     12 C12        29.6570   13.4680  -12.3020 C.ar      1 DWP        -0.0384
     13 C16        30.0840   14.0410  -14.5800 C.ar      1 DWP        -0.0384
     14 C11        30.2670   14.2890  -13.2340 C.ar      1 DWP         0.0651
     15 C18        31.7050   18.2060  -10.8200 C.ar      1 DWP         0.0291
     16 C9         30.8940   16.3050  -11.8490 C.ar      1 DWP         0.2361
     17 C23        34.0300   21.9290  -10.9990 C.2       1 DWP         0.1354
     18 C27        33.1420   19.7610  -12.1760 C.3       1 DWP        -0.0248
     19 C3         32.3140   20.4510   -9.8840 C.3       1 DWP        -0.0346
     20 C2         32.7980   19.2640  -10.7610 C.3       1 DWP        -0.0144
     21 C1         34.0320   18.5700  -10.1710 C.3       1 DWP        -0.0795
     22 N26        34.8410   21.8320  -14.3910 N.1       1 DWP        -0.3005
     23 N8         29.8260   16.2330  -11.0400 N.ar      1 DWP        -0.2172
     24 N17        31.8450   17.2450  -11.7510 N.ar      1 DWP        -0.2416
     25 N10        31.1070   15.3670  -12.8810 N.pl3     1 DWP        -0.2384
     26 O28        34.8420   22.8530  -11.0780 O.2       1 DWP        -0.3888
     27 H1         32.4256   19.2611   -8.0818 H         1 DWP         0.0295
     28 H2         31.5140   20.7989   -7.9053 H         1 DWP         0.0295
     29 H3         29.6571   19.9333   -9.1732 H         1 DWP         0.0518
     30 H4         30.0850   18.7027   -7.9366 H         1 DWP         0.0518
     31 H5         28.8834   17.1165   -9.3999 H         1 DWP         0.0960
     32 H6         28.3683   11.7820  -11.9889 H         1 DWP         0.0587
     33 H7         29.1713   12.7842  -16.0600 H         1 DWP         0.0587
     34 H8         34.1373   21.1877   -8.9719 H         1 DWP         0.0523
     35 H9         33.4702   23.5919   -9.0209 H         1 DWP         0.0257
     36 H10        32.2156   22.5981   -8.2055 H         1 DWP         0.0257
     37 H11        31.9625   23.1554   -9.8943 H         1 DWP         0.0257
     38 H12        32.5490   21.7426  -12.4148 H         1 DWP         0.0820
     39 H13        28.0592   11.3590  -14.3915 H         1 DWP         0.0518
     40 H14        29.8055   13.6477  -11.2434 H         1 DWP         0.0535
     41 H15        30.5593   14.6824  -15.3133 H         1 DWP         0.0535
     42 H16        33.9945   19.1767  -12.5527 H         1 DWP         0.0230
     43 H17        32.2691   19.5961  -12.8248 H         1 DWP         0.0230
     44 H18        31.4921   20.9293  -10.4369 H         1 DWP         0.0247
     45 H19        34.3342   17.7399  -10.8264 H         1 DWP         0.0145
     46 H20        33.7900   18.1788   -9.1718 H         1 DWP         0.0145
     47 H21        34.8568   19.2935  -10.0917 H         1 DWP         0.0145
     48 H22        31.9672   15.4810  -13.4360 H         1 DWP         0.2171
@<TRIPOS>BOND
     1    2    1 1  
     2    1   19 1  
     3    3    2 1  
     4    4    3 ar 
     5   15    3 ar 
     6   23    4 ar 
     7    5   11 ar 
     8   12    5 ar 
     9    6   11 ar 
    10   13    6 ar 
    11    7    8 1  
    12    7   17 1  
    13   19    7 1  
    14    9   10 1  
    15   17    9 1  
    16    9   18 1  
    17   10   22 3  
    18   14   12 ar 
    19   14   13 ar 
    20   25   14 1  
    21   15   20 1  
    22   24   15 ar 
    23   16   23 ar 
    24   16   24 ar 
    25   16   25 1  
    26   17   26 2  
    27   18   20 1  
    28   19   20 1  
    29   20   21 1  
    30    1   27 1  
    31    1   28 1  
    32    2   29 1  
    33    2   30 1  
    34    4   31 1  
    35    5   32 1  
    36    6   33 1  
    37    7   34 1  
    38    8   35 1  
    39    8   36 1  
    40    8   37 1  
    41    9   38 1  
    42   11   39 1  
    43   12   40 1  
    44   13   41 1  
    45   18   42 1  
    46   18   43 1  
    47   19   44 1  
    48   21   45 1  
    49   21   46 1  
    50   21   47 1  
    51   25   48 1  
@<TRIPOS>SUBSTRUCTURE
     1 DWP         1

