### 
### Created by X-TOOL on Wed Jan  1 15:39:36 2020
### 

@<TRIPOS>MOLECULE
6bky_ligand
   16    17     1     0     0
SMALL
GAST_HUCK


@<TRIPOS>ATOM
      1 BR1        19.7600   18.1760   26.4550 Br        1 K32        -0.0612
      2 C5         19.4940   16.9850   28.0180 C.ar      1 K32         0.0350
      3 C2         18.3200   16.5250   28.6350 C.ar      1 K32         0.0051
      4 BR2        16.6920   17.1150   27.7780 Br        1 K32        -0.0614
      5 C7         20.6200   16.5220   28.6550 C.ar      1 K32         0.1096
      6 N14        21.9380   16.7520   28.3210 N.am      1 K32        -0.2145
      7 C13        22.7600   16.0980   29.1930 C.2       1 K32         0.3118
      8 O10        23.9870   16.1090   29.1970 O.2       1 K32        -0.3928
      9 N6         21.9360   15.4380   30.0640 N.am      1 K32        -0.2145
     10 C8         20.6160   15.6830   29.7520 C.ar      1 K32         0.1096
     11 C4         19.4890   15.2240   30.3960 C.ar      1 K32         0.0350
     12 BR3        19.7550   14.0430   31.9660 Br        1 K32        -0.0612
     13 C3         18.3080   15.6760   29.7880 C.ar      1 K32         0.0051
     14 BR4        16.6600   15.1010   30.6450 Br        1 K32        -0.0614
     15 H1         22.2460   17.3145   27.5537 H         1 K32         0.2279
     16 H2         22.2472   14.8606   30.8188 H         1 K32         0.2279
@<TRIPOS>BOND
     1    1    2 1  
     2    2    3 ar 
     3    2    5 ar 
     4    3    4 1  
     5    3   13 ar 
     6    5    6 1  
     7    5   10 ar 
     8    6    7 am 
     9    7    8 2  
    10    7    9 am 
    11    9   10 1  
    12   10   11 ar 
    13   11   12 1  
    14   11   13 ar 
    15   13   14 1  
    16    6   15 1  
    17    9   16 1  
@<TRIPOS>SUBSTRUCTURE
     1 K32         1

