### 
### Created by X-TOOL on Wed Jan  1 15:39:36 2020
### 

@<TRIPOS>MOLECULE
6bl1_ligand
   55    59     1     0     0
SMALL
GAST_HUCK


@<TRIPOS>ATOM
      1 C4          0.8000  222.3590   70.1410 C.2       1 DWG         0.1345
      2 C5          1.8660  221.6860   70.9600 C.3       1 DWG         0.1455
      3 C6          1.4880  221.4970   72.3610 C.1       1 DWG         0.1126
      4 C8          3.2450  222.3340   70.8830 C.3       1 DWG        -0.0373
      5 C10         4.0960  222.0910   68.5950 C.ar      1 DWG        -0.0645
      6 C13         4.8930  220.1670   66.7180 C.ar      1 DWG        -0.0388
      7 C15         4.7060  222.4590   67.4070 C.ar      1 DWG        -0.0482
      8 C20         4.9470  225.3250   69.4710 C.ar      1 DWG         0.0121
      9 C21         4.8610  224.0210   69.9410 C.ar      1 DWG         0.0069
     10 C26         9.4900  223.9220   73.4750 C.ar      1 DWG        -0.0384
     11 C28        11.4820  225.2330   73.2850 C.ar      1 DWG        -0.0735
     12 C12         4.3130  219.7690   67.9010 C.ar      1 DWG        -0.0380
     13 C14         5.0940  221.5130   66.4810 C.ar      1 DWG        -0.0380
     14 C27        10.6410  224.4400   74.0390 C.ar      1 DWG        -0.0716
     15 C29        11.1660  225.5070   71.9680 C.ar      1 DWG        -0.0716
     16 C11         3.9340  220.7280   68.8160 C.ar      1 DWG        -0.0482
     17 C30        10.0130  224.9830   71.4120 C.ar      1 DWG        -0.0384
     18 C32         6.0960  226.0240   69.7670 C.ar      1 DWG         0.0465
     19 C25         9.1570  224.1910   72.1610 C.ar      1 DWG         0.0648
     20 C23         6.9750  224.2450   70.8770 C.ar      1 DWG         0.2287
     21 C19         3.8860  226.0090   68.6800 C.3       1 DWG        -0.0017
     22 C18         2.8340  225.0390   68.2020 C.3       1 DWG        -0.0438
     23 C2          1.1700  223.3100   69.0190 C.3       1 DWG         0.0248
     24 C16         2.4710  224.0530   69.2990 C.3       1 DWG        -0.0473
     25 C9          3.6600  223.1220   69.6370 C.3       1 DWG        -0.0098
     26 C1          0.0180  224.2800   68.7970 C.3       1 DWG        -0.0471
     27 N7          1.1960  221.3150   73.4690 N.1       1 DWG        -0.3005
     28 N31         7.1230  225.5090   70.4490 N.ar      1 DWG        -0.2263
     29 N22         5.8850  223.4970   70.6400 N.ar      1 DWG        -0.2520
     30 N24         7.9880  223.6140   71.6240 N.pl3     1 DWG        -0.2398
     31 O33        -0.3680  222.0500   70.3570 O.2       1 DWG        -0.3888
     32 H1          1.9761  220.6804   70.5280 H         1 DWG         0.0815
     33 H2          3.9813  221.5260   71.0057 H         1 DWG         0.0176
     34 H3          3.3164  223.0275   71.7338 H         1 DWG         0.0176
     35 H4          5.1893  219.4312   65.9792 H         1 DWG         0.0814
     36 H5          4.8815  223.5088   67.2014 H         1 DWG         0.0803
     37 H6          8.8385  223.2950   74.0728 H         1 DWG         0.0535
     38 H7         12.3862  225.6390   73.7239 H         1 DWG         0.0518
     39 H8          4.1565  218.7169   68.1102 H         1 DWG         0.0684
     40 H9          5.5623  221.8297   65.5561 H         1 DWG         0.0684
     41 H10        10.8829  224.2233   75.0732 H         1 DWG         0.0587
     42 H11        11.8208  226.1318   71.3714 H         1 DWG         0.0587
     43 H12         3.4895  220.4046   69.7503 H         1 DWG         0.0803
     44 H13         9.7755  225.1948   70.3758 H         1 DWG         0.0535
     45 H14         6.1715  227.0506   69.4273 H         1 DWG         0.0932
     46 H15         4.3481  226.4926   67.8068 H         1 DWG         0.0497
     47 H16         3.4069  226.7721   69.3110 H         1 DWG         0.0497
     48 H17         3.2214  224.4858   67.3337 H         1 DWG         0.0289
     49 H18         1.9340  225.5990   67.9082 H         1 DWG         0.0289
     50 H19         1.3107  222.7210   68.1007 H         1 DWG         0.0519
     51 H20         2.2859  224.6517   70.2030 H         1 DWG         0.0194
     52 H21        -0.9043  223.7145   68.5979 H         1 DWG         0.0257
     53 H22         0.2442  224.9272   67.9368 H         1 DWG         0.0257
     54 H23        -0.1184  224.8992   69.6959 H         1 DWG         0.0257
     55 H24         7.8593  222.6073   71.7997 H         1 DWG         0.2169
@<TRIPOS>BOND
     1    2    1 1  
     2    1   23 1  
     3    1   31 2  
     4    2    3 1  
     5    4    2 1  
     6    3   27 3  
     7   25    4 1  
     8    5    7 ar 
     9    5   16 ar 
    10   25    5 1  
    11   12    6 ar 
    12   13    6 ar 
    13    7   13 ar 
    14    9    8 ar 
    15   18    8 ar 
    16    8   21 1  
    17    9   25 1  
    18   29    9 ar 
    19   10   14 ar 
    20   19   10 ar 
    21   14   11 ar 
    22   15   11 ar 
    23   16   12 ar 
    24   17   15 ar 
    25   19   17 ar 
    26   28   18 ar 
    27   30   19 1  
    28   20   28 ar 
    29   20   29 ar 
    30   20   30 1  
    31   21   22 1  
    32   22   24 1  
    33   23   24 1  
    34   23   26 1  
    35   24   25 1  
    36    2   32 1  
    37    4   33 1  
    38    4   34 1  
    39    6   35 1  
    40    7   36 1  
    41   10   37 1  
    42   11   38 1  
    43   12   39 1  
    44   13   40 1  
    45   14   41 1  
    46   15   42 1  
    47   16   43 1  
    48   17   44 1  
    49   18   45 1  
    50   21   46 1  
    51   21   47 1  
    52   22   48 1  
    53   22   49 1  
    54   23   50 1  
    55   24   51 1  
    56   26   52 1  
    57   26   53 1  
    58   26   54 1  
    59   30   55 1  
@<TRIPOS>SUBSTRUCTURE
     1 DWG         1

