### 
### Created by X-TOOL on Wed Jan  1 15:39:36 2020
### 

@<TRIPOS>MOLECULE
6bl2_ligand
   57    61     1     0     0
SMALL
GAST_HUCK


@<TRIPOS>ATOM
      1 C4         35.2150  218.8930   44.7120 C.ar      1 DWS        -0.0249
      2 C5         35.8400  218.6680   43.5020 C.ar      1 DWS        -0.0348
      3 C6         36.6470  219.6380   42.9460 C.ar      1 DWS        -0.0459
      4 C7         36.8510  220.8530   43.5890 C.ar      1 DWS        -0.0608
      5 C8         37.7600  221.9610   43.0640 C.3       1 DWS        -0.0091
      6 C10        39.1430  222.7700   45.1130 C.3       1 DWS        -0.0438
      7 C13        36.5370  225.3670   44.1680 C.ar      1 DWS         0.0465
      8 C15        35.1490  224.5170   42.5580 C.ar      1 DWS         0.2288
      9 C17        36.9950  223.2700   43.2390 C.ar      1 DWS         0.0070
     10 C20        32.6050  225.9370   40.3510 C.ar      1 DWS        -0.0384
     11 C21        31.6460  226.9280   40.2050 C.ar      1 DWS        -0.0716
     12 C22        31.1220  227.5400   41.3270 C.ar      1 DWS        -0.0735
     13 C24        32.5220  226.1890   42.7200 C.ar      1 DWS        -0.0384
     14 C26        38.0820  221.7830   41.5700 C.3       1 DWS        -0.0372
     15 C34        39.4630  220.5700   39.8190 C.1       1 DWS         0.1126
     16 C23        31.5570  227.1690   42.5860 C.ar      1 DWS        -0.0716
     17 C36        36.2080  221.0430   44.8060 C.ar      1 DWS        -0.0338
     18 C3         35.3860  220.0900   45.3740 C.ar      1 DWS         0.0337
     19 C12        37.3620  224.2620   44.1360 C.ar      1 DWS         0.0121
     20 C19        33.0580  225.5650   41.6060 C.ar      1 DWS         0.0648
     21 C29        40.0950  220.2590   42.2410 C.2       1 DWS         0.1345
     22 C2         34.7350  220.3540   46.6830 C.2       1 DWS         0.0687
     23 C11        38.5680  224.1670   45.0090 C.3       1 DWS        -0.0017
     24 C27        39.0900  220.7080   41.2190 C.3       1 DWS         0.1455
     25 C30        39.9410  220.7160   43.6790 C.3       1 DWS         0.0248
     26 C9         39.1300  222.0210   43.7870 C.3       1 DWS        -0.0472
     27 C32        41.2980  220.7510   44.3580 C.3       1 DWS        -0.0471
     28 N35        39.7430  220.4180   38.7070 N.1       1 DWS        -0.3005
     29 N14        35.4390  225.5150   43.4120 N.ar      1 DWS        -0.2263
     30 N16        35.8970  223.4130   42.4740 N.ar      1 DWS        -0.2520
     31 N18        34.0220  224.5390   41.7120 N.pl3     1 DWS        -0.2398
     32 O37        35.3350  221.1780   47.4360 O.co2     1 DWS        -0.5601
     33 O33        40.9910  219.5000   41.8920 O.2       1 DWS        -0.3888
     34 O1         33.6500  219.7530   46.9410 O.co2     1 DWS        -0.5601
     35 H1         34.5857  218.1235   45.1444 H         1 DWS         0.0845
     36 H2         35.6958  217.7251   42.9869 H         1 DWS         0.0690
     37 H3         37.1293  219.4501   41.9935 H         1 DWS         0.0821
     38 H4         38.5497  222.2002   45.8432 H         1 DWS         0.0289
     39 H5         40.1830  222.8442   45.4635 H         1 DWS         0.0289
     40 H6         36.7933  226.1697   44.8500 H         1 DWS         0.0932
     41 H7         33.0056  225.4468   39.4710 H         1 DWS         0.0535
     42 H8         31.3098  227.2205   39.2168 H         1 DWS         0.0587
     43 H9         30.3687  228.3122   41.2204 H         1 DWS         0.0518
     44 H10        32.8635  225.9053   43.7089 H         1 DWS         0.0535
     45 H11        38.4714  222.7412   41.1956 H         1 DWS         0.0177
     46 H12        37.1421  221.5416   41.0520 H         1 DWS         0.0177
     47 H13        31.1418  227.6461   43.4664 H         1 DWS         0.0587
     48 H14        36.3580  221.9790   45.3318 H         1 DWS         0.0840
     49 H15        39.3440  224.8312   44.6007 H         1 DWS         0.0497
     50 H16        38.2915  224.5036   46.0191 H         1 DWS         0.0497
     51 H17        38.4129  219.8438   41.2876 H         1 DWS         0.0815
     52 H18        39.3514  219.9473   44.1999 H         1 DWS         0.0519
     53 H19        39.7076  222.7015   43.1442 H         1 DWS         0.0194
     54 H20        41.7985  219.7802   44.2273 H         1 DWS         0.0257
     55 H21        41.1660  220.9539   45.4310 H         1 DWS         0.0257
     56 H22        41.9130  221.5441   43.9078 H         1 DWS         0.0257
     57 H23        33.8870  223.7176   41.1054 H         1 DWS         0.2169
@<TRIPOS>BOND
     1    2    1 ar 
     2   18    1 ar 
     3    3    2 ar 
     4    4    3 ar 
     5    5    4 1  
     6    4   17 ar 
     7    9    5 1  
     8    5   14 1  
     9    5   26 1  
    10   23    6 1  
    11   26    6 1  
    12    7   19 ar 
    13   29    7 ar 
    14    8   29 ar 
    15    8   30 ar 
    16   31    8 1  
    17    9   19 ar 
    18   30    9 ar 
    19   10   11 ar 
    20   20   10 ar 
    21   11   12 ar 
    22   16   12 ar 
    23   13   16 ar 
    24   20   13 ar 
    25   14   24 1  
    26   24   15 1  
    27   15   28 3  
    28   17   18 ar 
    29   18   22 1  
    30   19   23 1  
    31   20   31 1  
    32   24   21 1  
    33   21   25 1  
    34   21   33 2  
    35   22   32 ar 
    36   22   34 ar 
    37   25   26 1  
    38   25   27 1  
    39    1   35 1  
    40    2   36 1  
    41    3   37 1  
    42    6   38 1  
    43    6   39 1  
    44    7   40 1  
    45   10   41 1  
    46   11   42 1  
    47   12   43 1  
    48   13   44 1  
    49   14   45 1  
    50   14   46 1  
    51   16   47 1  
    52   17   48 1  
    53   23   49 1  
    54   23   50 1  
    55   24   51 1  
    56   25   52 1  
    57   26   53 1  
    58   27   54 1  
    59   27   55 1  
    60   27   56 1  
    61   31   57 1  
@<TRIPOS>SUBSTRUCTURE
     1 DWS         1

