### 
### Created by X-TOOL on Mon Aug  2 16:12:39 2021
### 

@<TRIPOS>MOLECULE
6bln_ligand
   57    61     1     0     0
SMALL
GAST_HUCK


@<TRIPOS>ATOM
      1 C4         -5.9250  -45.3270  -10.4730 C.2       1 DY4         0.0211
      2 C5         -6.1490  -45.9310   -9.2380 C.2       1 DY4         0.0999
      3 C6         -7.7760  -43.8390   -9.9710 C.2       1 DY4         0.2500
      4 N1         -4.4240  -44.6810  -14.4270 N.pl3     1 DY4        -0.2258
      5 C7         -5.2660  -47.0300   -8.7580 C.ar      1 DY4         0.0131
      6 C8         -4.8560  -47.0840   -7.4230 C.ar      1 DY4         0.1550
      7 N2         -4.9440  -44.7640  -13.1640 N.2       1 DY4        -0.2358
      8 C9         -4.0000  -48.0970   -6.9920 C.ar      1 DY4         0.1308
      9 C10        -3.9490  -49.1710   -4.8300 C.2       1 DY4         0.2224
     10 C11        -3.5650  -49.1980   -3.3870 C.2       1 DY4         0.0914
     11 C12        -2.8450  -48.3630   -2.6920 C.2       1 DY4        -0.0621
     12 N3         -6.6580  -43.5630  -12.0580 N.pl3     1 DY4        -0.2873
     13 C13        -2.7030  -48.6540   -1.4300 C.2       1 DY4        -0.0505
     14 C14        -3.3730  -49.7730   -1.1070 C.2       1 DY4         0.0190
     15 C15        -3.4230  -50.3840    0.2790 C.3       1 DY4        -0.0083
     16 N4         -7.1170  -45.5010   -8.4280 N.2       1 DY4        -0.1647
     17 C1         -3.3270  -45.6140  -14.7650 C.3       1 DY4         0.0526
     18 C16        -2.2950  -49.8230    1.1380 C.3       1 DY4        -0.0409
     19 C17        -2.2740  -48.3000    1.0240 C.3       1 DY4        -0.0465
     20 C18        -1.9190  -47.8490   -0.3860 C.3       1 DY4        -0.0348
     21 C19        -3.5560  -48.9990   -7.9100 C.ar      1 DY4         0.1476
     22 C2         -5.8890  -43.8230  -13.1640 C.2       1 DY4         0.0749
     23 C20        -3.9100  -48.9590   -9.2320 C.ar      1 DY4        -0.0475
     24 C21        -4.7640  -47.9530   -9.6610 C.ar      1 DY4        -0.0750
     25 C22        -5.9790  -43.1270  -14.3610 C.2       1 DY4        -0.0313
     26 C23        -4.9880  -43.7060  -15.1160 C.2       1 DY4         0.0567
     27 C24        -4.7110  -43.1760  -16.5060 C.3       1 DY4        -0.0041
     28 C3         -6.7420  -44.2760  -10.8960 C.3       1 DY4         0.1702
     29 F1         -5.2950  -46.2090   -6.5260 F         1 DY4        -0.1966
     30 F2         -2.7040  -49.9600   -7.4800 F         1 DY4        -0.1967
     31 N5         -7.9600  -44.4540   -8.8160 N.2       1 DY4        -0.1299
     32 N6         -3.6210  -48.1450   -5.6240 N.am      1 DY4        -0.2369
     33 O1         -8.5520  -42.8960  -10.2980 O.2       1 DY4        -0.3669
     34 O2         -4.6030  -50.0980   -5.3200 O.2       1 DY4        -0.3873
     35 S1         -4.1590  -50.4500   -2.4270 S.3       1 DY4        -0.0333
     36 H1         -5.1123  -45.6744  -11.1092 H         1 DY4         0.1042
     37 H2         -2.3913  -47.4789   -3.1375 H         1 DY4         0.0472
     38 H3         -7.2487  -42.7208  -12.1107 H         1 DY4         0.1792
     39 H4         -3.3122  -51.4755    0.2000 H         1 DY4         0.0446
     40 H5         -4.3897  -50.1465    0.7470 H         1 DY4         0.0446
     41 H6         -3.0051  -45.4409  -15.8025 H         1 DY4         0.0583
     42 H7         -3.6810  -46.6500  -14.6590 H         1 DY4         0.0583
     43 H8         -2.4791  -45.4448  -14.0850 H         1 DY4         0.0583
     44 H9         -1.3336  -50.2295    0.7910 H         1 DY4         0.0291
     45 H10        -2.4568  -50.1094    2.1876 H         1 DY4         0.0291
     46 H11        -1.5273  -47.8996    1.7255 H         1 DY4         0.0281
     47 H12        -3.2685  -47.9087    1.2842 H         1 DY4         0.0281
     48 H13        -2.1635  -46.7821   -0.4954 H         1 DY4         0.0350
     49 H14        -0.8416  -47.9971   -0.5512 H         1 DY4         0.0350
     50 H15        -3.5311  -49.6978   -9.9289 H         1 DY4         0.0526
     51 H16        -5.0396  -47.8890  -10.7074 H         1 DY4         0.0449
     52 H17        -6.6627  -42.3243  -14.6333 H         1 DY4         0.0206
     53 H18        -5.4001  -42.3474  -16.7265 H         1 DY4         0.0437
     54 H19        -4.8581  -43.9807  -17.2413 H         1 DY4         0.0437
     55 H20        -3.6736  -42.8145  -16.5606 H         1 DY4         0.0437
     56 H21        -7.4149  -44.9971  -11.3830 H         1 DY4         0.1074
     57 H22        -3.0918  -47.3874   -5.2418 H         1 DY4         0.2217
@<TRIPOS>BOND
     1    1    2 2  
     2   28    1 1  
     3    2    5 1  
     4    2   16 1  
     5   28    3 1  
     6    3   31 1  
     7    3   33 2  
     8    7    4 1  
     9    4   17 1  
    10    4   26 1  
    11    5    6 ar 
    12    5   24 ar 
    13    6    8 ar 
    14    6   29 1  
    15   22    7 2  
    16    8   21 ar 
    17    8   32 1  
    18    9   10 1  
    19   32    9 am 
    20    9   34 2  
    21   10   11 2  
    22   10   35 1  
    23   11   13 1  
    24   12   22 1  
    25   12   28 1  
    26   13   14 2  
    27   13   20 1  
    28   14   15 1  
    29   14   35 1  
    30   15   18 1  
    31   16   31 2  
    32   18   19 1  
    33   19   20 1  
    34   21   23 ar 
    35   21   30 1  
    36   22   25 1  
    37   23   24 ar 
    38   25   26 2  
    39   26   27 1  
    40    1   36 1  
    41   11   37 1  
    42   12   38 1  
    43   15   39 1  
    44   15   40 1  
    45   17   41 1  
    46   17   42 1  
    47   17   43 1  
    48   18   44 1  
    49   18   45 1  
    50   19   46 1  
    51   19   47 1  
    52   20   48 1  
    53   20   49 1  
    54   23   50 1  
    55   24   51 1  
    56   25   52 1  
    57   27   53 1  
    58   27   54 1  
    59   27   55 1  
    60   28   56 1  
    61   32   57 1  
@<TRIPOS>SUBSTRUCTURE
     1 DY4         1

