### 
### Created by X-TOOL on Wed Jan  1 15:39:35 2020
### 

@<TRIPOS>MOLECULE
6bm5_ligand
   50    52     1     0     0
SMALL
GAST_HUCK


@<TRIPOS>ATOM
      1 N         -10.1480   20.8060  -13.8870 N.4       1 SAM         0.2328
      2 CA         -9.5030   19.5220  -13.6700 C.3       1 SAM         0.0327
      3 C          -8.5290   19.5720  -12.5080 C.2       1 SAM         0.0846
      4 O          -8.3930   18.5930  -11.7470 O.co2     1 SAM        -0.5643
      5 OXT        -7.8870   20.6090  -12.3000 O.co2     1 SAM        -0.5643
      6 CB         -8.7910   19.0660  -14.9490 C.3       1 SAM         0.0473
      7 CG         -7.9970   17.7640  -14.7730 C.3       1 SAM         0.1163
      8 SD         -8.9590   16.3500  -14.1490 S.3       1 SAM        -0.0103
      9 CE         -7.6350   15.2990  -13.5130 C.3       1 SAM         0.0995
     10 C5'        -9.4190   15.5270  -15.6960 C.3       1 SAM         0.1381
     11 C4'        -8.2950   14.8190  -16.4490 C.3       1 SAM         0.1350
     12 O4'        -8.0300   13.5230  -15.9050 O.3       1 SAM        -0.3344
     13 C3'        -8.7290   14.5550  -17.8810 C.3       1 SAM         0.1168
     14 O3'        -8.4360   15.6260  -18.7490 O.3       1 SAM        -0.3863
     15 C2'        -7.9400   13.3360  -18.2550 C.3       1 SAM         0.1386
     16 O2'        -6.6060   13.6920  -18.5450 O.3       1 SAM        -0.3836
     17 C1'        -7.9070   12.5880  -16.9540 C.3       1 SAM         0.2011
     18 N9         -8.9980   11.6220  -16.7790 N.pl3     1 SAM        -0.1919
     19 C8        -10.1180   11.7340  -15.9990 C.2       1 SAM         0.1123
     20 N7        -10.8270   10.5830  -16.0850 N.2       1 SAM        -0.2958
     21 C5        -10.1710    9.7440  -16.9230 C.ar      1 SAM         0.1045
     22 C6        -10.4240    8.4570  -17.3820 C.ar      1 SAM         0.1298
     23 N6        -11.5130    7.7680  -17.0130 N.pl3     1 SAM        -0.3152
     24 N1         -9.4990    7.8950  -18.2280 N.ar      1 SAM        -0.2698
     25 C2         -8.3670    8.5680  -18.6350 C.ar      1 SAM         0.0533
     26 N3         -8.1250    9.8490  -18.2040 N.ar      1 SAM        -0.2714
     27 C4         -9.0150   10.3880  -17.3530 C.ar      1 SAM         0.1613
     28 H1        -10.7858   20.7345  -14.6642 H         1 SAM         0.2010
     29 H2         -9.4488   21.5033  -14.0893 H         1 SAM         0.2010
     30 H3        -10.6568   21.0708  -13.0581 H         1 SAM         0.2010
     31 H4        -10.2830   18.7852  -13.4277 H         1 SAM         0.1026
     32 H5         -8.0959   19.8587  -15.2628 H         1 SAM         0.0385
     33 H6         -9.5472   18.9101  -15.7325 H         1 SAM         0.0385
     34 H7         -7.1778   17.9577  -14.0649 H         1 SAM         0.0843
     35 H8         -7.5780   17.4857  -15.7512 H         1 SAM         0.0843
     36 H9         -8.0673   14.3797  -13.0910 H         1 SAM         0.0803
     37 H10        -7.0834   15.8383  -12.7289 H         1 SAM         0.0803
     38 H11        -6.9480   15.0388  -14.3317 H         1 SAM         0.0803
     39 H12        -9.8432   16.2885  -16.3669 H         1 SAM         0.0867
     40 H13       -10.1880   14.7767  -15.4601 H         1 SAM         0.0867
     41 H14        -7.3874   15.4399  -16.4226 H         1 SAM         0.0671
     42 H15        -9.8088   14.3492  -17.9220 H         1 SAM         0.0649
     43 H16        -8.8856   16.4073  -18.4491 H         1 SAM         0.2100
     44 H17        -8.3990   12.7675  -19.0772 H         1 SAM         0.0676
     45 H18        -6.5937   14.3064  -19.2695 H         1 SAM         0.2101
     46 H19        -6.9462   12.0577  -16.8793 H         1 SAM         0.0996
     47 H20       -10.3934   12.6054  -15.4068 H         1 SAM         0.1349
     48 H21       -11.6668    6.8157  -17.3742 H         1 SAM         0.1820
     49 H22       -12.1960    8.1908  -16.3683 H         1 SAM         0.1820
     50 H23        -7.6625    8.0822  -19.3004 H         1 SAM         0.0996
@<TRIPOS>BOND
     1    1    2 1  
     2    2    3 1  
     3    2    6 1  
     4    3    4 ar 
     5    3    5 ar 
     6    6    7 1  
     7    7    8 1  
     8    8    9 1  
     9    8   10 1  
    10   10   11 1  
    11   11   12 1  
    12   11   13 1  
    13   12   17 1  
    14   13   14 1  
    15   13   15 1  
    16   15   16 1  
    17   15   17 1  
    18   17   18 1  
    19   18   19 1  
    20   18   27 1  
    21   19   20 2  
    22   20   21 1  
    23   21   22 ar 
    24   21   27 ar 
    25   22   23 1  
    26   22   24 ar 
    27   24   25 ar 
    28   25   26 ar 
    29   26   27 ar 
    30    1   28 1  
    31    1   29 1  
    32    1   30 1  
    33    2   31 1  
    34    6   32 1  
    35    6   33 1  
    36    7   34 1  
    37    7   35 1  
    38    9   36 1  
    39    9   37 1  
    40    9   38 1  
    41   10   39 1  
    42   10   40 1  
    43   11   41 1  
    44   13   42 1  
    45   14   43 1  
    46   15   44 1  
    47   16   45 1  
    48   17   46 1  
    49   19   47 1  
    50   23   48 1  
    51   23   49 1  
    52   25   50 1  
@<TRIPOS>SUBSTRUCTURE
     1 SAM         1

