### 
### Created by X-TOOL on Wed Jan  1 15:39:35 2020
### 

@<TRIPOS>MOLECULE
6bm6_ligand
   46    48     1     0     0
SMALL
GAST_HUCK


@<TRIPOS>ATOM
      1 N         -10.3920   20.7220  -14.0560 N.4       1 SAH         0.2327
      2 CA         -9.7220   19.4650  -13.7020 C.3       1 SAH         0.0291
      3 CB         -9.0160   18.9270  -14.9410 C.3       1 SAH         0.0114
      4 CG         -8.1970   17.6620  -14.6860 C.3       1 SAH         0.0005
      5 SD         -9.1920   16.2180  -14.1890 S.3       1 SAH        -0.1578
      6 C          -8.7370   19.6280  -12.5470 C.2       1 SAH         0.0844
      7 O          -8.0550   20.6720  -12.4440 O.co2     1 SAH        -0.5643
      8 OXT        -8.6410   18.7420  -11.6700 O.co2     1 SAH        -0.5643
      9 C5'        -9.5700   15.6710  -15.8710 C.3       1 SAH         0.0226
     10 C4'        -8.5050   14.8040  -16.5320 C.3       1 SAH         0.0995
     11 O4'        -8.4180   13.4900  -15.9880 O.3       1 SAH        -0.3383
     12 C3'        -8.8850   14.5470  -17.9710 C.3       1 SAH         0.1132
     13 O3'        -8.4950   15.5950  -18.8300 O.3       1 SAH        -0.3864
     14 C2'        -8.1450   13.2810  -18.3270 C.3       1 SAH         0.1385
     15 O2'        -6.7700   13.5470  -18.5240 O.3       1 SAH        -0.3836
     16 C1'        -8.2240   12.5440  -17.0290 C.3       1 SAH         0.2009
     17 N9         -9.3180   11.5780  -16.9210 N.pl3     1 SAH        -0.1919
     18 C8        -10.4950   11.6780  -16.2300 C.2       1 SAH         0.1123
     19 N7        -11.1910   10.5130  -16.3700 N.2       1 SAH        -0.2958
     20 C5        -10.4680    9.6780  -17.1550 C.ar      1 SAH         0.1045
     21 C6        -10.6880    8.3870  -17.6270 C.ar      1 SAH         0.1298
     22 N6        -11.7930    7.6730  -17.3350 N.pl3     1 SAH        -0.3152
     23 N1         -9.6990    7.8350  -18.4040 N.ar      1 SAH        -0.2698
     24 C2         -8.5520    8.5340  -18.7400 C.ar      1 SAH         0.0533
     25 N3         -8.3350    9.8140  -18.2960 N.ar      1 SAH        -0.2714
     26 C4         -9.2880   10.3460  -17.5050 C.ar      1 SAH         0.1613
     27 H1        -11.0286   20.5597  -14.8205 H         1 SAH         0.2010
     28 H2         -9.7029   21.4040  -14.3317 H         1 SAH         0.2010
     29 H3        -10.9047   21.0655  -13.2590 H         1 SAH         0.2010
     30 H4        -10.4892   18.7406  -13.3912 H         1 SAH         0.1024
     31 H5         -8.3396   19.7070  -15.3205 H         1 SAH         0.0347
     32 H6         -9.7769   18.6995  -15.7020 H         1 SAH         0.0347
     33 H7         -7.4733   17.8747  -13.8854 H         1 SAH         0.0379
     34 H8         -7.6573   17.4079  -15.6102 H         1 SAH         0.0379
     35 H9         -9.7139   16.5657  -16.4944 H         1 SAH         0.0402
     36 H10       -10.5053   15.0930  -15.8376 H         1 SAH         0.0402
     37 H11        -7.5323   15.3129  -16.4614 H         1 SAH         0.0632
     38 H12        -9.9717   14.3993  -18.0562 H         1 SAH         0.0647
     39 H13        -7.5517   15.7004  -18.7911 H         1 SAH         0.2100
     40 H14        -8.5902   12.7453  -19.1783 H         1 SAH         0.0676
     41 H15        -6.6679   14.1731  -19.2311 H         1 SAH         0.2101
     42 H16        -7.2730   12.0119  -16.8794 H         1 SAH         0.0996
     43 H17       -10.8228   12.5466  -15.6608 H         1 SAH         0.1349
     44 H18       -11.9052    6.7208  -17.7113 H         1 SAH         0.1820
     45 H19       -12.5253    8.0795  -16.7355 H         1 SAH         0.1820
     46 H20        -7.8078    8.0587  -19.3688 H         1 SAH         0.0996
@<TRIPOS>BOND
     1    1    2 1  
     2    2    3 1  
     3    2    6 1  
     4    3    4 1  
     5    4    5 1  
     6    5    9 1  
     7    6    7 ar 
     8    6    8 ar 
     9    9   10 1  
    10   10   11 1  
    11   10   12 1  
    12   11   16 1  
    13   12   13 1  
    14   12   14 1  
    15   14   15 1  
    16   14   16 1  
    17   16   17 1  
    18   17   18 1  
    19   17   26 1  
    20   18   19 2  
    21   19   20 1  
    22   20   21 ar 
    23   20   26 ar 
    24   21   22 1  
    25   21   23 ar 
    26   23   24 ar 
    27   24   25 ar 
    28   25   26 ar 
    29    1   27 1  
    30    1   28 1  
    31    1   29 1  
    32    2   30 1  
    33    3   31 1  
    34    3   32 1  
    35    4   33 1  
    36    4   34 1  
    37    9   35 1  
    38    9   36 1  
    39   10   37 1  
    40   12   38 1  
    41   13   39 1  
    42   14   40 1  
    43   15   41 1  
    44   16   42 1  
    45   18   43 1  
    46   22   44 1  
    47   22   45 1  
    48   24   46 1  
@<TRIPOS>SUBSTRUCTURE
     1 SAH         1

