### 
### Created by X-TOOL on Wed Jan  1 15:39:38 2020
### 

@<TRIPOS>MOLECULE
6bmi_ligand
   14    13     1     0     0
SMALL
GAST_HUCK


@<TRIPOS>ATOM
      1 N           7.0290    6.9520   -5.1470 N.4       1 SER         0.2343
      2 CA          6.9910    8.2800   -5.8200 C.3       1 SER         0.0519
      3 C           8.1650    8.4510   -6.7680 C.2       1 SER         0.0867
      4 O           8.9910    7.5520   -6.9100 O.co2     1 SER        -0.5642
      5 CB          6.9800    9.4080   -4.7860 C.3       1 SER         0.0987
      6 OG          5.7220    9.4930   -4.1270 O.3       1 SER        -0.3876
      7 O1          8.2935    9.5245   -7.4150 O.co2     1 SER        -0.5642
      8 H1          6.2397    6.8675   -4.5257 H         1 SER         0.2011
      9 H2          7.8831    6.8674   -4.6185 H         1 SER         0.2011
     10 H3          6.9898    6.2222   -5.8412 H         1 SER         0.2011
     11 H4          6.0629    8.3396   -6.4075 H         1 SER         0.1047
     12 H5          7.1833   10.3621   -5.2943 H         1 SER         0.0633
     13 H6          7.7638    9.2165   -4.0384 H         1 SER         0.0633
     14 H7          5.0411    9.6627   -4.7674 H         1 SER         0.2098
@<TRIPOS>BOND
     1    1    2 1  
     2    2    3 1  
     3    2    5 1  
     4    3    4 ar 
     5    5    6 1  
     6    3    7 ar 
     7    1    8 1  
     8    1    9 1  
     9    1   10 1  
    10    2   11 1  
    11    5   12 1  
    12    5   13 1  
    13    6   14 1  
@<TRIPOS>SUBSTRUCTURE
     1 SER         1

