### 
### Created by X-TOOL on Wed Jan  1 15:39:35 2020
### 

@<TRIPOS>MOLECULE
6bmr_ligand
   48    52     1     0     0
SMALL
GAST_HUCK


@<TRIPOS>ATOM
      1 C2         15.6970   39.7040   29.9380 C.3       1 DZV         0.0985
      2 C3         15.6280   39.1540   31.3530 C.ar      1 DZV         0.0001
      3 C4         16.0370   37.8040   31.5200 C.ar      1 DZV         0.0437
      4 C5         16.0340   37.1920   32.8080 C.ar      1 DZV        -0.0545
      5 C6         15.5750   37.9250   33.9260 C.ar      1 DZV        -0.0682
      6 C7         15.1550   39.2710   33.7740 C.ar      1 DZV        -0.0683
      7 C8         15.2030   39.9040   32.4980 C.ar      1 DZV        -0.0572
      8 C11        14.5550   43.7880   29.2110 C.ar      1 DZV         0.1239
      9 C12        14.2100   45.1460   28.9510 C.ar      1 DZV        -0.0219
     10 C13        15.1210   46.1980   29.2480 C.ar      1 DZV        -0.0624
     11 C14        16.3900   45.9290   29.8070 C.ar      1 DZV        -0.0637
     12 C17        11.5290   43.5730   27.9210 C.ar      1 DZV         0.0503
     13 C18        11.6530   44.0470   26.5830 C.ar      1 DZV         0.1326
     14 C19        10.7770   45.0800   26.1010 C.ar      1 DZV         0.1221
     15 C20         9.9610   46.6320   24.3490 C.3       1 DZV         0.0568
     16 C21         9.7890   45.6040   26.9840 C.ar      1 DZV        -0.0400
     17 C22         9.6970   45.1750   28.3260 C.ar      1 DZV        -0.0796
     18 C23        10.5480   44.1410   28.7890 C.ar      1 DZV        -0.0675
     19 N1         13.7200   42.6620   28.8830 N.pl3     1 DZV        -0.1463
     20 C1         14.0780   41.4130   29.1740 C.2       1 DZV         0.2772
     21 N2         15.3660   41.1180   29.7280 N.am      1 DZV        -0.1587
     22 CL1        16.5700   36.9160   30.1320 Cl        1 DZV        -0.0771
     23 C9         16.2920   42.0910   30.0060 C.2       1 DZV         0.2401
     24 C10        15.8600   43.5180   29.7350 C.ar      1 DZV         0.0909
     25 C15        16.7530   44.5850   30.0360 C.ar      1 DZV        -0.0459
     26 O1         17.3870   41.8800   30.5610 O.2       1 DZV        -0.3807
     27 N3         13.1380   40.5090   28.8740 N.2       1 DZV        -0.2642
     28 N4         12.0740   41.2450   28.3780 N.2       1 DZV        -0.2815
     29 C16        12.4430   42.5330   28.4190 C.2       1 DZV         0.1583
     30 O2         10.8070   45.5780   24.8080 O.3       1 DZV        -0.3248
     31 O3         12.6090   43.4860   25.7810 O.3       1 DZV        -0.3330
     32 H1         15.0032   39.1117   29.3234 H         1 DZV         0.0768
     33 H2         16.7256   39.5528   29.5788 H         1 DZV         0.0768
     34 H3         16.3812   36.1722   32.9288 H         1 DZV         0.0605
     35 H4         15.5439   37.4566   34.9031 H         1 DZV         0.0559
     36 H5         14.7947   39.8225   34.6349 H         1 DZV         0.0601
     37 H6         14.9201   40.9453   32.3942 H         1 DZV         0.0557
     38 H7         13.2424   45.3803   28.5220 H         1 DZV         0.0589
     39 H8         14.8363   47.2234   29.0417 H         1 DZV         0.0633
     40 H9         17.0694   46.7367   30.0544 H         1 DZV         0.0564
     41 H10        10.1781   46.8422   23.2913 H         1 DZV         0.0572
     42 H11        10.1443   47.5364   24.9476 H         1 DZV         0.0572
     43 H12         8.9086   46.3297   24.4542 H         1 DZV         0.0572
     44 H13         9.0922   46.3489   26.6171 H         1 DZV         0.0519
     45 H14         8.9802   45.6336   28.9976 H         1 DZV         0.0502
     46 H15        10.4538   43.7796   29.8067 H         1 DZV         0.0511
     47 H16        17.7299   44.3607   30.4488 H         1 DZV         0.0648
     48 H17        12.1926   43.0827   25.0284 H         1 DZV         0.2467
@<TRIPOS>BOND
     1    1    2 1  
     2   21    1 1  
     3    2    3 ar 
     4    2    7 ar 
     5    3    4 ar 
     6    3   22 1  
     7    4    5 ar 
     8    6    5 ar 
     9    7    6 ar 
    10    8    9 ar 
    11   19    8 1  
    12    8   24 ar 
    13    9   10 ar 
    14   10   11 ar 
    15   11   25 ar 
    16   12   13 ar 
    17   12   18 ar 
    18   29   12 1  
    19   13   14 ar 
    20   13   31 1  
    21   14   16 ar 
    22   14   30 1  
    23   30   15 1  
    24   17   16 ar 
    25   18   17 ar 
    26   20   19 1  
    27   19   29 1  
    28   20   21 1  
    29   20   27 2  
    30   21   23 am 
    31   23   24 1  
    32   23   26 2  
    33   24   25 ar 
    34   27   28 1  
    35   28   29 2  
    36    1   32 1  
    37    1   33 1  
    38    4   34 1  
    39    5   35 1  
    40    6   36 1  
    41    7   37 1  
    42    9   38 1  
    43   10   39 1  
    44   11   40 1  
    45   15   41 1  
    46   15   42 1  
    47   15   43 1  
    48   16   44 1  
    49   17   45 1  
    50   18   46 1  
    51   25   47 1  
    52   31   48 1  
@<TRIPOS>SUBSTRUCTURE
     1 DZV         1

