### 
### Created by X-TOOL on Wed Jan  1 15:39:35 2020
### 

@<TRIPOS>MOLECULE
6bmv_ligand
   46    50     1     0     0
SMALL
GAST_HUCK


@<TRIPOS>ATOM
      1 C2         16.0800   46.3450   29.6700 C.ar      1 DZS        -0.0637
      2 C3         16.4690   45.0200   29.9360 C.ar      1 DZS        -0.0459
      3 C4         15.6080   43.9360   29.6010 C.ar      1 DZS         0.0909
      4 C5         14.3310   44.1880   28.9990 C.ar      1 DZS         0.1239
      5 C6         13.9550   45.5430   28.7430 C.ar      1 DZS        -0.0219
      6 C7         13.8890   41.8030   29.0280 C.2       1 DZS         0.2773
      7 C8         16.0480   42.5230   29.9100 C.2       1 DZS         0.2401
      8 C11        15.6640   38.2310   31.4750 C.ar      1 DZS         0.0437
      9 C12        15.5530   37.6350   32.7620 C.ar      1 DZS        -0.0545
     10 C13        15.1000   38.4090   33.8500 C.ar      1 DZS        -0.0682
     11 C14        14.7610   39.7750   33.6440 C.ar      1 DZS        -0.0683
     12 C17        11.4080   43.8580   27.4860 C.ar      1 DZS         0.0624
     13 C18        10.2530   44.4110   28.0840 C.ar      1 DZS        -0.0419
     14 C19         9.4910   45.3840   27.4020 C.ar      1 DZS         0.0010
     15 C20         8.1920   45.8590   27.9840 C.2       1 DZS         0.0562
     16 C21         9.8520   45.7660   26.0790 C.ar      1 DZS        -0.0551
     17 C22        11.0150   45.2460   25.4720 C.ar      1 DZS        -0.0265
     18 C23        11.7830   44.2780   26.1700 C.ar      1 DZS         0.1072
     19 C1         14.8430   46.5980   29.0410 C.ar      1 DZS        -0.0624
     20 N1         13.5110   43.0480   28.6870 N.pl3     1 DZS        -0.1458
     21 N2         15.1920   41.5220   29.5520 N.am      1 DZS        -0.1587
     22 O1         17.1350   42.3350   30.4750 O.2       1 DZS        -0.3807
     23 C9         15.5370   40.1180   29.8350 C.3       1 DZS         0.0986
     24 C10        15.3530   39.5970   31.2610 C.ar      1 DZS         0.0001
     25 C15        14.9080   40.3800   32.3660 C.ar      1 DZS        -0.0572
     26 CL1        16.2420   37.3080   30.1390 Cl        1 DZS        -0.0771
     27 N3         12.9870   40.8860   28.7110 N.2       1 DZS        -0.2639
     28 N4         11.9390   41.5880   28.1250 N.2       1 DZS        -0.2809
     29 C16        12.2490   42.8920   28.1850 C.2       1 DZS         0.1621
     30 O2          8.0640   45.7510   29.3300 O.co2     1 DZS        -0.5635
     31 O3          7.2710   46.2380   27.2680 O.co2     1 DZS        -0.5635
     32 O4         12.9240   43.7830   25.6030 O.3       1 DZS        -0.3271
     33 H1         16.7281   47.1685   29.9472 H         1 DZS         0.0564
     34 H2         17.4293   44.8226   30.3985 H         1 DZS         0.0649
     35 H3         12.9822   45.7612   28.3175 H         1 DZS         0.0589
     36 H4         15.8149   36.5929   32.9052 H         1 DZS         0.0605
     37 H5         15.0108   37.9666   34.8356 H         1 DZS         0.0559
     38 H6         14.3852   40.3631   34.4734 H         1 DZS         0.0601
     39 H7          9.9503   44.0858   29.0728 H         1 DZS         0.0639
     40 H8          9.2273   46.4632   25.5324 H         1 DZS         0.0631
     41 H9         11.3175   45.5812   24.4865 H         1 DZS         0.0552
     42 H10        14.5714   47.6153   28.7835 H         1 DZS         0.0633
     43 H11        16.5974   39.9848   29.5745 H         1 DZS         0.0768
     44 H12        14.9163   39.4917   29.1774 H         1 DZS         0.0768
     45 H13        14.6827   41.4319   32.2324 H         1 DZS         0.0557
     46 H14        12.7096   43.3610   24.7793 H         1 DZS         0.2516
@<TRIPOS>BOND
     1    2    1 ar 
     2    1   19 ar 
     3    3    2 ar 
     4    3    4 ar 
     5    7    3 1  
     6    4    5 ar 
     7   20    4 1  
     8    5   19 ar 
     9    6   20 1  
    10   21    6 1  
    11    6   27 2  
    12   21    7 am 
    13    7   22 2  
    14    8    9 ar 
    15   24    8 ar 
    16    8   26 1  
    17    9   10 ar 
    18   10   11 ar 
    19   11   25 ar 
    20   12   13 ar 
    21   12   18 ar 
    22   29   12 1  
    23   13   14 ar 
    24   14   15 1  
    25   14   16 ar 
    26   15   30 ar 
    27   15   31 ar 
    28   17   16 ar 
    29   18   17 ar 
    30   18   32 1  
    31   20   29 1  
    32   23   21 1  
    33   23   24 1  
    34   24   25 ar 
    35   27   28 1  
    36   28   29 2  
    37    1   33 1  
    38    2   34 1  
    39    5   35 1  
    40    9   36 1  
    41   10   37 1  
    42   11   38 1  
    43   13   39 1  
    44   16   40 1  
    45   17   41 1  
    46   19   42 1  
    47   23   43 1  
    48   23   44 1  
    49   25   45 1  
    50   32   46 1  
@<TRIPOS>SUBSTRUCTURE
     1 DZS         1

