### 
### Created by X-TOOL on Wed Jan  1 15:39:35 2020
### 

@<TRIPOS>MOLECULE
6bmx_ligand
   64    69     1     0     0
SMALL
GAST_HUCK


@<TRIPOS>ATOM
      1 C2         15.0820   46.2700   28.9580 C.ar      1 DYV        -0.0624
      2 C3         14.2040   45.1890   28.7090 C.ar      1 DYV        -0.0219
      3 C4         14.6160   43.8540   29.0030 C.ar      1 DYV         0.1239
      4 C5         15.9320   43.6400   29.5500 C.ar      1 DYV         0.0909
      5 C6         16.7710   44.7410   29.8370 C.ar      1 DYV        -0.0459
      6 C7         16.4240   42.2430   29.8510 C.2       1 DYV         0.2402
      7 C8         14.2330   41.4760   29.0530 C.2       1 DYV         0.2773
      8 C11        10.6140   44.0380   28.6640 C.ar      1 DYV        -0.0675
      9 C12         9.7640   45.0770   28.2280 C.ar      1 DYV        -0.0796
     10 C13         9.9090   45.6360   26.9370 C.ar      1 DYV        -0.0400
     11 C14        10.9080   45.1540   26.0380 C.ar      1 DYV         0.1221
     12 C17        15.9100   39.8320   29.8400 C.3       1 DYV         0.1006
     13 C18        15.7860   39.3050   31.2570 C.ar      1 DYV         0.0048
     14 C19        15.2780   40.1250   32.2970 C.ar      1 DYV        -0.0513
     15 C20        15.1870   39.6040   33.6020 C.ar      1 DYV        -0.0483
     16 C21        15.6020   38.2730   33.8990 C.ar      1 DYV         0.0436
     17 C22        16.1280   37.4710   32.8470 C.ar      1 DYV        -0.0344
     18 C23        16.1970   37.9800   31.5300 C.ar      1 DYV         0.0495
     19 C25        13.8010   38.7420   36.9360 C.3       1 DYV         0.0355
     20 C26        14.1130   38.5080   38.4220 C.3       1 DYV        -0.0288
     21 C27        15.5730   38.9610   38.5810 C.3       1 DYV        -0.0159
     22 C28        16.0580   39.3330   37.1650 C.3       1 DYV         0.0966
     23 C1         16.3570   46.0540   29.5290 C.ar      1 DYV        -0.0637
     24 N1         15.5250   41.2340   29.6170 N.am      1 DYV        -0.1580
     25 N2         13.8290   42.6950   28.7100 N.pl3     1 DYV        -0.1462
     26 C9         12.5620   42.5220   28.2500 C.2       1 DYV         0.1583
     27 N3         12.2420   41.2270   28.2430 N.2       1 DYV        -0.2815
     28 N4         13.3390   40.5410   28.7490 N.2       1 DYV        -0.2642
     29 C10        11.6220   43.5440   27.7830 C.ar      1 DYV         0.0503
     30 O1         11.1760   45.6650   24.7710 O.3       1 DYV        -0.3248
     31 C15        10.1380   45.9850   23.8530 C.3       1 DYV         0.0568
     32 C16        11.7810   44.1330   26.4980 C.ar      1 DYV         0.1326
     33 O2         12.7610   43.6900   25.6620 O.3       1 DYV        -0.3330
     34 CL1        16.8570   37.0100   30.2540 Cl        1 DYV        -0.0758
     35 C24        15.4280   37.7210   35.3020 C.2       1 DYV         0.2042
     36 O3         15.5330   36.5080   35.5150 O.2       1 DYV        -0.3875
     37 N5         15.1250   38.5490   36.3320 N.am      1 DYV        -0.2577
     38 C29        17.5660   39.0550   36.9730 C.2       1 DYV         0.0602
     39 O4         17.9870   38.0230   36.4550 O.co2     1 DYV        -0.5666
     40 O5         18.4450   40.0000   37.4070 O.co2     1 DYV        -0.5666
     41 O6         17.5540   42.0870   30.3590 O.2       1 DYV        -0.3807
     42 H1         14.7727   47.2782   28.7074 H         1 DYV         0.0633
     43 H2         13.2193   45.3741   28.2953 H         1 DYV         0.0589
     44 H3         17.7386   44.5753   30.2967 H         1 DYV         0.0648
     45 H4         10.5023   43.6196   29.6578 H         1 DYV         0.0511
     46 H5          8.9913   45.4507   28.8901 H         1 DYV         0.0502
     47 H6          9.2530   46.4410   26.6259 H         1 DYV         0.0519
     48 H7         15.2751   39.2062   29.1956 H         1 DYV         0.0779
     49 H8         16.9614   39.7234   29.5355 H         1 DYV         0.0779
     50 H9         14.9634   41.1414   32.0895 H         1 DYV         0.0570
     51 H10        14.7935   40.2275   34.3966 H         1 DYV         0.0654
     52 H11        16.4769   36.4663   33.0566 H         1 DYV         0.0658
     53 H12        13.4219   39.7593   36.7592 H         1 DYV         0.0523
     54 H13        13.0742   38.0087   36.5565 H         1 DYV         0.0523
     55 H14        14.0052   37.4441   38.6797 H         1 DYV         0.0286
     56 H15        13.4473   39.1089   39.0590 H         1 DYV         0.0286
     57 H16        16.1842   38.1441   38.9922 H         1 DYV         0.0306
     58 H17        15.6321   39.8344   39.2471 H         1 DYV         0.0306
     59 H18        15.8992   40.4052   36.9774 H         1 DYV         0.0727
     60 H19        17.0134   46.8931   29.7292 H         1 DYV         0.0564
     61 H20        10.5783   46.3706   22.9216 H         1 DYV         0.0572
     62 H21         9.4824   46.7508   24.2931 H         1 DYV         0.0572
     63 H22         9.5505   45.0812   23.6341 H         1 DYV         0.0572
     64 H23        12.7313   44.1842   24.8512 H         1 DYV         0.2467
@<TRIPOS>BOND
     1    2    1 ar 
     2   23    1 ar 
     3    3    2 ar 
     4    4    3 ar 
     5   25    3 1  
     6    4    5 ar 
     7    6    4 1  
     8    5   23 ar 
     9   24    6 am 
    10    6   41 2  
    11   24    7 1  
    12    7   25 1  
    13    7   28 2  
    14    8    9 ar 
    15   29    8 ar 
    16    9   10 ar 
    17   11   10 ar 
    18   11   30 1  
    19   32   11 ar 
    20   13   12 1  
    21   12   24 1  
    22   14   13 ar 
    23   18   13 ar 
    24   15   14 ar 
    25   16   15 ar 
    26   16   17 ar 
    27   35   16 1  
    28   17   18 ar 
    29   18   34 1  
    30   19   20 1  
    31   37   19 1  
    32   21   20 1  
    33   22   21 1  
    34   37   22 1  
    35   22   38 1  
    36   25   26 1  
    37   27   26 2  
    38   26   29 1  
    39   28   27 1  
    40   29   32 ar 
    41   30   31 1  
    42   32   33 1  
    43   35   36 2  
    44   35   37 am 
    45   38   39 ar 
    46   38   40 ar 
    47    1   42 1  
    48    2   43 1  
    49    5   44 1  
    50    8   45 1  
    51    9   46 1  
    52   10   47 1  
    53   12   48 1  
    54   12   49 1  
    55   14   50 1  
    56   15   51 1  
    57   17   52 1  
    58   19   53 1  
    59   19   54 1  
    60   20   55 1  
    61   20   56 1  
    62   21   57 1  
    63   21   58 1  
    64   22   59 1  
    65   23   60 1  
    66   31   61 1  
    67   31   62 1  
    68   31   63 1  
    69   33   64 1  
@<TRIPOS>SUBSTRUCTURE
     1 DYV         1

