### 
### Created by X-TOOL on Wed Jan  1 15:39:38 2020
### 

@<TRIPOS>MOLECULE
6bny_ligand
   38    41     1     0     0
SMALL
GAST_HUCK


@<TRIPOS>ATOM
      1 C01        -5.1420  -29.1540   -5.5960 C.3       1 E0M        -0.0540
      2 C02        -4.0190  -28.5420   -6.4640 C.3       1 E0M        -0.0164
      3 C03        -2.6560  -29.0410   -5.9160 C.3       1 E0M        -0.0540
      4 C04        -4.2130  -28.7350   -8.0090 C.ar      1 E0M        -0.0441
      5 C05        -5.4590  -28.5850   -8.6510 C.ar      1 E0M        -0.0616
      6 C06        -5.6420  -28.7560  -10.0470 C.ar      1 E0M        -0.0258
      7 C07        -4.5450  -29.1000  -10.9160 C.ar      1 E0M         0.1378
      8 C09        -3.6690  -29.5840  -13.1900 C.ar      1 E0M         0.1985
      9 C11        -2.9500  -30.0110  -15.4520 C.ar      1 E0M         0.1168
     10 C13        -1.5960  -30.2070  -15.0060 C.ar      1 E0M         0.0517
     11 C14        -0.5180  -30.5220  -15.9230 C.2       1 E0M         0.1427
     12 C19        -1.3640  -30.0700  -13.6250 C.ar      1 E0M        -0.0317
     13 C20        -2.3750  -29.7620  -12.6960 C.ar      1 E0M         0.0803
     14 C21        -2.2250  -29.6050  -11.2470 C.2       1 E0M         0.1433
     15 C23        -3.3050  -29.2530  -10.3030 C.ar      1 E0M         0.0593
     16 C24        -3.1660  -29.0700   -8.8930 C.ar      1 E0M        -0.0484
     17 N10        -3.9830  -29.7010  -14.5510 N.ar      1 E0M        -0.2468
     18 N12        -3.2310  -30.1370  -16.8200 N.pl3     1 E0M        -0.3189
     19 N15        -0.4310  -30.3770  -17.2920 N.2       1 E0M        -0.1797
     20 N16         0.8040  -30.8070  -17.6760 N.2       1 E0M        -0.0545
     21 N17         1.5250  -31.2160  -16.6580 N.pl3     1 E0M        -0.1083
     22 N18         0.7420  -31.0520  -15.5410 N.2       1 E0M        -0.1535
     23 O08        -4.7310  -29.2710  -12.3160 O.3       1 E0M        -0.2329
     24 O22        -1.0720  -29.7930  -10.7730 O.2       1 E0M        -0.3920
     25 H1         -4.9244  -28.9720   -4.5332 H         1 E0M         0.0252
     26 H2         -5.1975  -30.2373   -5.7786 H         1 E0M         0.0252
     27 H3         -6.1033  -28.6882   -5.8584 H         1 E0M         0.0252
     28 H4         -4.0474  -27.4550   -6.2981 H         1 E0M         0.0438
     29 H5         -1.8405  -28.6169   -6.5202 H         1 E0M         0.0252
     30 H6         -2.6191  -30.1391   -5.9695 H         1 E0M         0.0252
     31 H7         -2.5420  -28.7208   -4.8698 H         1 E0M         0.0252
     32 H8         -6.3210  -28.3258   -8.0470 H         1 E0M         0.0574
     33 H9         -6.6311  -28.6247  -10.4706 H         1 E0M         0.0558
     34 H10        -0.3537  -30.2090  -13.2575 H         1 E0M         0.0729
     35 H11        -2.1769  -29.1989   -8.4685 H         1 E0M         0.0579
     36 H12        -4.1927  -30.0012  -17.1628 H         1 E0M         0.1803
     37 H13        -2.4757  -30.3654  -17.4820 H         1 E0M         0.1803
     38 H14         2.4857  -31.5859  -16.6902 H         1 E0M         0.2923
@<TRIPOS>BOND
     1    2    1 1  
     2    2    3 1  
     3    4    2 1  
     4    5    4 ar 
     5    4   16 ar 
     6    6    5 ar 
     7    7    6 ar 
     8    7   15 ar 
     9   23    7 1  
    10    8   13 ar 
    11   17    8 ar 
    12    8   23 1  
    13    9   10 ar 
    14    9   17 ar 
    15    9   18 1  
    16   10   11 1  
    17   10   12 ar 
    18   11   19 1  
    19   11   22 2  
    20   12   13 ar 
    21   13   14 1  
    22   14   15 1  
    23   14   24 2  
    24   15   16 ar 
    25   19   20 2  
    26   20   21 1  
    27   21   22 1  
    28    1   25 1  
    29    1   26 1  
    30    1   27 1  
    31    2   28 1  
    32    3   29 1  
    33    3   30 1  
    34    3   31 1  
    35    5   32 1  
    36    6   33 1  
    37   12   34 1  
    38   16   35 1  
    39   18   36 1  
    40   18   37 1  
    41   21   38 1  
@<TRIPOS>SUBSTRUCTURE
     1 E0M         1

