### 
### Created by X-TOOL on Mon Aug  2 16:12:40 2021
### 

@<TRIPOS>MOLECULE
6bo6_ligand
   62    66     1     0     0
SMALL
GAST_HUCK


@<TRIPOS>ATOM
      1 C27       -58.2140  -61.5570  -32.8570 C.3       1 E0V         0.1216
      2 C19       -62.5490  -59.3440  -34.1840 C.3       1 E0V         0.0715
      3 C15       -67.3830  -61.1380  -38.0750 C.3       1 E0V         0.0179
      4 C20       -61.1230  -59.6190  -33.6740 C.3       1 E0V        -0.0082
      5 C24       -58.9480  -58.7880  -33.0930 C.3       1 E0V         0.1168
      6 C31       -59.0060  -59.5480  -31.7410 C.3       1 E0V         0.1523
      7 C26       -57.6810  -60.7370  -34.0440 C.3       1 E0V         0.1447
      8 C23       -61.6960  -57.2800  -35.1840 C.3       1 E0V         0.0715
      9 C33       -57.7320  -61.5510  -35.3030 C.2       1 E0V         0.0665
     10 C29       -58.1150  -60.7240  -31.6360 C.3       1 E0V         0.1186
     11 C01       -63.2160  -52.9840  -42.3340 C.3       1 E0V         0.0161
     12 C03       -64.2540  -55.1280  -41.6190 C.ar      1 E0V         0.1065
     13 C04       -65.3960  -55.9710  -41.7010 C.ar      1 E0V        -0.0192
     14 C05       -65.6040  -56.8990  -40.7120 C.ar      1 E0V        -0.0483
     15 C06       -64.6720  -56.9650  -39.6680 C.ar      1 E0V         0.0216
     16 C07       -63.5750  -56.0910  -39.6700 C.ar      1 E0V         0.0970
     17 C10       -63.6570  -57.7460  -37.6090 C.ar      1 E0V         0.0935
     18 C11       -64.7160  -57.8950  -38.5070 C.ar      1 E0V         0.0459
     19 C13       -65.6020  -59.6240  -37.1760 C.ar      1 E0V         0.1592
     20 C17       -63.6290  -58.6090  -36.4660 C.ar      1 E0V         0.1313
     21 C22       -60.2700  -57.6480  -34.7190 C.3       1 E0V        -0.0082
     22 N02       -63.9930  -54.1110  -42.6730 N.pl3     1 E0V        -0.3107
     23 N08       -63.4020  -55.2080  -40.6300 N.ar      1 E0V        -0.2701
     24 N12       -65.6690  -58.8340  -38.2660 N.ar      1 E0V        -0.2857
     25 N14       -66.6270  -60.6130  -36.9510 N.pl3     1 E0V        -0.2998
     26 N16       -64.6020  -59.5140  -36.2940 N.ar      1 E0V        -0.2510
     27 N18       -62.5210  -58.5210  -35.4380 N.pl3     1 E0V        -0.2807
     28 N21       -60.3450  -58.4050  -33.5260 N.4       1 E0V         0.2621
     29 O25       -58.5110  -59.5420  -34.2840 O.3       1 E0V        -0.3148
     30 O28       -57.4860  -62.7480  -32.7380 O.3       1 E0V        -0.3848
     31 O30       -58.4840  -61.4730  -30.5240 O.3       1 E0V        -0.3861
     32 O32       -58.7340  -58.5820  -30.7050 O.3       1 E0V        -0.3811
     33 O34       -58.7860  -61.4680  -36.0560 O.co2     1 E0V        -0.5662
     34 O35       -56.7450  -62.3000  -35.6250 O.co2     1 E0V        -0.5662
     35 S09       -62.6850  -56.4710  -38.2570 S.3       1 E0V        -0.0220
     36 H1        -59.2705  -61.8077  -33.0327 H         1 E0V         0.0665
     37 H2        -63.1098  -58.8005  -33.4093 H         1 E0V         0.0577
     38 H3        -63.0474  -60.3020  -34.3934 H         1 E0V         0.0577
     39 H4        -68.1142  -61.8755  -37.7126 H         1 E0V         0.0485
     40 H5        -66.6960  -61.6213  -38.7853 H         1 E0V         0.0485
     41 H6        -67.9112  -60.3148  -38.5782 H         1 E0V         0.0485
     42 H7        -60.6131  -60.2801  -34.3902 H         1 E0V         0.0836
     43 H8        -61.1878  -60.1183  -32.6960 H         1 E0V         0.0836
     44 H9        -58.3104  -57.9020  -32.9574 H         1 E0V         0.1215
     45 H10       -60.0340  -59.9170  -31.6102 H         1 E0V         0.0705
     46 H11       -56.6446  -60.4341  -33.8341 H         1 E0V         0.0795
     47 H12       -61.6314  -56.6948  -36.1132 H         1 E0V         0.0577
     48 H13       -62.1842  -56.6771  -34.4041 H         1 E0V         0.0577
     49 H14       -57.0762  -60.3823  -31.5171 H         1 E0V         0.0650
     50 H15       -63.1140  -52.3310  -43.2133 H         1 E0V         0.0483
     51 H16       -62.2195  -53.3117  -42.0031 H         1 E0V         0.0483
     52 H17       -63.7085  -52.4301  -41.5212 H         1 E0V         0.0483
     53 H18       -66.0894  -55.8822  -42.5295 H         1 E0V         0.0568
     54 H19       -66.4625  -57.5604  -40.7376 H         1 E0V         0.0712
     55 H20       -59.6954  -56.7283  -34.5344 H         1 E0V         0.0836
     56 H21       -59.7713  -58.2415  -35.4994 H         1 E0V         0.0836
     57 H22       -64.3696  -54.2269  -43.6246 H         1 E0V         0.1813
     58 H23       -66.8226  -60.9462  -35.9962 H         1 E0V         0.1836
     59 H24       -60.7716  -57.8345  -32.8129 H         1 E0V         0.2064
     60 H25       -57.5739  -63.2529  -33.5379 H         1 E0V         0.2102
     61 H26       -57.9152  -62.2304  -30.4508 H         1 E0V         0.2100
     62 H27       -57.8346  -58.2851  -30.7786 H         1 E0V         0.2103
@<TRIPOS>BOND
     1    7    1 1  
     2   10    1 1  
     3    1   30 1  
     4    2    4 1  
     5   27    2 1  
     6   25    3 1  
     7    4   28 1  
     8    5    6 1  
     9   28    5 1  
    10    5   29 1  
    11    6   10 1  
    12    6   32 1  
    13    7    9 1  
    14   29    7 1  
    15    8   21 1  
    16   27    8 1  
    17    9   33 ar 
    18    9   34 ar 
    19   10   31 1  
    20   22   11 1  
    21   12   13 ar 
    22   12   22 1  
    23   23   12 ar 
    24   14   13 ar 
    25   15   14 ar 
    26   16   15 ar 
    27   18   15 1  
    28   16   23 ar 
    29   35   16 1  
    30   17   18 ar 
    31   20   17 ar 
    32   17   35 1  
    33   18   24 ar 
    34   19   24 ar 
    35   19   25 1  
    36   26   19 ar 
    37   20   26 ar 
    38   20   27 1  
    39   21   28 1  
    40    1   36 1  
    41    2   37 1  
    42    2   38 1  
    43    3   39 1  
    44    3   40 1  
    45    3   41 1  
    46    4   42 1  
    47    4   43 1  
    48    5   44 1  
    49    6   45 1  
    50    7   46 1  
    51    8   47 1  
    52    8   48 1  
    53   10   49 1  
    54   11   50 1  
    55   11   51 1  
    56   11   52 1  
    57   13   53 1  
    58   14   54 1  
    59   21   55 1  
    60   21   56 1  
    61   22   57 1  
    62   25   58 1  
    63   28   59 1  
    64   30   60 1  
    65   31   61 1  
    66   32   62 1  
@<TRIPOS>SUBSTRUCTURE
     1 E0V         1

