### 
### Created by X-TOOL on Wed Jan  1 15:39:38 2020
### 

@<TRIPOS>MOLECULE
6bod_ligand
   42    44     1     0     0
SMALL
GAST_HUCK


@<TRIPOS>ATOM
      1 C01       -25.0090  -18.0320   -2.9650 C.3       1 E0P        -0.0373
      2 C02       -26.2250  -17.1450   -2.7150 C.3       1 E0P         0.0725
      3 C04       -26.5370  -14.8900   -1.8890 C.2       1 E0P         0.2564
      4 C06       -26.5670  -13.8920   -0.7780 C.ar      1 E0P         0.1015
      5 C07       -26.4590  -14.2370    0.5700 C.ar      1 E0P        -0.0212
      6 C08       -26.4800  -13.3290    1.6240 C.ar      1 E0P         0.0851
      7 C09       -26.3890  -13.6340    3.0900 C.2       1 E0P         0.1443
      8 C11       -26.2700  -12.5410    4.1120 C.ar      1 E0P         0.0595
      9 C12       -26.0430  -12.7590    5.4800 C.ar      1 E0P        -0.0483
     10 C13       -25.9380  -11.7560    6.4510 C.ar      1 E0P        -0.0440
     11 C14       -25.6850  -12.0640    7.9510 C.3       1 E0P        -0.0163
     12 C15       -24.6970  -11.1150    8.6380 C.3       1 E0P        -0.0540
     13 C16       -25.2440  -13.5190    8.1990 C.3       1 E0P        -0.0540
     14 C17       -26.0980  -10.4660    5.9420 C.ar      1 E0P        -0.0615
     15 C18       -26.3340  -10.1940    4.5840 C.ar      1 E0P        -0.0256
     16 C19       -26.4280  -11.2300    3.6240 C.ar      1 E0P         0.1387
     17 C21       -26.6280  -11.9610    1.3010 C.ar      1 E0P         0.2024
     18 C23       -26.7090  -12.4910   -1.0470 C.ar      1 E0P         0.1258
     19 N22       -26.7390  -11.5450   -0.0040 N.ar      1 E0P        -0.2424
     20 N24       -26.8200  -12.0640   -2.3210 N.pl3     1 E0P        -0.3171
     21 O03       -25.9790  -16.1350   -1.7320 O.3       1 E0P        -0.2803
     22 O05       -27.0120  -14.6090   -2.9710 O.2       1 E0P        -0.3662
     23 O10       -26.4090  -14.7930    3.4180 O.2       1 E0P        -0.3919
     24 O20       -26.6710  -10.9680    2.2760 O.3       1 E0P        -0.2305
     25 H1        -25.2559  -18.7865   -3.7264 H         1 E0P         0.0255
     26 H2        -24.7235  -18.5351   -2.0294 H         1 E0P         0.0255
     27 H3        -24.1710  -17.4140   -3.3195 H         1 E0P         0.0255
     28 H4        -27.0565  -17.7769   -2.3697 H         1 E0P         0.0608
     29 H5        -26.5040  -16.6558   -3.6599 H         1 E0P         0.0608
     30 H6        -26.3510  -15.2878    0.8133 H         1 E0P         0.0780
     31 H7        -25.9408  -13.7862    5.8110 H         1 E0P         0.0580
     32 H8        -26.6537  -11.9308    8.4549 H         1 E0P         0.0439
     33 H9        -24.5801  -11.4075    9.6919 H         1 E0P         0.0252
     34 H10       -25.0796  -10.0851    8.5836 H         1 E0P         0.0252
     35 H11       -23.7221  -11.1712    8.1317 H         1 E0P         0.0252
     36 H12       -25.9500  -14.2049    7.7079 H         1 E0P         0.0252
     37 H13       -25.2310  -13.7189    9.2806 H         1 E0P         0.0252
     38 H14       -24.2362  -13.6723    7.7856 H         1 E0P         0.0252
     39 H15       -26.0370   -9.6308    6.6303 H         1 E0P         0.0574
     40 H16       -26.4470   -9.1647    4.2633 H         1 E0P         0.0559
     41 H17       -26.9222  -11.0586   -2.5201 H         1 E0P         0.1810
     42 H18       -26.8026  -12.7432   -3.0952 H         1 E0P         0.1810
@<TRIPOS>BOND
     1    2    1 1  
     2   21    2 1  
     3    3    4 1  
     4    3   21 1  
     5    3   22 2  
     6    4    5 ar 
     7    4   18 ar 
     8    5    6 ar 
     9    6    7 1  
    10    6   17 ar 
    11    7    8 1  
    12    7   23 2  
    13    8    9 ar 
    14    8   16 ar 
    15    9   10 ar 
    16   10   11 1  
    17   10   14 ar 
    18   11   12 1  
    19   11   13 1  
    20   14   15 ar 
    21   15   16 ar 
    22   16   24 1  
    23   17   19 ar 
    24   17   24 1  
    25   18   19 ar 
    26   18   20 1  
    27    1   25 1  
    28    1   26 1  
    29    1   27 1  
    30    2   28 1  
    31    2   29 1  
    32    5   30 1  
    33    9   31 1  
    34   11   32 1  
    35   12   33 1  
    36   12   34 1  
    37   12   35 1  
    38   13   36 1  
    39   13   37 1  
    40   13   38 1  
    41   14   39 1  
    42   15   40 1  
    43   20   41 1  
    44   20   42 1  
@<TRIPOS>SUBSTRUCTURE
     1 E0P         1

