### 
### Created by X-TOOL on Wed Jan  1 15:39:38 2020
### 

@<TRIPOS>MOLECULE
6boe_ligand
   42    45     1     0     0
SMALL
GAST_HUCK


@<TRIPOS>ATOM
      1 C01        -5.2710  -28.3390   -5.6050 C.3       1 E0S        -0.0540
      2 C02        -3.9970  -28.7050   -6.3980 C.3       1 E0S        -0.0164
      3 C03        -2.8290  -27.8480   -5.8630 C.3       1 E0S        -0.0540
      4 C04        -4.2080  -28.6490   -7.9370 C.ar      1 E0S        -0.0440
      5 C05        -5.4310  -28.2820   -8.5340 C.ar      1 E0S        -0.0616
      6 C06        -5.6440  -28.2260   -9.9300 C.ar      1 E0S        -0.0256
      7 C07        -4.5670  -28.5600  -10.7970 C.ar      1 E0S         0.1386
      8 C09        -3.8120  -29.0580  -13.0430 C.ar      1 E0S         0.2021
      9 C11        -3.2480  -29.7280  -15.2620 C.ar      1 E0S         0.1249
     10 C13        -1.9210  -30.1600  -14.8850 C.ar      1 E0S         0.0953
     11 C14        -1.6390  -29.9840  -13.5120 C.ar      1 E0S        -0.0221
     12 C15        -2.5440  -29.4470  -12.5890 C.ar      1 E0S         0.0848
     13 C16        -2.2730  -29.2630  -11.1640 C.2       1 E0S         0.1442
     14 C18        -3.3580  -28.9240  -10.2390 C.ar      1 E0S         0.0595
     15 C19        -3.1790  -28.9710   -8.8380 C.ar      1 E0S        -0.0484
     16 C20        -0.9270  -30.7420  -15.8510 C.2       1 E0S         0.2260
     17 C23         1.2340  -30.8650  -14.3750 C.2       1 E0S         0.2225
     18 N10        -4.1870  -29.1810  -14.3670 N.ar      1 E0S        -0.2428
     19 N12        -3.6560  -29.8450  -16.5870 N.pl3     1 E0S        -0.3173
     20 N22         0.4870  -31.0480  -15.5810 N.am      1 E0S        -0.2154
     21 N24         1.4300  -29.7510  -13.5910 N.2       1 E0S        -0.1595
     22 N25         2.2270  -30.1290  -12.5510 N.2       1 E0S        -0.0633
     23 N26         2.5550  -31.3920  -12.6040 N.pl3     1 E0S        -0.1252
     24 N27         1.9560  -31.9140  -13.7360 N.2       1 E0S        -0.1560
     25 O08        -4.7910  -28.5010  -12.1960 O.3       1 E0S        -0.2307
     26 O17        -1.0860  -29.4060  -10.7230 O.2       1 E0S        -0.3919
     27 O21        -1.2690  -31.0260  -17.0220 O.2       1 E0S        -0.3826
     28 H1         -5.0608  -28.3961   -4.5268 H         1 E0S         0.0252
     29 H2         -6.0764  -29.0438   -5.8593 H         1 E0S         0.0252
     30 H3         -5.5831  -27.3165   -5.8641 H         1 E0S         0.0252
     31 H4         -3.7561  -29.7525   -6.1641 H         1 E0S         0.0439
     32 H5         -1.9104  -28.0941   -6.4159 H         1 E0S         0.0252
     33 H6         -2.6804  -28.0575   -4.7934 H         1 E0S         0.0252
     34 H7         -3.0641  -26.7820   -5.9987 H         1 E0S         0.0252
     35 H8         -6.2589  -28.0271   -7.8824 H         1 E0S         0.0574
     36 H9         -6.6078  -27.9347  -10.3315 H         1 E0S         0.0559
     37 H10        -0.6616  -30.2832  -13.1510 H         1 E0S         0.0777
     38 H11        -2.2131  -29.2661   -8.4443 H         1 E0S         0.0580
     39 H12        -4.5998  -29.5396  -16.8641 H         1 E0S         0.1809
     40 H13        -3.0142  -30.2370  -17.2908 H         1 E0S         0.1809
     41 H14         0.9967  -31.4384  -16.3477 H         1 E0S         0.2244
     42 H15         3.1462  -31.9015  -11.9319 H         1 E0S         0.2825
@<TRIPOS>BOND
     1    2    1 1  
     2    2    3 1  
     3    4    2 1  
     4    5    4 ar 
     5    4   15 ar 
     6    6    5 ar 
     7    7    6 ar 
     8    7   14 ar 
     9   25    7 1  
    10    8   12 ar 
    11   18    8 ar 
    12    8   25 1  
    13    9   10 ar 
    14    9   18 ar 
    15    9   19 1  
    16   10   11 ar 
    17   10   16 1  
    18   11   12 ar 
    19   12   13 1  
    20   13   14 1  
    21   13   26 2  
    22   14   15 ar 
    23   16   20 am 
    24   16   27 2  
    25   20   17 1  
    26   17   21 1  
    27   17   24 2  
    28   21   22 2  
    29   22   23 1  
    30   23   24 1  
    31    1   28 1  
    32    1   29 1  
    33    1   30 1  
    34    2   31 1  
    35    3   32 1  
    36    3   33 1  
    37    3   34 1  
    38    5   35 1  
    39    6   36 1  
    40   11   37 1  
    41   15   38 1  
    42   19   39 1  
    43   19   40 1  
    44   20   41 1  
    45   23   42 1  
@<TRIPOS>SUBSTRUCTURE
     1 E0S         1

