### 
### Created by X-TOOL on Wed Jan  1 15:39:37 2020
### 

@<TRIPOS>MOLECULE
6boy_ligand
  104   110     1     0     0
SMALL
GAST_HUCK


@<TRIPOS>ATOM
      1 N          76.7220   32.8550   57.5780 N.2       1 RN6        -0.2795
      2 C          75.4010   34.6710   58.6480 C.3       1 RN6         0.0171
      3 O          68.8620   41.5050   48.2970 O.3       1 RN6        -0.2912
      4 C1         75.7280   33.7060   57.5680 C.2       1 RN6         0.1468
      5 C10        72.9200   35.2370   49.0230 C.3       1 RN6        -0.0530
      6 C11        73.1470   36.7300   48.8150 C.3       1 RN6        -0.0512
      7 C12        71.9630   37.6380   49.1420 C.3       1 RN6        -0.0327
      8 C13        70.9110   37.6760   48.0500 C.3       1 RN6         0.0310
      9 C14        70.7700   40.1080   47.7140 C.2       1 RN6         0.2072
     10 C15        69.8670   41.2560   47.3260 C.3       1 RN6         0.1607
     11 C16        69.1470   42.3920   49.3000 C.ar      1 RN6         0.1205
     12 C17        69.6710   42.0020   50.5230 C.ar      1 RN6        -0.0224
     13 C18        69.8760   42.9450   51.5150 C.ar      1 RN6        -0.0605
     14 C19        69.5620   44.2740   51.2950 C.ar      1 RN6        -0.0478
     15 C2         75.6900   32.6030   55.6680 C.2       1 RN6         0.1630
     16 C20        69.0420   44.6530   50.0610 C.ar      1 RN6         0.0651
     17 C21        68.6130   45.9900   49.5850 C.2       1 RN6         0.2395
     18 C22        67.5930   46.8610   47.4370 C.3       1 RN6         0.1622
     19 C23        68.3930   48.1480   47.5160 C.2       1 RN6         0.2347
     20 C24        66.3640   49.4780   47.1510 C.2       1 RN6         0.2047
     21 C25        65.5530   48.2230   47.0480 C.3       1 RN6         0.0471
     22 C26        66.1400   47.0720   47.8510 C.3       1 RN6         0.0096
     23 C27        68.8320   43.7380   49.0440 C.ar      1 RN6         0.1016
     24 C28        68.2720   44.4640   47.8740 C.2       1 RN6         0.2364
     25 C29        74.8330   34.4330   53.6010 C.2       1 RN6         0.0263
     26 C3         75.2760   32.2180   54.2650 C.3       1 RN6         0.0994
     27 C30        75.1530   35.6020   52.7550 C.ar      1 RN6         0.0078
     28 C31        74.8930   36.8990   53.1860 C.ar      1 RN6        -0.0437
     29 C32        75.2230   37.9860   52.3970 C.ar      1 RN6        -0.0406
     30 C33        75.8170   37.7720   51.1730 C.ar      1 RN6         0.0470
     31 C34        76.0890   36.5000   50.7220 C.ar      1 RN6        -0.0406
     32 C35        75.7540   35.4180   51.5150 C.ar      1 RN6        -0.0437
     33 C36        73.7180   34.5670   54.5710 C.2       1 RN6         0.0320
     34 C37        73.8740   34.2040   55.8890 C.2       1 RN6         0.1844
     35 C38        71.6050   35.0640   55.4220 C.2       1 RN6         0.0043
     36 C39        70.1790   35.4990   55.5750 C.3       1 RN6        -0.0308
     37 C4         75.9050   30.9250   53.7320 C.3       1 RN6         0.0632
     38 C40        72.3820   35.0500   54.3060 C.2       1 RN6        -0.0580
     39 C41        71.8610   35.4410   52.9550 C.3       1 RN6        -0.0507
     40 C5         75.3750   30.6010   52.3520 C.2       1 RN6         0.1794
     41 C6         75.6200   30.9860   49.9480 C.3       1 RN6         0.0309
     42 C7         75.4880   32.2690   49.1500 C.3       1 RN6        -0.0327
     43 C8         74.2150   33.0540   49.4300 C.3       1 RN6        -0.0512
     44 C9         74.1340   34.3800   48.6840 C.3       1 RN6        -0.0530
     45 N1         76.7000   32.1520   56.3760 N.2       1 RN6        -0.2784
     46 N2         75.9720   31.2280   51.3400 N.am      1 RN6        -0.2868
     47 N3         70.1860   38.9390   47.9840 N.am      1 RN6        -0.2847
     48 N4         68.1610   45.8030   48.2730 N.am      1 RN6        -0.1633
     49 N5         67.7090   49.3320   47.3730 N.am      1 RN6        -0.1975
     50 N6         75.5520   33.3890   53.4210 N.2       1 RN6        -0.3433
     51 N7         75.0320   33.5840   56.3820 N.pl3     1 RN6        -0.1470
     52 O1         65.8690   50.5980   47.0500 O.2       1 RN6        -0.3862
     53 O2         69.6080   48.1360   47.6860 O.2       1 RN6        -0.3833
     54 O3         68.6170   47.0530   50.1800 O.2       1 RN6        -0.3671
     55 O4         67.9660   44.0350   46.7770 O.2       1 RN6        -0.3734
     56 O5         71.9860   40.2790   47.7370 O.2       1 RN6        -0.3941
     57 O6         74.4490   29.8110   52.1910 O.2       1 RN6        -0.3968
     58 S          72.4510   34.4740   56.8220 S.3       1 RN6         0.0060
     59 CL         76.2300   39.1370   50.1740 Cl        1 RN6        -0.0647
     60 H1         76.1163   34.5518   59.4751 H         1 RN6         0.0469
     61 H2         74.3816   34.4797   59.0144 H         1 RN6         0.0469
     62 H3         75.4629   35.6964   58.2547 H         1 RN6         0.0469
     63 H4         72.0823   34.9207   48.3841 H         1 RN6         0.0265
     64 H5         72.6600   35.0689   50.0785 H         1 RN6         0.0265
     65 H6         73.4098   36.8867   47.7584 H         1 RN6         0.0266
     66 H7         73.9907   37.0343   49.4518 H         1 RN6         0.0266
     67 H8         72.3401   38.6595   49.2980 H         1 RN6         0.0285
     68 H9         71.4914   37.2758   50.0674 H         1 RN6         0.0285
     69 H10        70.1874   36.8686   48.2355 H         1 RN6         0.0520
     70 H11        71.4072   37.5086   47.0827 H         1 RN6         0.0520
     71 H12        70.4785   42.1629   47.2097 H         1 RN6         0.0863
     72 H13        69.3816   41.0158   46.3686 H         1 RN6         0.0863
     73 H14        69.9193   40.9620   50.7016 H         1 RN6         0.0591
     74 H15        70.2855   42.6399   52.4712 H         1 RN6         0.0635
     75 H16        69.7190   45.0112   52.0741 H         1 RN6         0.0592
     76 H17        67.6103   46.5214   46.3909 H         1 RN6         0.0857
     77 H18        65.5022   47.9235   45.9908 H         1 RN6         0.0510
     78 H19        64.5385   48.4290   47.4199 H         1 RN6         0.0510
     79 H20        66.0941   47.3109   48.9238 H         1 RN6         0.0341
     80 H21        65.5646   46.1553   47.6545 H         1 RN6         0.0341
     81 H22        74.1886   32.0520   54.2718 H         1 RN6         0.0654
     82 H23        74.4265   37.0595   54.1512 H         1 RN6         0.0681
     83 H24        75.0166   38.9941   52.7379 H         1 RN6         0.0639
     84 H25        76.5598   36.3486   49.7574 H         1 RN6         0.0639
     85 H26        75.9627   34.4134   51.1653 H         1 RN6         0.0681
     86 H27        69.8682   35.3747   56.6228 H         1 RN6         0.0365
     87 H28        69.5367   34.8848   54.9267 H         1 RN6         0.0365
     88 H29        70.0855   36.5567   55.2878 H         1 RN6         0.0365
     89 H30        75.6629   30.0975   54.4151 H         1 RN6         0.0539
     90 H31        76.9966   31.0496   53.6793 H         1 RN6         0.0539
     91 H32        72.6666   35.3513   52.2114 H         1 RN6         0.0315
     92 H33        71.5050   36.4813   52.9863 H         1 RN6         0.0315
     93 H34        71.0294   34.7771   52.6765 H         1 RN6         0.0315
     94 H35        76.4030   30.3644   49.4893 H         1 RN6         0.0520
     95 H36        74.6600   30.4499   49.9152 H         1 RN6         0.0520
     96 H37        75.5060   32.0126   48.0805 H         1 RN6         0.0285
     97 H38        76.3482   32.9121   49.3874 H         1 RN6         0.0285
     98 H39        74.1646   33.2597   50.5094 H         1 RN6         0.0266
     99 H40        73.3543   32.4363   49.1339 H         1 RN6         0.0266
    100 H41        75.0381   34.9603   48.9205 H         1 RN6         0.0265
    101 H42        74.1087   34.1638   47.6058 H         1 RN6         0.0265
    102 H43        76.6913   31.8920   51.5444 H         1 RN6         0.1851
    103 H44        69.1999   38.9288   48.1497 H         1 RN6         0.1851
    104 H45        68.2473   50.1723   47.4375 H         1 RN6         0.2257
@<TRIPOS>BOND
     1    4    1 2  
     2   45    1 1  
     3    4    2 1  
     4   10    3 1  
     5    3   11 1  
     6   51    4 1  
     7    5    6 1  
     8   44    5 1  
     9    6    7 1  
    10    7    8 1  
    11    8   47 1  
    12    9   10 1  
    13   47    9 am 
    14    9   56 2  
    15   11   12 ar 
    16   11   23 ar 
    17   12   13 ar 
    18   13   14 ar 
    19   16   14 ar 
    20   26   15 1  
    21   15   45 2  
    22   15   51 1  
    23   16   17 1  
    24   23   16 ar 
    25   48   17 am 
    26   17   54 2  
    27   18   19 1  
    28   18   22 1  
    29   48   18 1  
    30   19   49 am 
    31   19   53 2  
    32   21   20 1  
    33   49   20 am 
    34   20   52 2  
    35   22   21 1  
    36   23   24 1  
    37   24   48 am 
    38   24   55 2  
    39   25   27 1  
    40   25   33 1  
    41   50   25 2  
    42   37   26 1  
    43   26   50 1  
    44   27   28 ar 
    45   27   32 ar 
    46   28   29 ar 
    47   29   30 ar 
    48   31   30 ar 
    49   30   59 1  
    50   32   31 ar 
    51   33   34 2  
    52   33   38 1  
    53   51   34 1  
    54   34   58 1  
    55   35   36 1  
    56   38   35 2  
    57   58   35 1  
    58   40   37 1  
    59   38   39 1  
    60   46   40 am 
    61   40   57 2  
    62   42   41 1  
    63   41   46 1  
    64   43   42 1  
    65   43   44 1  
    66    2   60 1  
    67    2   61 1  
    68    2   62 1  
    69    5   63 1  
    70    5   64 1  
    71    6   65 1  
    72    6   66 1  
    73    7   67 1  
    74    7   68 1  
    75    8   69 1  
    76    8   70 1  
    77   10   71 1  
    78   10   72 1  
    79   12   73 1  
    80   13   74 1  
    81   14   75 1  
    82   18   76 1  
    83   21   77 1  
    84   21   78 1  
    85   22   79 1  
    86   22   80 1  
    87   26   81 1  
    88   28   82 1  
    89   29   83 1  
    90   31   84 1  
    91   32   85 1  
    92   36   86 1  
    93   36   87 1  
    94   36   88 1  
    95   37   89 1  
    96   37   90 1  
    97   39   91 1  
    98   39   92 1  
    99   39   93 1  
   100   41   94 1  
   101   41   95 1  
   102   42   96 1  
   103   42   97 1  
   104   43   98 1  
   105   43   99 1  
   106   44  100 1  
   107   44  101 1  
   108   46  102 1  
   109   47  103 1  
   110   49  104 1  
@<TRIPOS>SUBSTRUCTURE
     1 RN6         1

