### 
### Created by X-TOOL on Wed Jan  1 15:39:36 2020
### 

@<TRIPOS>MOLECULE
6bq0_ligand
   34    37     1     0     0
SMALL
GAST_HUCK


@<TRIPOS>ATOM
      1 N3        -16.2090  -13.1750  -18.1390 N.am      1 E3A        -0.2739
      2 C4         -6.0760  -11.6500  -17.9250 C.ar      1 E3A        -0.0320
      3 N2        -10.8680  -12.2190  -18.1850 N.2       1 E3A        -0.2161
      4 C7         -9.7110  -14.0170  -17.4690 C.2       1 E3A         0.0597
      5 C6         -8.4720  -11.8980  -18.0040 C.ar      1 E3A         0.1049
      6 C9        -11.7290  -13.2100  -17.9850 C.2       1 E3A         0.0116
      7 C13       -15.4880  -12.0260  -17.5960 C.3       1 E3A         0.0393
      8 C8        -11.0230  -14.3790  -17.5220 C.2       1 E3A        -0.0436
      9 C1         -8.5940  -10.5790  -18.4360 C.ar      1 E3A        -0.0273
     10 C2         -7.4640   -9.7980  -18.6160 C.ar      1 E3A        -0.0320
     11 C3         -6.2360  -10.3580  -18.3610 C.ar      1 E3A         0.1251
     12 C5         -7.2070  -12.4280  -17.7440 C.ar      1 E3A        -0.0273
     13 N1         -9.6380  -12.7210  -17.8690 N.pl3     1 E3A        -0.1749
     14 C10       -13.2030  -13.0650  -18.2640 C.3       1 E3A         0.0058
     15 C11       -14.1030  -14.0480  -17.5330 C.3       1 E3A        -0.0017
     16 C12       -14.1380  -12.5990  -17.1600 C.3       1 E3A        -0.0017
     17 C14       -15.4150  -14.3980  -18.2280 C.3       1 E3A         0.0393
     18 C15       -17.5000  -13.1450  -18.5390 C.2       1 E3A         0.1718
     19 O1        -18.1170  -12.1480  -18.8350 O.2       1 E3A        -0.3829
     20 F1         -5.1250   -9.6030  -18.5710 F         1 E3A        -0.1892
     21 H1         -5.0885  -12.0511  -17.7273 H         1 E3A         0.0588
     22 H2         -8.8775  -14.6478  -17.1635 H         1 E3A         0.0988
     23 H3        -16.0259  -11.5989  -16.7368 H         1 E3A         0.0529
     24 H4        -15.3525  -11.2517  -18.3655 H         1 E3A         0.0529
     25 H5        -11.4495  -15.3483  -17.2679 H         1 E3A         0.0322
     26 H6         -9.5756  -10.1628  -18.6318 H         1 E3A         0.0577
     27 H7         -7.5469   -8.7701  -18.9499 H         1 E3A         0.0588
     28 H8         -7.1099  -13.4512  -17.3995 H         1 E3A         0.0577
     29 H9        -13.3801  -12.7750  -19.3102 H         1 E3A         0.0455
     30 H10       -13.7040  -14.8521  -16.8973 H         1 E3A         0.0348
     31 H11       -13.7630  -12.1834  -16.2131 H         1 E3A         0.0348
     32 H12       -15.2382  -14.6721  -19.2785 H         1 E3A         0.0529
     33 H13       -15.9195  -15.2284  -17.7123 H         1 E3A         0.0529
     34 H14       -18.0272  -14.0960  -18.5996 H         1 E3A         0.1546
@<TRIPOS>BOND
     1    7    1 1  
     2    1   17 1  
     3    1   18 am 
     4    2   11 ar 
     5   12    2 ar 
     6    6    3 2  
     7    3   13 1  
     8    8    4 2  
     9    4   13 1  
    10    5    9 ar 
    11    5   12 ar 
    12   13    5 1  
    13    6    8 1  
    14   14    6 1  
    15   16    7 1  
    16    9   10 ar 
    17   10   11 ar 
    18   11   20 1  
    19   14   15 1  
    20   14   16 1  
    21   15   16 1  
    22   15   17 1  
    23   18   19 2  
    24    2   21 1  
    25    4   22 1  
    26    7   23 1  
    27    7   24 1  
    28    8   25 1  
    29    9   26 1  
    30   10   27 1  
    31   12   28 1  
    32   14   29 1  
    33   15   30 1  
    34   16   31 1  
    35   17   32 1  
    36   17   33 1  
    37   18   34 1  
@<TRIPOS>SUBSTRUCTURE
     1 E3A         1

