### 
### Created by X-TOOL on Mon Aug  2 16:12:40 2021
### 

@<TRIPOS>MOLECULE
6bqa_ligand
   46    48     1     0     0
SMALL
GAST_HUCK


@<TRIPOS>ATOM
      1 C1        -42.9660  -23.2260    2.2060 C.3       1 MOL         0.0218
      2 N1        -48.7040  -30.2150    2.9640 N.am      1 MOL        -0.2098
      3 O1        -50.3920  -30.1630    4.5100 O.2       1 MOL        -0.4056
      4 C2        -43.3380  -25.5310    1.5490 C.2       1 MOL         0.2050
      5 N2        -48.8630  -27.9840    5.9310 N.pl3     1 MOL        -0.2840
      6 C3        -43.7220  -26.9320    1.9050 C.ar      1 MOL         0.0415
      7 C4        -44.9770  -27.2200    2.4440 C.ar      1 MOL        -0.0468
      8 C5        -45.3640  -28.5430    2.6610 C.ar      1 MOL        -0.0387
      9 C6        -44.4760  -29.5710    2.3450 C.ar      1 MOL        -0.0627
     10 C7        -43.2250  -29.2850    1.8280 C.ar      1 MOL        -0.0651
     11 C8        -42.8470  -27.9740    1.6120 C.ar      1 MOL        -0.0504
     12 C9        -46.7200  -28.8720    3.1750 C.2       1 MOL        -0.0153
     13 C10       -47.4550  -29.8230    2.5450 C.2       1 MOL         0.0593
     14 C15       -49.3110  -29.7140    4.1260 C.2       1 MOL         0.2385
     15 C11       -49.4390  -31.2450    2.2120 C.3       1 MOL         0.0764
     16 C12       -50.6750  -30.6810    1.5040 C.3       1 MOL         0.0043
     17 C13       -50.3140  -29.7100    0.4160 C.2       1 MOL        -0.0865
     18 C14       -50.9690  -28.6110    0.1070 C.2       1 MOL        -0.1174
     19 C16       -48.5720  -28.6960    4.7900 C.2       1 MOL         0.1256
     20 C19       -47.8430  -27.1170    6.2090 C.2       1 MOL         0.0187
     21 C18       -46.8700  -27.2480    5.2560 C.2       1 MOL        -0.0722
     22 C17       -47.3160  -28.2430    4.3400 C.2       1 MOL        -0.0362
     23 O         -43.0350  -25.2720    0.3960 O.2       1 MOL        -0.3845
     24 N         -43.2820  -24.6150    2.5270 N.am      1 MOL        -0.2786
     25 C         -43.4230  -24.8930    3.9570 C.3       1 MOL         0.0218
     26 H1        -42.9657  -22.6274    3.1288 H         1 MOL         0.0486
     27 H2        -43.7213  -22.8291    1.5117 H         1 MOL         0.0486
     28 H3        -41.9729  -23.1751    1.7357 H         1 MOL         0.0486
     29 H4        -49.7207  -28.0885    6.4916 H         1 MOL         0.2309
     30 H5        -45.6544  -26.4118    2.6953 H         1 MOL         0.0600
     31 H6        -44.7684  -30.6024    2.5058 H         1 MOL         0.0579
     32 H7        -42.5400  -30.0913    1.5919 H         1 MOL         0.0605
     33 H8        -41.8634  -27.7556    1.2121 H         1 MOL         0.0597
     34 H9        -47.0334  -30.3003    1.6616 H         1 MOL         0.1124
     35 H10       -49.7604  -32.0309    2.9112 H         1 MOL         0.0659
     36 H11       -48.7666  -31.6784    1.4570 H         1 MOL         0.0659
     37 H12       -51.3027  -30.1647    2.2452 H         1 MOL         0.0471
     38 H13       -51.2404  -31.5143    1.0614 H         1 MOL         0.0471
     39 H14       -49.4264  -29.9369   -0.1727 H         1 MOL         0.0673
     40 H15       -50.6162  -27.9769   -0.7050 H         1 MOL         0.0290
     41 H16       -51.8638  -28.3358    0.6634 H         1 MOL         0.0290
     42 H17       -47.8102  -26.4313    7.0544 H         1 MOL         0.0890
     43 H18       -45.9325  -26.6961    5.2072 H         1 MOL         0.0281
     44 H19       -43.6594  -25.9575    4.1020 H         1 MOL         0.0486
     45 H20       -44.2346  -24.2773    4.3720 H         1 MOL         0.0486
     46 H21       -42.4809  -24.6532    4.4718 H         1 MOL         0.0486
@<TRIPOS>BOND
     1   24    1 1  
     2    2   13 1  
     3   14    2 am 
     4    2   15 1  
     5   14    3 2  
     6    6    4 1  
     7    4   23 2  
     8    4   24 am 
     9   19    5 1  
    10    5   20 1  
    11    7    6 ar 
    12    6   11 ar 
    13    8    7 ar 
    14    8    9 ar 
    15   12    8 1  
    16    9   10 ar 
    17   10   11 ar 
    18   13   12 2  
    19   12   22 1  
    20   14   19 1  
    21   15   16 1  
    22   16   17 1  
    23   17   18 2  
    24   19   22 2  
    25   20   21 2  
    26   21   22 1  
    27   24   25 1  
    28    1   26 1  
    29    1   27 1  
    30    1   28 1  
    31    5   29 1  
    32    7   30 1  
    33    9   31 1  
    34   10   32 1  
    35   11   33 1  
    36   13   34 1  
    37   15   35 1  
    38   15   36 1  
    39   16   37 1  
    40   16   38 1  
    41   17   39 1  
    42   18   40 1  
    43   18   41 1  
    44   20   42 1  
    45   21   43 1  
    46   25   44 1  
    47   25   45 1  
    48   25   46 1  
@<TRIPOS>SUBSTRUCTURE
     1 MOL         1

