### 
### Created by X-TOOL on Mon Aug  2 16:12:41 2021
### 

@<TRIPOS>MOLECULE
6bqd_ligand
   46    48     1     0     0
SMALL
GAST_HUCK


@<TRIPOS>ATOM
      1 C4          4.5580    7.3210   83.3820 C.3       1 MOL         0.0835
      2 C14         2.2320    7.2220   84.0160 C.2       1 MOL         0.2399
      3 C6          3.2040    9.3620   83.6650 C.2       1 MOL         0.0611
      4 C7          2.0230   10.0030   83.9210 C.2       1 MOL        -0.0151
      5 C8          0.8380    9.1860   84.2620 C.2       1 MOL        -0.0362
      6 C9         -0.5210    9.4530   84.5910 C.2       1 MOL        -0.0722
      7 C10        -1.1590    8.2700   84.8060 C.2       1 MOL         0.0187
      8 C13         0.9760    7.7870   84.3080 C.2       1 MOL         0.1258
      9 C3          5.5730    7.4770   84.4500 C.2       1 MOL        -0.0675
     10 C1          7.7690    8.2010   85.1760 C.3       1 MOL        -0.0485
     11 C2          6.7110    8.0100   84.1220 C.2       1 MOL        -0.0990
     12 N5          3.2960    7.9950   83.7150 N.am      1 MOL        -0.2041
     13 N11        -0.2610    7.2580   84.6310 N.pl3     1 MOL        -0.2839
     14 O15         2.3570    6.0120   84.0560 O.2       1 MOL        -0.4055
     15 C16         1.9340   11.4980   83.8840 C.ar      1 MOL        -0.0387
     16 C17         0.8050   12.1760   83.3860 C.ar      1 MOL        -0.0627
     17 C18         0.7570   13.5710   83.3890 C.ar      1 MOL        -0.0651
     18 C19         1.8300   14.2920   83.9200 C.ar      1 MOL        -0.0504
     19 C20         2.9670   13.6290   84.4110 C.ar      1 MOL         0.0415
     20 C21         3.0070   12.2310   84.4050 C.ar      1 MOL        -0.0468
     21 C22         4.1260   14.3570   84.9940 C.2       1 MOL         0.2050
     22 O23         4.3620   14.2680   86.1950 O.2       1 MOL        -0.3845
     23 N24         4.9460   15.1230   84.2720 N.am      1 MOL        -0.2786
     24 C25         6.0730   15.7630   84.9820 C.3       1 MOL         0.0218
     25 C26         4.7600   15.2680   82.8260 C.3       1 MOL         0.0218
     26 H1          4.3594    6.2491   83.2355 H         1 MOL         0.0758
     27 H2          4.9545    7.7512   82.4505 H         1 MOL         0.0758
     28 H3          4.0875    9.9484   83.4169 H         1 MOL         0.1126
     29 H4         -0.9751   10.4404   84.6594 H         1 MOL         0.0281
     30 H5         -2.2082    8.1515   85.0725 H         1 MOL         0.0890
     31 H6          5.3724    7.1569   85.4714 H         1 MOL         0.0478
     32 H7          8.6590    8.6619   84.7228 H         1 MOL         0.0353
     33 H8          8.0398    7.2249   85.6049 H         1 MOL         0.0353
     34 H9          7.3813    8.8557   85.9703 H         1 MOL         0.0353
     35 H10         6.8983    8.3160   83.0938 H         1 MOL         0.0448
     36 H11        -0.4716    6.2541   84.7249 H         1 MOL         0.2309
     37 H12        -0.0338   11.6101   82.9971 H         1 MOL         0.0579
     38 H13        -0.1040   14.0900   82.9835 H         1 MOL         0.0605
     39 H14         1.7844   15.3745   83.9533 H         1 MOL         0.0597
     40 H15         3.8714   11.7134   84.8050 H         1 MOL         0.0600
     41 H16         6.6626   16.3603   84.2709 H         1 MOL         0.0486
     42 H17         6.7129   14.9876   85.4284 H         1 MOL         0.0486
     43 H18         5.6825   16.4175   85.7751 H         1 MOL         0.0486
     44 H19         3.8639   14.7115   82.5140 H         1 MOL         0.0486
     45 H20         5.6406   14.8690   82.3012 H         1 MOL         0.0486
     46 H21         4.6358   16.3322   82.5772 H         1 MOL         0.0486
@<TRIPOS>BOND
     1    1    9 1  
     2   12    1 1  
     3    2    8 1  
     4   12    2 am 
     5    2   14 2  
     6    3    4 2  
     7    3   12 1  
     8    4    5 1  
     9    4   15 1  
    10    5    6 1  
    11    5    8 2  
    12    6    7 2  
    13    7   13 1  
    14    8   13 1  
    15    9   11 2  
    16   11   10 1  
    17   15   16 ar 
    18   15   20 ar 
    19   16   17 ar 
    20   17   18 ar 
    21   18   19 ar 
    22   19   20 ar 
    23   19   21 1  
    24   21   22 2  
    25   21   23 am 
    26   23   24 1  
    27   23   25 1  
    28    1   26 1  
    29    1   27 1  
    30    3   28 1  
    31    6   29 1  
    32    7   30 1  
    33    9   31 1  
    34   10   32 1  
    35   10   33 1  
    36   10   34 1  
    37   11   35 1  
    38   13   36 1  
    39   16   37 1  
    40   17   38 1  
    41   18   39 1  
    42   20   40 1  
    43   24   41 1  
    44   24   42 1  
    45   24   43 1  
    46   25   44 1  
    47   25   45 1  
    48   25   46 1  
@<TRIPOS>SUBSTRUCTURE
     1 MOL         1

