### 
### Created by X-TOOL on Wed Jan  1 15:39:38 2020
### 

@<TRIPOS>MOLECULE
6bqg_ligand
   79    86     1     0     0
SMALL
GAST_HUCK


@<TRIPOS>ATOM
      1 C1         23.0040   35.8990   49.5800 C.2       1 ERM         0.0161
      2 N1         22.7170   37.1920   49.8450 N.pl3     1 ERM        -0.2902
      3 O1         21.3260   32.8330   56.9360 O.2       1 ERM        -0.3935
      4 C10        21.6890   36.8210   53.8300 C.ar      1 ERM        -0.0762
      5 C11        21.6090   38.1420   53.3250 C.ar      1 ERM        -0.0797
      6 C12        21.9420   38.3970   51.9530 C.ar      1 ERM        -0.0476
      7 C13        22.3270   37.3460   51.1770 C.ar      1 ERM         0.0572
      8 C14        22.4060   36.0400   51.6810 C.ar      1 ERM        -0.0180
      9 C15        21.9610   30.7550   51.9580 C.3       1 ERM        -0.0413
     10 C16        22.3050   32.2340   56.5340 C.2       1 ERM         0.1952
     11 C17        22.6570   30.8430   58.6000 C.3       1 ERM         0.2380
     12 C18        22.2800   31.9620   59.5280 C.2       1 ERM         0.2610
     13 C19        20.2660   32.5530   60.7920 C.3       1 ERM         0.1485
     14 N2         22.6460   31.8410   52.7070 N.4       1 ERM         0.2485
     15 C2         22.8250   35.1320   50.6890 C.2       1 ERM        -0.0405
     16 O2         21.5180   29.9780   58.6350 O.3       1 ERM        -0.2953
     17 C20        19.3630   31.6760   61.6790 C.2       1 ERM         0.2072
     18 C21        18.4300   29.4290   62.2130 C.3       1 ERM         0.0346
     19 C22        18.0310   28.3030   61.2830 C.3       1 ERM        -0.0302
     20 C23        18.9540   28.4280   60.0360 C.3       1 ERM        -0.0205
     21 C24        19.8810   29.5900   60.4270 C.3       1 ERM         0.1228
     22 C25        20.3890   30.5120   59.3230 C.3       1 ERM         0.2938
     23 C26        23.9410   30.1680   59.0560 C.3       1 ERM        -0.0059
     24 C27        19.4230   33.6120   60.1290 C.3       1 ERM         0.0219
     25 C28        18.8460   34.6710   61.0520 C.ar      1 ERM        -0.0385
     26 C29        19.7350   35.4720   61.8020 C.ar      1 ERM        -0.0601
     27 C3         22.9880   33.6690   50.9920 C.3       1 ERM         0.0139
     28 N3         22.9760   31.2990   57.2440 N.am      1 ERM        -0.2522
     29 O3         22.9990   32.8800   59.8620 O.2       1 ERM        -0.3388
     30 C30        19.2510   36.4650   62.6740 C.ar      1 ERM        -0.0686
     31 C31        17.8680   36.6580   62.7980 C.ar      1 ERM        -0.0687
     32 C32        16.9830   35.8590   62.0500 C.ar      1 ERM        -0.0686
     33 C33        17.4580   34.8650   61.1760 C.ar      1 ERM        -0.0601
     34 C4         22.1980   33.2330   52.2830 C.3       1 ERM         0.0081
     35 N4         21.0110   31.7090   59.8820 N.am      1 ERM        -0.1905
     36 O4         18.7320   32.1810   62.6240 O.2       1 ERM        -0.3941
     37 C5         22.4150   31.4620   54.1460 C.3       1 ERM        -0.0031
     38 N5         19.2410   30.3760   61.4590 N.am      1 ERM        -0.2606
     39 O5         19.3880   30.8460   58.4190 O.3       1 ERM        -0.3436
     40 C6         22.8530   32.5400   55.1140 C.3       1 ERM         0.1096
     41 C7         22.5410   33.9450   54.6770 C.2       1 ERM        -0.0524
     42 C8         22.2230   34.2670   53.4260 C.2       1 ERM        -0.0048
     43 C9         22.0870   35.7330   53.0310 C.ar      1 ERM        -0.0383
     44 H1         23.3331   35.5227   48.6125 H         1 ERM         0.0788
     45 H2         22.7774   37.9584   49.1595 H         1 ERM         0.2215
     46 H3         21.4347   36.6418   54.8684 H         1 ERM         0.0483
     47 H4         21.2982   38.9551   53.9711 H         1 ERM         0.0524
     48 H5         21.8886   39.3998   51.5447 H         1 ERM         0.0514
     49 H6         22.3274   29.7793   52.3099 H         1 ERM         0.0778
     50 H7         22.1727   30.8604   50.8837 H         1 ERM         0.0778
     51 H8         20.8760   30.8215   52.1261 H         1 ERM         0.0778
     52 H9         20.9956   33.0669   61.4351 H         1 ERM         0.0829
     53 H10        23.6359   31.7932   52.5231 H         1 ERM         0.2049
     54 H11        19.0127   29.0277   63.0553 H         1 ERM         0.0522
     55 H12        17.5300   29.9320   62.5964 H         1 ERM         0.0522
     56 H13        16.9760   28.4058   60.9892 H         1 ERM         0.0285
     57 H14        18.1819   27.3303   61.7740 H         1 ERM         0.0285
     58 H15        18.3732   28.6687   59.1334 H         1 ERM         0.0291
     59 H16        19.5247   27.5026   59.8689 H         1 ERM         0.0291
     60 H17        20.7766   29.1270   60.8669 H         1 ERM         0.0636
     61 H18        24.1942   29.3540   58.3608 H         1 ERM         0.0266
     62 H19        23.8002   29.7566   60.0664 H         1 ERM         0.0266
     63 H20        24.7575   30.9050   59.0706 H         1 ERM         0.0266
     64 H21        18.5838   33.1094   59.6258 H         1 ERM         0.0474
     65 H22        20.0478   34.1210   59.3803 H         1 ERM         0.0474
     66 H23        20.8039   35.3200   61.7048 H         1 ERM         0.0557
     67 H24        24.0566   33.4561   51.1428 H         1 ERM         0.0423
     68 H25        22.6153   33.0871   50.1362 H         1 ERM         0.0423
     69 H26        23.7671   30.8775   56.8007 H         1 ERM         0.1862
     70 H27        19.9416   37.0753   63.2448 H         1 ERM         0.0599
     71 H28        17.4821   37.4189   63.4667 H         1 ERM         0.0559
     72 H29        15.9146   36.0129   62.1496 H         1 ERM         0.0599
     73 H30        16.7648   34.2570   60.6060 H         1 ERM         0.0557
     74 H31        21.1423   33.1457   51.9865 H         1 ERM         0.0989
     75 H32        22.9808   30.5440   54.3629 H         1 ERM         0.0868
     76 H33        21.3411   31.2739   54.2919 H         1 ERM         0.0868
     77 H34        19.7171   31.4965   57.8098 H         1 ERM         0.2150
     78 H35        23.9496   32.4774   55.1733 H         1 ERM         0.0737
     79 H36        22.5772   34.7385   55.4220 H         1 ERM         0.0551
@<TRIPOS>BOND
     1    1    2 1  
     2   15    1 2  
     3    7    2 1  
     4   10    3 2  
     5    4    5 ar 
     6   43    4 ar 
     7    6    5 ar 
     8    7    6 ar 
     9    8    7 ar 
    10   15    8 1  
    11    8   43 ar 
    12   14    9 1  
    13   10   28 am 
    14   40   10 1  
    15   11   12 1  
    16   11   16 1  
    17   11   23 1  
    18   28   11 1  
    19   12   29 2  
    20   12   35 am 
    21   13   17 1  
    22   13   24 1  
    23   35   13 1  
    24   14   34 1  
    25   37   14 1  
    26   27   15 1  
    27   16   22 1  
    28   17   36 2  
    29   38   17 am 
    30   18   19 1  
    31   38   18 1  
    32   20   19 1  
    33   21   20 1  
    34   22   21 1  
    35   21   38 1  
    36   22   35 1  
    37   22   39 1  
    38   24   25 1  
    39   25   26 ar 
    40   25   33 ar 
    41   26   30 ar 
    42   34   27 1  
    43   30   31 ar 
    44   32   31 ar 
    45   33   32 ar 
    46   34   42 1  
    47   37   40 1  
    48   40   41 1  
    49   41   42 2  
    50   42   43 1  
    51    1   44 1  
    52    2   45 1  
    53    4   46 1  
    54    5   47 1  
    55    6   48 1  
    56    9   49 1  
    57    9   50 1  
    58    9   51 1  
    59   13   52 1  
    60   14   53 1  
    61   18   54 1  
    62   18   55 1  
    63   19   56 1  
    64   19   57 1  
    65   20   58 1  
    66   20   59 1  
    67   21   60 1  
    68   23   61 1  
    69   23   62 1  
    70   23   63 1  
    71   24   64 1  
    72   24   65 1  
    73   26   66 1  
    74   27   67 1  
    75   27   68 1  
    76   28   69 1  
    77   30   70 1  
    78   31   71 1  
    79   32   72 1  
    80   33   73 1  
    81   34   74 1  
    82   37   75 1  
    83   37   76 1  
    84   39   77 1  
    85   40   78 1  
    86   41   79 1  
@<TRIPOS>SUBSTRUCTURE
     1 ERM         1

