### 
### Created by X-TOOL on Wed Jan  1 15:39:38 2020
### 

@<TRIPOS>MOLECULE
6bqh_ligand
   60    64     1     0     0
SMALL
GAST_HUCK


@<TRIPOS>ATOM
      1 C10        39.3720   36.0920   61.6090 C.2       1 E2J         0.2376
      2 N11        38.3900   36.4230   60.8160 N.2       1 E2J        -0.3016
      3 C12        37.6580   33.1830   59.1600 C.3       1 E2J         0.0085
      4 C13        38.5320   33.0770   57.9110 C.3       1 E2J        -0.0282
      5 C15        38.4400   32.3630   55.6190 C.3       1 E2J        -0.0168
      6 C26        38.9820   29.2000   52.9650 C.ar      1 E2J        -0.0453
      7 C28        38.9510   28.5140   50.6570 C.ar      1 E2J        -0.0358
      8 C31        39.9950   30.1130   52.6640 C.ar      1 E2J        -0.0672
      9 C33        37.5830   29.7420   56.5570 C.3       1 E2J         0.0339
     10 C34        38.3580   30.7490   57.4080 C.3       1 E2J        -0.0168
     11 C19        38.5510   27.6570   54.9360 C.ar      1 E2J        -0.0453
     12 C18        38.4630   29.0230   54.3520 C.2       1 E2J        -0.0238
     13 C21        39.7430   25.9840   56.1830 C.ar      1 E2J        -0.0358
     14 C01        36.6830   35.9650   59.1330 C.3       1 E2J        -0.0288
     15 C02        37.8160   35.5320   60.0250 C.2       1 E2J        -0.0197
     16 C03        38.2740   34.2290   60.0500 C.2       1 E2J         0.0198
     17 C04        39.3270   33.8770   60.8950 C.2       1 E2J         0.2241
     18 O05        39.7310   32.7230   60.9110 O.2       1 E2J        -0.4098
     19 N06        39.8950   34.8290   61.7010 N.am      1 E2J        -0.1442
     20 C07        40.9310   34.6640   62.5920 C.2       1 E2J         0.0782
     21 C08        41.3870   35.6880   63.3160 C.2       1 E2J         0.0213
     22 S09        40.3380   37.0280   62.7690 S.3       1 E2J         0.0156
     23 N14        37.9590   32.0970   56.9830 N.4       1 E2J         0.2403
     24 C16        37.7170   31.4340   54.6360 C.3       1 E2J         0.0339
     25 C17        37.9320   30.0080   55.1070 C.2       1 E2J        -0.0256
     26 C20        39.6830   27.2560   55.6510 C.ar      1 E2J        -0.0672
     27 C22        38.6870   25.1010   56.0030 C.ar      1 E2J         0.1247
     28 C23        37.5650   25.4910   55.2900 C.ar      1 E2J        -0.0358
     29 C24        37.4960   26.7610   54.7550 C.ar      1 E2J        -0.0672
     30 F25        38.7470   23.8570   56.5240 F         1 E2J        -0.1893
     31 C27        38.4750   28.3930   51.9470 C.ar      1 E2J        -0.0672
     32 C29        39.9440   29.4340   50.3640 C.ar      1 E2J         0.1247
     33 C30        40.4630   30.2330   51.3710 C.ar      1 E2J        -0.0358
     34 F32        40.4050   29.5500   49.0990 F         1 E2J        -0.1893
     35 H1         37.6281   32.2151   59.6818 H         1 E2J         0.0389
     36 H2         36.6366   33.4807   58.8806 H         1 E2J         0.0389
     37 H3         39.5441   32.7573   58.2000 H         1 E2J         0.0828
     38 H4         38.5844   34.0589   57.4180 H         1 E2J         0.0828
     39 H5         39.5234   32.1791   55.5691 H         1 E2J         0.0850
     40 H6         38.2333   33.4104   55.3543 H         1 E2J         0.0850
     41 H7         38.5463   27.8870   49.8708 H         1 E2J         0.0586
     42 H8         40.4157   30.7303   53.4495 H         1 E2J         0.0542
     43 H9         36.5019   29.8717   56.7130 H         1 E2J         0.0562
     44 H10        37.8727   28.7169   56.8311 H         1 E2J         0.0562
     45 H11        39.4390   30.6135   57.2563 H         1 E2J         0.0850
     46 H12        38.1160   30.6050   58.4713 H         1 E2J         0.0850
     47 H13        40.6175   25.6734   56.7432 H         1 E2J         0.0586
     48 H14        36.3271   35.1039   58.5483 H         1 E2J         0.0403
     49 H15        37.0345   36.7521   58.4497 H         1 E2J         0.0403
     50 H16        35.8596   36.3552   59.7493 H         1 E2J         0.0403
     51 H17        41.3861   33.6815   62.7080 H         1 E2J         0.0928
     52 H18        42.1908   35.7033   64.0506 H         1 E2J         0.0565
     53 H19        36.9536   32.1680   56.9991 H         1 E2J         0.2039
     54 H20        38.1322   31.5615   53.6254 H         1 E2J         0.0562
     55 H21        36.6419   31.6661   54.6227 H         1 E2J         0.0562
     56 H22        40.5112   27.9420   55.7872 H         1 E2J         0.0542
     57 H23        36.7420   24.7990   55.1525 H         1 E2J         0.0586
     58 H24        36.6201   27.0638   54.1926 H         1 E2J         0.0542
     59 H25        37.7023   27.6662   52.1701 H         1 E2J         0.0542
     60 H26        41.2390   30.9545   51.1422 H         1 E2J         0.0586
@<TRIPOS>BOND
     1    2    1 2  
     2    1   19 1  
     3    1   22 1  
     4   15    2 1  
     5    3    4 1  
     6   16    3 1  
     7    4   23 1  
     8   23    5 1  
     9    5   24 1  
    10    6    8 ar 
    11   12    6 1  
    12    6   31 ar 
    13   31    7 ar 
    14    7   32 ar 
    15    8   33 ar 
    16   10    9 1  
    17    9   25 1  
    18   23   10 1  
    19   12   11 1  
    20   11   26 ar 
    21   11   29 ar 
    22   25   12 2  
    23   26   13 ar 
    24   13   27 ar 
    25   15   14 1  
    26   15   16 2  
    27   16   17 1  
    28   17   18 2  
    29   17   19 am 
    30   19   20 1  
    31   20   21 2  
    32   21   22 1  
    33   24   25 1  
    34   27   28 ar 
    35   27   30 1  
    36   28   29 ar 
    37   32   33 ar 
    38   32   34 1  
    39    3   35 1  
    40    3   36 1  
    41    4   37 1  
    42    4   38 1  
    43    5   39 1  
    44    5   40 1  
    45    7   41 1  
    46    8   42 1  
    47    9   43 1  
    48    9   44 1  
    49   10   45 1  
    50   10   46 1  
    51   13   47 1  
    52   14   48 1  
    53   14   49 1  
    54   14   50 1  
    55   20   51 1  
    56   21   52 1  
    57   23   53 1  
    58   24   54 1  
    59   24   55 1  
    60   26   56 1  
    61   28   57 1  
    62   29   58 1  
    63   31   59 1  
    64   33   60 1  
@<TRIPOS>SUBSTRUCTURE
     1 E2J         1

