### 
### Created by X-TOOL on Wed Jan  1 15:39:37 2020
### 

@<TRIPOS>MOLECULE
6bqj_ligand
  103   107     1     0     0
SMALL
GAST_HUCK


@<TRIPOS>ATOM
      1 C          23.5980   42.0210   39.1330 C.3       1 Z1B         0.1114
      2 C1         24.2350   42.8850   38.0520 C.3       1 Z1B         0.0685
      3 N          24.3150   41.9420   36.9290 N.am      1 Z1B        -0.2468
      4 C2         23.3450   40.8400   37.0520 C.3       1 Z1B         0.1367
      5 C3         22.6000   41.1770   38.3590 C.3       1 Z1B         0.0214
      6 C4         22.3930   40.7950   35.8500 C.2       1 Z1B         0.2042
      7 O          21.9410   41.8380   35.3710 O.2       1 Z1B        -0.3944
      8 N1         22.0860   39.5850   35.3580 N.am      1 Z1B        -0.2635
      9 C5         21.2700   39.5080   34.1500 C.3       1 Z1B         0.1375
     10 C6         22.0440   38.8290   33.0250 C.3       1 Z1B         0.0483
     11 C7         23.0960   39.8210   32.4370 C.3       1 Z1B         0.2435
     12 F          22.4620   40.8730   31.8590 F         1 Z1B        -0.2090
     13 F1         23.7230   39.2240   31.4040 F         1 Z1B        -0.2090
     14 C8         19.8720   38.9190   34.3510 C.2       1 Z1B         0.2216
     15 O1         19.3700   38.1320   33.5370 O.2       1 Z1B        -0.3929
     16 N2         19.1520   39.3180   35.5140 N.am      1 Z1B        -0.1556
     17 S          18.2790   40.7230   35.5590 S.o2      1 Z1B         0.0715
     18 O2         18.7140   41.4740   36.6940 O.2       1 Z1B        -0.1499
     19 O3         18.3670   41.3130   34.2610 O.2       1 Z1B        -0.1499
     20 C9         16.6380   40.1950   35.8290 C.3       1 Z1B         0.1365
     21 C10        16.2660   38.8180   35.4590 C.2       1 Z1B        -0.0561
     22 C11        15.7560   39.9540   34.6700 C.2       1 Z1B        -0.0561
     23 C12        25.1280   42.0060   35.8580 C.2       1 Z1B         0.2070
     24 C13        26.0900   43.1940   35.7240 C.3       1 Z1B         0.1378
     25 N3         27.4460   42.6800   35.6280 N.am      1 Z1B        -0.2407
     26 C14        28.1850   42.5230   36.7410 C.2       1 Z1B         0.3223
     27 O4         29.3900   41.9970   36.4070 O.3       1 Z1B        -0.2580
     28 C15        30.4390   41.6900   37.4190 C.3       1 Z1B         0.0905
     29 C16        30.8500   42.9480   38.1580 C.3       1 Z1B        -0.0320
     30 C17        29.9440   40.6070   38.3680 C.3       1 Z1B        -0.0320
     31 C18        31.5910   41.1810   36.5770 C.3       1 Z1B        -0.0320
     32 O5         27.8100   42.8160   37.8640 O.2       1 Z1B        -0.3774
     33 C19        25.7130   44.1690   34.5660 C.3       1 Z1B         0.0025
     34 C20        24.2800   44.6790   34.7700 C.3       1 Z1B        -0.0558
     35 C21        25.7940   43.4620   33.2090 C.3       1 Z1B        -0.0558
     36 C22        26.6710   45.3680   34.5610 C.3       1 Z1B        -0.0558
     37 O6         25.1120   41.1400   34.9960 O.2       1 Z1B        -0.3942
     38 O7         24.6960   41.1970   39.6280 O.3       1 Z1B        -0.2973
     39 C23        24.6370   40.7320   40.9230 C.ar      1 Z1B         0.1201
     40 C24        25.7700   39.9820   41.3420 C.ar      1 Z1B         0.0334
     41 C25        26.8980   39.7100   40.5230 C.ar      1 Z1B        -0.0485
     42 C26        27.9470   38.9780   40.9990 C.ar      1 Z1B        -0.0252
     43 C27        27.9220   38.4880   42.3030 C.ar      1 Z1B         0.0941
     44 C28        26.8500   38.7240   43.1380 C.ar      1 Z1B        -0.0203
     45 C29        25.7520   39.4790   42.6640 C.ar      1 Z1B         0.0219
     46 N4         24.6950   39.6940   43.5100 N.ar      1 Z1B        -0.3203
     47 C30        23.6520   40.3950   43.0700 C.ar      1 Z1B         0.0298
     48 C31        23.5820   40.9430   41.7820 C.ar      1 Z1B        -0.0032
     49 C32        22.5160   40.5410   44.0110 C.ar      1 Z1B        -0.0034
     50 C33        22.2360   39.5330   44.9410 C.ar      1 Z1B        -0.0497
     51 C34        21.1600   39.6490   45.8080 C.ar      1 Z1B        -0.0583
     52 C35        20.3470   40.7670   45.7650 C.ar      1 Z1B        -0.0592
     53 C36        20.6120   41.7760   44.8510 C.ar      1 Z1B        -0.0583
     54 C37        21.6880   41.6650   43.9810 C.ar      1 Z1B        -0.0497
     55 O8         29.0440   37.7800   42.6450 O.3       1 Z1B        -0.3183
     56 C38        29.1320   37.2290   43.9640 C.3       1 Z1B         0.0606
     57 H1         23.1203   42.6003   39.9369 H         1 Z1B         0.0684
     58 H2         25.2331   43.2348   38.3541 H         1 Z1B         0.0555
     59 H3         23.6023   43.7503   37.8051 H         1 Z1B         0.0555
     60 H4         23.8619   39.8728   37.1372 H         1 Z1B         0.0803
     61 H5         21.6818   41.7462   38.1518 H         1 Z1B         0.0343
     62 H6         22.3466   40.2615   38.9136 H         1 Z1B         0.0343
     63 H7         22.4094   38.7533   35.8094 H         1 Z1B         0.1883
     64 H8         21.1067   40.5475   33.8295 H         1 Z1B         0.0802
     65 H9         21.3450   38.5249   32.2320 H         1 Z1B         0.0367
     66 H10        22.5595   37.9411   33.4198 H         1 Z1B         0.0367
     67 H11        23.8020   40.1470   33.2150 H         1 Z1B         0.1020
     68 H12        19.1749   38.7332   36.3249 H         1 Z1B         0.2142
     69 H13        16.2396   40.6551   36.7453 H         1 Z1B         0.0647
     70 H14        16.3248   37.7454   35.6377 H         1 Z1B         0.0592
     71 H15        15.1631   40.3357   33.8402 H         1 Z1B         0.0592
     72 H16        26.0245   43.7766   36.6547 H         1 Z1B         0.0805
     73 H17        27.8294   42.4432   34.7353 H         1 Z1B         0.1899
     74 H18        31.6240   42.7012   38.8997 H         1 Z1B         0.0260
     75 H19        29.9749   43.3752   38.6696 H         1 Z1B         0.0260
     76 H20        31.2494   43.6805   37.4411 H         1 Z1B         0.0260
     77 H21        30.7241   40.3865   39.1115 H         1 Z1B         0.0260
     78 H22        29.7142   39.6957   37.7965 H         1 Z1B         0.0260
     79 H23        29.0362   40.9564   38.8816 H         1 Z1B         0.0260
     80 H24        32.4358   40.9196   37.2312 H         1 Z1B         0.0260
     81 H25        31.9030   41.9643   35.8706 H         1 Z1B         0.0260
     82 H26        31.2707   40.2895   36.0179 H         1 Z1B         0.0260
     83 H27        24.0156   45.3663   33.9528 H         1 Z1B         0.0237
     84 H28        24.2129   45.2094   35.7313 H         1 Z1B         0.0237
     85 H29        23.5843   43.8269   34.7720 H         1 Z1B         0.0237
     86 H30        26.8171   43.0909   33.0494 H         1 Z1B         0.0237
     87 H31        25.5325   44.1712   32.4098 H         1 Z1B         0.0237
     88 H32        25.0907   42.6164   33.1935 H         1 Z1B         0.0237
     89 H33        26.6197   45.8823   35.5320 H         1 Z1B         0.0237
     90 H34        26.3815   46.0653   33.7611 H         1 Z1B         0.0237
     91 H35        27.6984   45.0158   34.3865 H         1 Z1B         0.0237
     92 H36        26.9261   40.0884   39.5076 H         1 Z1B         0.0650
     93 H37        28.8007   38.7776   40.3617 H         1 Z1B         0.0581
     94 H38        26.8490   38.3340   44.1494 H         1 Z1B         0.0491
     95 H39        22.7183   41.5189   41.4698 H         1 Z1B         0.0548
     96 H40        22.8669   38.6525   44.9839 H         1 Z1B         0.0648
     97 H41        20.9552   38.8600   46.5225 H         1 Z1B         0.0625
     98 H42        19.5058   40.8544   46.4431 H         1 Z1B         0.0639
     99 H43        19.9770   42.6539   44.8159 H         1 Z1B         0.0625
    100 H44        21.8876   42.4593   43.2708 H         1 Z1B         0.0648
    101 H45        30.0873   36.6951   44.0753 H         1 Z1B         0.0580
    102 H46        28.2995   36.5283   44.1250 H         1 Z1B         0.0580
    103 H47        29.0769   38.0403   44.7048 H         1 Z1B         0.0580
@<TRIPOS>BOND
     1    1    2 1  
     2    1    5 1  
     3    1   38 1  
     4    2    3 1  
     5    3    4 1  
     6    3   23 am 
     7    4    5 1  
     8    4    6 1  
     9    6    7 2  
    10    6    8 am 
    11    8    9 1  
    12    9   10 1  
    13    9   14 1  
    14   10   11 1  
    15   11   12 1  
    16   11   13 1  
    17   14   15 2  
    18   14   16 am 
    19   16   17 am 
    20   17   18 2  
    21   17   19 2  
    22   17   20 1  
    23   20   21 1  
    24   20   22 1  
    25   21   22 2  
    26   23   24 1  
    27   23   37 2  
    28   24   25 1  
    29   24   33 1  
    30   25   26 am 
    31   26   27 1  
    32   26   32 2  
    33   27   28 1  
    34   28   29 1  
    35   28   30 1  
    36   28   31 1  
    37   33   34 1  
    38   33   35 1  
    39   33   36 1  
    40   38   39 1  
    41   39   40 ar 
    42   39   48 ar 
    43   40   41 ar 
    44   40   45 ar 
    45   41   42 ar 
    46   42   43 ar 
    47   43   44 ar 
    48   43   55 1  
    49   44   45 ar 
    50   45   46 ar 
    51   46   47 ar 
    52   47   48 ar 
    53   47   49 1  
    54   49   50 ar 
    55   49   54 ar 
    56   50   51 ar 
    57   51   52 ar 
    58   52   53 ar 
    59   53   54 ar 
    60   55   56 1  
    61    1   57 1  
    62    2   58 1  
    63    2   59 1  
    64    4   60 1  
    65    5   61 1  
    66    5   62 1  
    67    8   63 1  
    68    9   64 1  
    69   10   65 1  
    70   10   66 1  
    71   11   67 1  
    72   16   68 1  
    73   20   69 1  
    74   21   70 1  
    75   22   71 1  
    76   24   72 1  
    77   25   73 1  
    78   29   74 1  
    79   29   75 1  
    80   29   76 1  
    81   30   77 1  
    82   30   78 1  
    83   30   79 1  
    84   31   80 1  
    85   31   81 1  
    86   31   82 1  
    87   34   83 1  
    88   34   84 1  
    89   34   85 1  
    90   35   86 1  
    91   35   87 1  
    92   35   88 1  
    93   36   89 1  
    94   36   90 1  
    95   36   91 1  
    96   41   92 1  
    97   42   93 1  
    98   44   94 1  
    99   48   95 1  
   100   50   96 1  
   101   51   97 1  
   102   52   98 1  
   103   53   99 1  
   104   54  100 1  
   105   56  101 1  
   106   56  102 1  
   107   56  103 1  
@<TRIPOS>SUBSTRUCTURE
     1 Z1B         1

