### 
### Created by X-TOOL on Wed Jan  1 15:39:38 2020
### 

@<TRIPOS>MOLECULE
6bqk_ligand
   94    98     1     0     0
SMALL
GAST_HUCK


@<TRIPOS>ATOM
      1 C2         -6.1190    7.7880   30.6360 C.3       1 Z1E         0.1427
      2 C3         -4.9650    8.7540   30.9290 C.3       1 Z1E         0.0541
      3 C4         -4.7150    7.4440   30.2300 C.3       1 Z1E        -0.0098
      4 N5         -6.6740    7.0280   31.7300 N.am      1 Z1E        -0.2735
      5 N6         -6.5810    7.5440   35.2930 N.am      1 Z1E        -0.2468
      6 C7         -5.5100    8.3590   35.3020 C.2       1 Z1E         0.2070
      7 C8         -6.9590    6.7470   34.1150 C.3       1 Z1E         0.1364
      8 C9         -7.1080    7.6010   32.8600 C.2       1 Z1E         0.2013
      9 C10        -5.2060    9.1740   36.5660 C.3       1 Z1E         0.1378
     10 C11        -7.9390    3.7340   36.6150 C.ar      1 Z1E         0.1640
     11 C12        -3.6210    7.8480   37.8990 C.2       1 Z1E         0.3223
     12 N13        -3.8630    8.8250   37.0010 N.am      1 Z1E        -0.2407
     13 C14        -7.0860    2.6860   37.0780 C.ar      1 Z1E         0.0380
     14 C15        -7.5060    7.3380   36.4170 C.3       1 Z1E         0.0680
     15 C16        -8.3230    6.1640   34.5170 C.3       1 Z1E         0.0210
     16 C17        -8.1820    6.0430   36.0250 C.3       1 Z1E         0.1091
     17 O18        -7.3230    4.9210   36.3750 O.3       1 Z1E        -0.2957
     18 C19        -7.7020    1.4330   37.3560 C.ar      1 Z1E         0.0254
     19 N20        -9.2180    3.6150   36.4310 N.ar      1 Z1E        -0.2943
     20 O21        -2.2890    7.6310   37.9740 O.3       1 Z1E        -0.2580
     21 C22        -5.4190   10.7100   36.3930 C.3       1 Z1E         0.0025
     22 O23        -4.7780    8.4540   34.3380 O.2       1 Z1E        -0.3942
     23 C24        -5.6960    2.8450   37.2530 C.ar      1 Z1E        -0.0347
     24 O25        -7.5880    8.7290   32.9100 O.2       1 Z1E        -0.3947
     25 O26        -4.4750    7.2640   38.5350 O.2       1 Z1E        -0.3774
     26 C27        -6.8770    0.3710   37.8160 C.ar      1 Z1E        -0.0495
     27 C28        -5.5330    0.5490   37.9780 C.ar      1 Z1E        -0.0464
     28 C29        -4.9600    1.7800   37.6890 C.ar      1 Z1E         0.0421
     29 C30        -9.7760    2.4290   36.6940 C.ar      1 Z1E         0.0168
     30 C31        -9.1100    1.3140   37.1470 C.ar      1 Z1E         0.1107
     31 C32        -4.7380   11.2380   35.1240 C.3       1 Z1E        -0.0558
     32 C33        -6.9050   11.0450   36.3060 C.3       1 Z1E        -0.0558
     33 C34        -4.8550   11.4510   37.6050 C.3       1 Z1E        -0.0558
     34 O35        -9.6220    0.0820   37.4150 O.3       1 Z1E        -0.3192
     35 CL1        -3.2440    1.9720   37.8670 Cl        1 Z1E        -0.0708
     36 C36       -10.9660   -0.1730   36.9870 C.3       1 Z1E         0.0599
     37 C37        -1.6950    6.6900   38.9660 C.3       1 Z1E         0.0905
     38 C38        -2.1280    7.0410   40.3740 C.3       1 Z1E        -0.0320
     39 C39        -2.0270    5.2500   38.6270 C.3       1 Z1E        -0.0320
     40 C40        -0.2150    6.9470   38.7850 C.3       1 Z1E        -0.0320
     41 C41        -4.7760   10.0440   30.1150 C.3       1 Z1E         0.2436
     42 F42        -5.6680   10.9570   30.5940 F         1 Z1E        -0.2090
     43 F43        -3.5470   10.5690   30.3770 F         1 Z1E        -0.2090
     44 C44        -7.0840    8.1020   29.4930 C.2       1 Z1E         0.2446
     45 N45        -8.3970    7.7280   29.6650 N.am      1 Z1E        -0.1546
     46 O46        -6.7100    8.6540   28.4680 O.2       1 Z1E        -0.3404
     47 S47        -9.5380    8.0060   28.4990 S.o2      1 Z1E         0.0716
     48 O48        -9.6390    9.4320   28.4060 O.2       1 Z1E        -0.1497
     49 C49       -11.0070    7.3700   29.1850 C.3       1 Z1E         0.1367
     50 O50        -9.2070    7.2490   27.3270 O.2       1 Z1E        -0.1497
     51 C51       -12.1340    8.2840   29.4280 C.2       1 Z1E        -0.0560
     52 C52       -12.2090    7.3000   28.3350 C.2       1 Z1E        -0.0560
     53 H1         -4.6359    8.9153   31.9661 H         1 Z1E         0.0367
     54 H2         -4.4405    7.4368   29.1648 H         1 Z1E         0.0281
     55 H3         -4.1766    6.6398   30.7529 H         1 Z1E         0.0281
     56 H4         -6.7370    6.0340   31.6408 H         1 Z1E         0.1839
     57 H5         -6.2231    5.9506   33.9301 H         1 Z1E         0.0803
     58 H6         -5.9067    8.8478   37.3487 H         1 Z1E         0.0805
     59 H7         -3.0883    9.3292   36.6193 H         1 Z1E         0.1899
     60 H8         -8.2314    8.1612   36.4953 H         1 Z1E         0.0554
     61 H9         -6.9640    7.2352   37.3686 H         1 Z1E         0.0554
     62 H10        -8.4910    5.1818   34.0511 H         1 Z1E         0.0343
     63 H11        -9.1441    6.8438   34.2456 H         1 Z1E         0.0343
     64 H12        -9.1627    5.9346   36.5113 H         1 Z1E         0.0679
     65 H13        -5.2195    3.7962   37.0451 H         1 Z1E         0.0649
     66 H14        -7.3203   -0.5923   38.0410 H         1 Z1E         0.0630
     67 H15        -4.9151   -0.2686   38.3313 H         1 Z1E         0.0630
     68 H16       -10.8447    2.3383   36.5368 H         1 Z1E         0.0606
     69 H17        -4.9110   12.3210   35.0386 H         1 Z1E         0.0237
     70 H18        -5.1578   10.7291   34.2438 H         1 Z1E         0.0237
     71 H19        -3.6569   11.0427   35.1796 H         1 Z1E         0.0237
     72 H20        -7.4174   10.6759   37.2067 H         1 Z1E         0.0237
     73 H21        -7.3375   10.5653   35.4156 H         1 Z1E         0.0237
     74 H22        -7.0315   12.1353   36.2331 H         1 Z1E         0.0237
     75 H23        -3.7811   11.2331   37.7008 H         1 Z1E         0.0237
     76 H24        -5.3788   11.1197   38.5138 H         1 Z1E         0.0237
     77 H25        -4.9991   12.5335   37.4727 H         1 Z1E         0.0237
     78 H26       -11.2510   -1.1984   37.2651 H         1 Z1E         0.0579
     79 H27       -11.0312   -0.0578   35.8950 H         1 Z1E         0.0579
     80 H28       -11.6472    0.5414   37.4724 H         1 Z1E         0.0579
     81 H29        -1.6763    6.3324   41.0839 H         1 Z1E         0.0260
     82 H30        -3.2241    6.9832   40.4457 H         1 Z1E         0.0260
     83 H31        -1.7980    8.0622   40.6153 H         1 Z1E         0.0260
     84 H32        -1.5751    4.5834   39.3763 H         1 Z1E         0.0260
     85 H33        -1.6280    5.0063   37.6313 H         1 Z1E         0.0260
     86 H34        -3.1187    5.1155   38.6275 H         1 Z1E         0.0260
     87 H35         0.3554    6.3042   39.4716 H         1 Z1E         0.0260
     88 H36         0.0034    8.0025   39.0043 H         1 Z1E         0.0260
     89 H37         0.0722    6.7210   37.7475 H         1 Z1E         0.0260
     90 H38        -4.9143    9.8584   29.0396 H         1 Z1E         0.1020
     91 H39        -8.6684    7.2772   30.5154 H         1 Z1E         0.2148
     92 H40       -10.7763    6.5649   29.8981 H         1 Z1E         0.0647
     93 H41       -12.5838    9.0951   29.9988 H         1 Z1E         0.0592
     94 H42       -12.7536    6.8502   27.5061 H         1 Z1E         0.0592
@<TRIPOS>BOND
     1    1    2 1  
     2    1    3 1  
     3    4    1 1  
     4    1   44 1  
     5    3    2 1  
     6    2   41 1  
     7    8    4 am 
     8    5    6 am 
     9    7    5 1  
    10   14    5 1  
    11    6    9 1  
    12    6   22 2  
    13    7    8 1  
    14   15    7 1  
    15    8   24 2  
    16    9   12 1  
    17    9   21 1  
    18   10   13 ar 
    19   17   10 1  
    20   10   19 ar 
    21   12   11 am 
    22   11   20 1  
    23   11   25 2  
    24   13   18 ar 
    25   13   23 ar 
    26   16   14 1  
    27   16   15 1  
    28   16   17 1  
    29   18   26 ar 
    30   18   30 ar 
    31   19   29 ar 
    32   20   37 1  
    33   21   31 1  
    34   21   32 1  
    35   21   33 1  
    36   23   28 ar 
    37   26   27 ar 
    38   27   28 ar 
    39   28   35 1  
    40   29   30 ar 
    41   30   34 1  
    42   34   36 1  
    43   37   38 1  
    44   37   39 1  
    45   37   40 1  
    46   41   42 1  
    47   41   43 1  
    48   44   45 am 
    49   44   46 2  
    50   45   47 am 
    51   47   48 2  
    52   47   49 1  
    53   47   50 2  
    54   49   51 1  
    55   49   52 1  
    56   51   52 2  
    57    2   53 1  
    58    3   54 1  
    59    3   55 1  
    60    4   56 1  
    61    7   57 1  
    62    9   58 1  
    63   12   59 1  
    64   14   60 1  
    65   14   61 1  
    66   15   62 1  
    67   15   63 1  
    68   16   64 1  
    69   23   65 1  
    70   26   66 1  
    71   27   67 1  
    72   29   68 1  
    73   31   69 1  
    74   31   70 1  
    75   31   71 1  
    76   32   72 1  
    77   32   73 1  
    78   32   74 1  
    79   33   75 1  
    80   33   76 1  
    81   33   77 1  
    82   36   78 1  
    83   36   79 1  
    84   36   80 1  
    85   38   81 1  
    86   38   82 1  
    87   38   83 1  
    88   39   84 1  
    89   39   85 1  
    90   39   86 1  
    91   40   87 1  
    92   40   88 1  
    93   40   89 1  
    94   41   90 1  
    95   45   91 1  
    96   49   92 1  
    97   51   93 1  
    98   52   94 1  
@<TRIPOS>SUBSTRUCTURE
     1 Z1E         1

