### 
### Created by X-TOOL on Wed Jan  1 15:39:36 2020
### 

@<TRIPOS>MOLECULE
6br2_ligand
   63    66     1     0     0
SMALL
GAST_HUCK


@<TRIPOS>ATOM
      1 C4        -12.9770  -26.9890   -0.3990 C.ar      1 E3S        -0.0461
      2 C5        -11.8080  -26.5530    0.2100 C.ar      1 E3S        -0.0706
      3 C6        -11.7760  -26.2770    1.5850 C.ar      1 E3S        -0.0066
      4 C7        -10.4740  -25.8260    2.2340 C.3       1 E3S         0.1696
      5 C10       -12.0950  -24.9460    4.0390 C.3       1 E3S         0.0470
      6 C13       -14.1100  -26.8960    1.7240 C.ar      1 E3S        -0.0377
      7 C17       -10.1180  -22.3300    4.9940 C.2       1 E3S         0.1511
      8 C26        -8.3890  -28.8820    1.3160 C.ar      1 E3S         0.1071
      9 C28        -7.3080  -30.5290   -0.1020 C.ar      1 E3S        -0.0520
     10 C1        -16.2080  -26.6630   -0.8870 C.3       1 E3S         0.0578
     11 O2        -15.3190  -27.5930   -0.2370 O.3       1 E3S        -0.3272
     12 C3        -14.1520  -27.1590    0.3510 C.ar      1 E3S         0.0774
     13 N9        -10.7070  -25.0860    3.5040 N.am      1 E3S        -0.2383
     14 C11       -12.9530  -26.1860    3.8120 C.3       1 E3S        -0.0028
     15 C12       -12.9270  -26.4640    2.3350 C.ar      1 E3S        -0.0428
     16 C14        -9.6500  -24.5240    4.1630 C.2       1 E3S         0.2027
     17 O15        -8.5280  -24.6330    3.7150 O.2       1 E3S        -0.3920
     18 C16        -9.7990  -23.7300    5.4440 C.3       1 E3S         0.1140
     19 C18       -11.3300  -21.7270    5.0120 C.2       1 E3S         0.0135
     20 C19       -11.0860  -20.4420    4.4590 C.2       1 E3S         0.1782
     21 O20       -11.9950  -19.4500    4.2660 O.2       1 E3S        -0.4291
     22 N21        -9.8080  -20.4090    4.1750 N.am      1 E3S        -0.1370
     23 O22        -9.2600  -21.4530    4.4570 O.3       1 E3S        -0.1603
     24 C23        -9.7740  -27.1460    2.4290 C.2       1 E3S         0.2548
     25 O24        -9.9350  -27.7390    3.4740 O.2       1 E3S        -0.3705
     26 N25        -9.0040  -27.6250    1.4100 N.am      1 E3S        -0.2059
     27 C27        -7.8500  -29.2590    0.0860 C.ar      1 E3S        -0.0082
     28 C29        -7.3160  -31.4780    0.9190 C.ar      1 E3S        -0.0388
     29 C30        -7.8980  -31.1070    2.1490 C.ar      1 E3S         0.1484
     30 F31        -7.9630  -31.9560    3.1970 F         1 E3S        -0.1613
     31 C32        -8.4370  -29.8380    2.3350 C.ar      1 E3S         0.0282
     32 C33        -6.7360  -32.8700    0.6710 C.3       1 E3S        -0.0678
     33 C34        -6.2070  -33.0600   -0.7560 C.3       1 E3S        -0.0983
     34 C35        -5.6070  -33.2480    1.6250 C.3       1 E3S        -0.0983
     35 C36        -7.8480  -33.9090    0.8350 C.3       1 E3S        -0.0983
     36 H1        -12.9828  -27.1999   -1.4623 H         1 E3S         0.0469
     37 H2        -10.9101  -26.4244   -0.3836 H         1 E3S         0.0516
     38 H3         -9.8998  -25.1796    1.5540 H         1 E3S         0.0936
     39 H4        -12.5770  -24.0913    3.5418 H         1 E3S         0.0547
     40 H5        -12.0354  -24.7551    5.1207 H         1 E3S         0.0547
     41 H6        -15.0043  -27.0283    2.3222 H         1 E3S         0.0463
     42 H7         -6.8716  -30.7839   -1.0610 H         1 E3S         0.0786
     43 H8        -17.0762  -27.2057   -1.2892 H         1 E3S         0.0575
     44 H9        -15.6765  -26.1610   -1.7089 H         1 E3S         0.0575
     45 H10       -16.5498  -25.9126   -0.1590 H         1 E3S         0.0575
     46 H11       -13.9848  -25.9993    4.1446 H         1 E3S         0.0430
     47 H12       -12.5381  -27.0409    4.3661 H         1 E3S         0.0430
     48 H13       -10.6166  -24.1353    6.0581 H         1 E3S         0.0763
     49 H14        -8.8631  -23.7475    6.0217 H         1 E3S         0.0763
     50 H15       -12.2750  -22.1340    5.3687 H         1 E3S         0.0199
     51 H16        -9.3417  -19.6200    3.7749 H         1 E3S         0.2321
     52 H17        -8.8609  -27.0060    0.6378 H         1 E3S         0.2478
     53 H18        -7.8528  -28.5530   -0.7366 H         1 E3S         0.0609
     54 H19        -8.9002  -29.5872    3.2824 H         1 E3S         0.0596
     55 H20        -5.8058  -34.0783   -0.8657 H         1 E3S         0.0092
     56 H21        -5.4091  -32.3286   -0.9517 H         1 E3S         0.0092
     57 H22        -7.0266  -32.9095   -1.4740 H         1 E3S         0.0092
     58 H23        -5.9479  -33.1248    2.6636 H         1 E3S         0.0092
     59 H24        -4.7400  -32.5957    1.4438 H         1 E3S         0.0092
     60 H25        -5.3192  -34.2960    1.4555 H         1 E3S         0.0092
     61 H26        -8.6805  -33.6649    0.1587 H         1 E3S         0.0092
     62 H27        -8.2063  -33.9016    1.8750 H         1 E3S         0.0092
     63 H28        -7.4564  -34.9071    0.5891 H         1 E3S         0.0092
@<TRIPOS>BOND
     1    2    1 ar 
     2    1   12 ar 
     3    3    2 ar 
     4    4    3 1  
     5    3   15 ar 
     6    4   13 1  
     7   24    4 1  
     8   13    5 1  
     9    5   14 1  
    10    6   12 ar 
    11   15    6 ar 
    12   18    7 1  
    13    7   19 2  
    14    7   23 1  
    15   26    8 1  
    16    8   27 ar 
    17    8   31 ar 
    18   27    9 ar 
    19    9   28 ar 
    20   11   10 1  
    21   12   11 1  
    22   13   16 am 
    23   15   14 1  
    24   16   17 2  
    25   16   18 1  
    26   19   20 1  
    27   20   21 2  
    28   22   20 am 
    29   23   22 1  
    30   24   25 2  
    31   24   26 am 
    32   28   29 ar 
    33   28   32 1  
    34   29   30 1  
    35   29   31 ar 
    36   32   33 1  
    37   32   34 1  
    38   32   35 1  
    39    1   36 1  
    40    2   37 1  
    41    4   38 1  
    42    5   39 1  
    43    5   40 1  
    44    6   41 1  
    45    9   42 1  
    46   10   43 1  
    47   10   44 1  
    48   10   45 1  
    49   14   46 1  
    50   14   47 1  
    51   18   48 1  
    52   18   49 1  
    53   19   50 1  
    54   22   51 1  
    55   26   52 1  
    56   27   53 1  
    57   31   54 1  
    58   33   55 1  
    59   33   56 1  
    60   33   57 1  
    61   34   58 1  
    62   34   59 1  
    63   34   60 1  
    64   35   61 1  
    65   35   62 1  
    66   35   63 1  
@<TRIPOS>SUBSTRUCTURE
     1 E3S         1

