### 
### Created by X-TOOL on Wed Jan  1 15:39:37 2020
### 

@<TRIPOS>MOLECULE
6br3_ligand
   68    72     1     0     0
SMALL
GAST_HUCK


@<TRIPOS>ATOM
      1 C4         20.1950   79.3970    0.5920 C.ar      1 E3V        -0.0183
      2 C5         21.2760   78.8890    1.2700 C.ar      1 E3V        -0.0515
      3 C6         21.4470   79.1740    2.6060 C.ar      1 E3V         0.0199
      4 C7         22.6040   78.6230    3.3720 C.3       1 E3V         0.1748
      5 C10        22.1070   80.5030    4.9810 C.3       1 E3V         0.0490
      6 C21        27.1050   82.1880    7.5130 C.3       1 E3V         0.0033
      7 C22        28.2510   81.7040    6.6790 C.2       1 E3V         0.0351
      8 C26        22.1710   77.2630    3.8550 C.2       1 E3V         0.2549
      9 C30        21.5600   74.3100    1.7320 C.ar      1 E3V        -0.0090
     10 C40        20.9760   74.5670    4.0240 C.ar      1 E3V         0.0219
     11 C31        20.7950   73.1540    1.6970 C.ar      1 E3V        -0.0319
     12 C37        20.1150   72.6940    2.8100 C.ar      1 E3V        -0.0350
     13 C29        21.6520   75.0330    2.9090 C.ar      1 E3V         0.0984
     14 C38        20.2160   73.4210    3.9830 C.ar      1 E3V         0.1440
     15 C12        20.5060   79.9760    3.2220 C.ar      1 E3V         0.0251
     16 C3         19.3130   80.1790    1.3050 C.ar      1 E3V         0.1487
     17 C14        24.1820   79.1820    5.1860 C.2       1 E3V         0.1856
     18 C32        20.5830   72.2660    0.5270 C.3       1 E3V        -0.0200
     19 C11        20.6430   80.3230    4.6600 C.3       1 E3V         0.0121
     20 C33        19.7990   71.1080    1.1020 C.3       1 E3V        -0.0746
     21 C18        25.2760   81.4840    5.8410 C.3       1 E3V        -0.0287
     22 C25        25.6650   80.0040    7.2490 C.3       1 E3V        -0.0287
     23 C16        24.5230   80.2250    6.2610 C.3       1 E3V         0.0498
     24 C19        25.7570   81.5330    7.2840 C.3       1 E3V        -0.0249
     25 C34        19.3500   71.4340    2.5090 C.3       1 E3V        -0.0659
     26 C35        19.6440   70.2860    3.4430 C.3       1 E3V        -0.1001
     27 C36        17.8590   71.6970    2.5370 C.3       1 E3V        -0.1001
     28 C1         17.0660   80.0650    1.1410 C.3       1 E3V         0.0614
     29 N13        19.4450   80.4870    2.5990 N.ar      1 E3V        -0.2818
     30 N9         22.9470   79.3760    4.5840 N.am      1 E3V        -0.2393
     31 N28        22.4330   76.2260    2.9600 N.am      1 E3V        -0.2086
     32 O15        24.9320   78.2640    4.8850 O.2       1 E3V        -0.3963
     33 O27        21.6130   77.1400    4.9370 O.2       1 E3V        -0.3708
     34 O24        28.9860   80.7760    6.9880 O.co2     1 E3V        -0.5690
     35 O23        28.3600   82.4450    5.5430 O.co2     1 E3V        -0.5690
     36 O2         18.2260   80.6960    0.6280 O.3       1 E3V        -0.3084
     37 F39        19.5810   73.0360    5.0950 F         1 E3V        -0.1638
     38 H1         20.0421   79.1910   -0.4612 H         1 E3V         0.0560
     39 H2         21.9947   78.2635    0.7531 H         1 E3V         0.0631
     40 H3         23.4837   78.5562    2.7151 H         1 E3V         0.0950
     41 H4         22.2079   80.6433    6.0673 H         1 E3V         0.0550
     42 H5         22.4669   81.4025    4.4601 H         1 E3V         0.0550
     43 H6         26.9869   83.2645    7.3204 H         1 E3V         0.0433
     44 H7         27.3741   82.0315    8.5680 H         1 E3V         0.0433
     45 H8         22.0826   74.6454    0.8435 H         1 E3V         0.0514
     46 H9         21.0475   75.1198    4.9537 H         1 E3V         0.0560
     47 H10        21.5432   71.9242    0.1134 H         1 E3V         0.0478
     48 H11        20.0078   72.7795   -0.2575 H         1 E3V         0.0478
     49 H12        20.1016   81.2577    4.8677 H         1 E3V         0.0459
     50 H13        20.2264   79.5131    5.2768 H         1 E3V         0.0459
     51 H14        20.4357   70.2112    1.1216 H         1 E3V         0.0152
     52 H15        18.9167   70.9176    0.4732 H         1 E3V         0.0152
     53 H16        24.6399   82.3268    5.5326 H         1 E3V         0.0296
     54 H17        26.0655   81.3270    5.0914 H         1 E3V         0.0296
     55 H18        26.5471   79.4917    6.8373 H         1 E3V         0.0296
     56 H19        25.3764   79.5310    8.1992 H         1 E3V         0.0296
     57 H20        23.5763   80.4511    6.7734 H         1 E3V         0.0538
     58 H21        25.0397   81.9944    7.9787 H         1 E3V         0.0321
     59 H22        19.3097   70.5447    4.4585 H         1 E3V         0.0085
     60 H23        20.7261   70.0887    3.4523 H         1 E3V         0.0085
     61 H24        19.1104   69.3876    3.0992 H         1 E3V         0.0085
     62 H25        17.6213   72.5321    1.8616 H         1 E3V         0.0085
     63 H26        17.5513   71.9547    3.5611 H         1 E3V         0.0085
     64 H27        17.3214   70.7953    2.2085 H         1 E3V         0.0085
     65 H28        16.1773   80.4541    0.6226 H         1 E3V         0.0580
     66 H29        16.9820   80.2718    2.2181 H         1 E3V         0.0580
     67 H30        17.1379   78.9791    0.9806 H         1 E3V         0.0580
     68 H31        23.2011   76.3227    2.3270 H         1 E3V         0.2464
@<TRIPOS>BOND
     1    2    1 ar 
     2    1   16 ar 
     3    3    2 ar 
     4    4    3 1  
     5    3   15 ar 
     6    4    8 1  
     7   30    4 1  
     8    5   19 1  
     9   30    5 1  
    10    6    7 1  
    11   24    6 1  
    12    7   34 ar 
    13    7   35 ar 
    14    8   31 am 
    15    8   33 2  
    16    9   11 ar 
    17   13    9 ar 
    18   13   10 ar 
    19   10   14 ar 
    20   11   12 ar 
    21   11   18 1  
    22   14   12 ar 
    23   12   25 1  
    24   31   13 1  
    25   14   37 1  
    26   19   15 1  
    27   15   29 ar 
    28   29   16 ar 
    29   16   36 1  
    30   23   17 1  
    31   17   30 am 
    32   17   32 2  
    33   18   20 1  
    34   25   20 1  
    35   21   23 1  
    36   21   24 1  
    37   23   22 1  
    38   22   24 1  
    39   25   26 1  
    40   25   27 1  
    41   36   28 1  
    42    1   38 1  
    43    2   39 1  
    44    4   40 1  
    45    5   41 1  
    46    5   42 1  
    47    6   43 1  
    48    6   44 1  
    49    9   45 1  
    50   10   46 1  
    51   18   47 1  
    52   18   48 1  
    53   19   49 1  
    54   19   50 1  
    55   20   51 1  
    56   20   52 1  
    57   21   53 1  
    58   21   54 1  
    59   22   55 1  
    60   22   56 1  
    61   23   57 1  
    62   24   58 1  
    63   26   59 1  
    64   26   60 1  
    65   26   61 1  
    66   27   62 1  
    67   27   63 1  
    68   27   64 1  
    69   28   65 1  
    70   28   66 1  
    71   28   67 1  
    72   31   68 1  
@<TRIPOS>SUBSTRUCTURE
     1 E3V         1

