### 
### Created by X-TOOL on Wed Jan  1 15:39:35 2020
### 

@<TRIPOS>MOLECULE
6bsk_ligand
   46    49     1     0     0
SMALL
GAST_HUCK


@<TRIPOS>ATOM
      1 O2        -38.4570    3.5120    3.5560 O.co2     1 MVG        -0.5601
      2 C17       -38.5230    3.0010    2.4550 C.2       1 MVG         0.0643
      3 O1        -37.5180    2.9680    1.6330 O.co2     1 MVG        -0.5601
      4 C16       -39.8160    2.4870    1.9280 C.ar      1 MVG         0.0124
      5 C15       -39.9370    2.0770    0.6030 C.ar      1 MVG        -0.0445
      6 C14       -41.1720    1.7210    0.0860 C.ar      1 MVG        -0.0459
      7 C18       -40.9550    2.4920    2.7280 C.ar      1 MVG        -0.0445
      8 C19       -42.1850    2.1240    2.2080 C.ar      1 MVG        -0.0459
      9 C13       -42.3170    1.7360    0.8760 C.ar      1 MVG         0.0065
     10 C12       -43.6340    1.3420    0.3150 C.ar      1 MVG         0.0735
     11 N4        -43.6780    1.1710   -1.0170 N.ar      1 MVG        -0.2423
     12 C20       -44.8020    1.2240    1.0860 C.ar      1 MVG         0.0381
     13 N5        -45.9930    0.9840    0.5110 N.ar      1 MVG        -0.2797
     14 C21       -46.0380    0.8560   -0.8240 C.ar      1 MVG         0.0733
     15 C11       -44.8660    0.9540   -1.5840 C.ar      1 MVG         0.2043
     16 N3        -44.9040    0.9580   -3.0130 N.pl3     1 MVG        -0.1374
     17 C6        -43.9490    1.3780   -3.9150 C.ar      1 MVG         0.1009
     18 C5        -42.6370    1.8060   -3.7520 C.ar      1 MVG        -0.0150
     19 N2        -46.1100    0.6920   -3.6550 N.2       1 MVG        -0.1927
     20 C10       -45.9080    0.9690   -4.9260 C.2       1 MVG         0.0180
     21 C7        -44.5850    1.4200   -5.1740 C.ar      1 MVG         0.0048
     22 C8        -43.8690    1.9220   -6.2690 C.ar      1 MVG        -0.0693
     23 C9        -42.5640    2.3650   -6.1100 C.ar      1 MVG        -0.0496
     24 C4        -41.9490    2.3140   -4.8520 C.ar      1 MVG         0.0321
     25 N1        -40.6600    2.8070   -4.6510 N.pl3     1 MVG        -0.3218
     26 C2        -39.7930    2.6390   -3.4480 C.3       1 MVG         0.0296
     27 C3        -39.3670    1.1890   -3.3020 C.3       1 MVG        -0.0429
     28 C1        -38.6080    3.5760   -3.5840 C.3       1 MVG        -0.0429
     29 H1        -39.0575    2.0360   -0.0294 H         1 MVG         0.0657
     30 H2        -41.2476    1.4251   -0.9541 H         1 MVG         0.0653
     31 H3        -40.8787    2.7868    3.7684 H         1 MVG         0.0657
     32 H4        -43.0598    2.1381    2.8480 H         1 MVG         0.0653
     33 H5        -44.7419    1.3283    2.1633 H         1 MVG         0.0846
     34 H6        -46.9866    0.6758   -1.3167 H         1 MVG         0.0871
     35 H7        -42.1556    1.7455   -2.7827 H         1 MVG         0.0443
     36 H8        -46.6684    0.8642   -5.6984 H         1 MVG         0.0726
     37 H9        -44.3374    1.9644   -7.2457 H         1 MVG         0.0583
     38 H10       -42.0178    2.7522   -6.9625 H         1 MVG         0.0473
     39 H11       -40.2579    3.3529   -5.4264 H         1 MVG         0.1761
     40 H12       -40.3642    2.9218   -2.5515 H         1 MVG         0.0543
     41 H13       -38.7295    1.0820   -2.4120 H         1 MVG         0.0251
     42 H14       -38.8043    0.8804   -4.1953 H         1 MVG         0.0251
     43 H15       -40.2586    0.5541   -3.1928 H         1 MVG         0.0251
     44 H16       -37.9535    3.4692   -2.7064 H         1 MVG         0.0251
     45 H17       -38.9667    4.6138   -3.6497 H         1 MVG         0.0251
     46 H18       -38.0443    3.3246   -4.4945 H         1 MVG         0.0251
@<TRIPOS>BOND
     1    1    2 ar 
     2    2    3 ar 
     3    2    4 1  
     4    4    5 ar 
     5    4    7 ar 
     6    5    6 ar 
     7    6    9 ar 
     8    7    8 ar 
     9    8    9 ar 
    10    9   10 1  
    11   10   11 ar 
    12   10   12 ar 
    13   11   15 ar 
    14   12   13 ar 
    15   13   14 ar 
    16   14   15 ar 
    17   15   16 1  
    18   16   17 1  
    19   16   19 1  
    20   17   18 ar 
    21   17   21 ar 
    22   18   24 ar 
    23   19   20 2  
    24   20   21 1  
    25   21   22 ar 
    26   22   23 ar 
    27   23   24 ar 
    28   24   25 1  
    29   25   26 1  
    30   26   27 1  
    31   26   28 1  
    32    5   29 1  
    33    6   30 1  
    34    7   31 1  
    35    8   32 1  
    36   12   33 1  
    37   14   34 1  
    38   18   35 1  
    39   20   36 1  
    40   22   37 1  
    41   23   38 1  
    42   25   39 1  
    43   26   40 1  
    44   27   41 1  
    45   27   42 1  
    46   27   43 1  
    47   28   44 1  
    48   28   45 1  
    49   28   46 1  
@<TRIPOS>SUBSTRUCTURE
     1 MVG         1

