### 
### Created by X-TOOL on Wed Jan  1 15:39:36 2020
### 

@<TRIPOS>MOLECULE
6bsm_ligand
   55    56     1     0     0
SMALL
GAST_HUCK


@<TRIPOS>ATOM
      1 C01        19.2860  -15.1300  -26.6890 C.3       1 E7D        -0.0653
      2 C02        19.2940  -14.3280  -25.4030 C.3       1 E7D        -0.0559
      3 C03        19.2080  -15.1220  -24.0680 C.3       1 E7D        -0.0532
      4 C04        18.3120  -14.5020  -22.9790 C.3       1 E7D        -0.0506
      5 C05        18.0400  -15.3000  -21.7150 C.3       1 E7D        -0.0297
      6 C06        17.5220  -14.5060  -20.5420 C.3       1 E7D         0.0889
      7 C07        17.0760  -15.3410  -19.3180 C.3       1 E7D         0.1707
      8 N08        16.7600  -14.5000  -18.2070 N.2       1 E7D         0.0876
      9 O09        17.6550  -13.8110  -17.5940 O.2       1 E7D         0.1607
     10 C10        15.4380  -14.3520  -17.7520 C.2       1 E7D         0.3887
     11 O11        15.2490  -13.5760  -16.7930 O.2       1 E7D        -0.2003
     12 C12        16.3910  -13.5940  -20.9240 C.2       1 E7D         0.1842
     13 O13        15.2670  -14.0050  -21.1770 O.2       1 E7D        -0.3966
     14 N14        16.6890  -12.1450  -20.9580 N.am      1 E7D        -0.2660
     15 C15        15.6430  -11.2100  -21.3170 C.3       1 E7D         0.1149
     16 N16        15.2120  -11.4340  -22.7230 N.am      1 E7D        -0.2636
     17 C17        16.1540  -11.2370  -23.7430 C.2       1 E7D         0.2393
     18 O18        17.2460  -10.8960  -23.5110 O.2       1 E7D        -0.3827
     19 C19        15.6470  -11.5220  -25.1450 C.2       1 E7D         0.1892
     20 C20        16.2740  -11.1140  -26.3470 C.2       1 E7D        -0.0254
     21 C21        15.4400  -11.6120  -27.4030 C.ar      1 E7D        -0.0091
     22 C22        15.5880  -11.4990  -28.8290 C.ar      1 E7D        -0.0797
     23 C23        14.6220  -12.0860  -29.6810 C.ar      1 E7D        -0.0847
     24 C24        13.5270  -12.7760  -29.1170 C.ar      1 E7D        -0.0429
     25 C25        13.3580  -12.9080  -27.6990 C.ar      1 E7D         0.1255
     26 O26        12.2170  -13.6190  -27.3060 O.3       1 E7D        -0.3225
     27 C27        11.8080  -14.0100  -26.0210 C.3       1 E7D         0.0580
     28 C28        14.3440  -12.3030  -26.8300 C.ar      1 E7D         0.1590
     29 O29        14.4980  -12.2380  -25.4230 O.3       1 E7D        -0.2433
     30 H1         19.3514  -14.4461  -27.5480 H         1 E7D         0.0230
     31 H2         18.3542  -15.7110  -26.7530 H         1 E7D         0.0230
     32 H3         20.1467  -15.8149  -26.6994 H         1 E7D         0.0230
     33 H4         18.4347  -13.6421  -25.4357 H         1 E7D         0.0263
     34 H5         20.2272  -13.7460  -25.3820 H         1 E7D         0.0263
     35 H6         20.2258  -15.2081  -23.6597 H         1 E7D         0.0265
     36 H7         18.8182  -16.1251  -24.2958 H         1 E7D         0.0265
     37 H8         17.3378  -14.2899  -23.4436 H         1 E7D         0.0267
     38 H9         18.7844  -13.5578  -22.6701 H         1 E7D         0.0267
     39 H10        18.9809  -15.7807  -21.4092 H         1 E7D         0.0293
     40 H11        17.2950  -16.0725  -21.9562 H         1 E7D         0.0293
     41 H12        18.3584  -13.8738  -20.2093 H         1 E7D         0.0575
     42 H13        17.8909  -16.0223  -19.0320 H         1 E7D         0.0796
     43 H14        16.1857  -15.9275  -19.5888 H         1 E7D         0.0796
     44 H15        14.6140  -14.8915  -18.2166 H         1 E7D         0.2097
     45 H16        17.6058  -11.8139  -20.7348 H         1 E7D         0.1871
     46 H17        16.0227  -10.1829  -21.2130 H         1 E7D         0.0788
     47 H18        14.7827  -11.3526  -20.6465 H         1 E7D         0.0788
     48 H19        14.2766  -11.7172  -22.9349 H         1 E7D         0.1862
     49 H20        17.1954  -10.5425  -26.4487 H         1 E7D         0.0453
     50 H21        16.4343  -10.9675  -29.2489 H         1 E7D         0.0459
     51 H22        14.7221  -12.0064  -30.7574 H         1 E7D         0.0503
     52 H23        12.7905  -13.2202  -29.7768 H         1 E7D         0.0468
     53 H24        10.8557  -14.5562  -26.0897 H         1 E7D         0.0575
     54 H25        11.6744  -13.1180  -25.3914 H         1 E7D         0.0575
     55 H26        12.5734  -14.6622  -25.5752 H         1 E7D         0.0575
@<TRIPOS>BOND
     1    1    2 1  
     2    2    3 1  
     3    3    4 1  
     4    4    5 1  
     5    5    6 1  
     6    6    7 1  
     7    6   12 1  
     8    7    8 1  
     9    8    9 2  
    10    8   10 1  
    11   10   11 2  
    12   12   13 2  
    13   12   14 am 
    14   14   15 1  
    15   15   16 1  
    16   16   17 am 
    17   17   18 2  
    18   17   19 1  
    19   19   20 2  
    20   19   29 1  
    21   20   21 1  
    22   21   22 ar 
    23   21   28 ar 
    24   22   23 ar 
    25   23   24 ar 
    26   24   25 ar 
    27   25   26 1  
    28   25   28 ar 
    29   26   27 1  
    30   28   29 1  
    31    1   30 1  
    32    1   31 1  
    33    1   32 1  
    34    2   33 1  
    35    2   34 1  
    36    3   35 1  
    37    3   36 1  
    38    4   37 1  
    39    4   38 1  
    40    5   39 1  
    41    5   40 1  
    42    6   41 1  
    43    7   42 1  
    44    7   43 1  
    45   10   44 1  
    46   14   45 1  
    47   15   46 1  
    48   15   47 1  
    49   16   48 1  
    50   20   49 1  
    51   22   50 1  
    52   23   51 1  
    53   24   52 1  
    54   27   53 1  
    55   27   54 1  
    56   27   55 1  
@<TRIPOS>SUBSTRUCTURE
     1 E7D         1

