### 
### Created by X-TOOL on Wed Jan  1 15:39:37 2020
### 

@<TRIPOS>MOLECULE
6bsx_ligand
   25    26     1     0     0
SMALL
GAST_HUCK


@<TRIPOS>ATOM
      1 C10       -16.8980   -6.3940  -49.0220 C.ar      1 E7S         0.0077
      2 C01       -18.6830   -7.9010  -52.7340 C.3       1 E7S        -0.0384
      3 C02       -17.9970   -7.3260  -51.3090 C.ar      1 E7S        -0.0573
      4 C03       -17.9640   -5.9630  -51.1440 C.ar      1 E7S        -0.0465
      5 C04       -17.4020   -5.4930  -49.9610 C.ar      1 E7S         0.0656
      6 N05       -17.2000   -4.1720  -49.5200 N.pl3     1 E7S        -0.2503
      7 C06       -16.6230   -4.2860  -48.3190 C.2       1 E7S         0.1429
      8 C07       -16.2060   -3.2090  -47.3440 C.3       1 E7S         0.1247
      9 O08       -16.9460   -3.4570  -46.1070 O.3       1 E7S        -0.3733
     10 N09       -16.4140   -5.6330  -47.9730 N.2       1 E7S        -0.3233
     11 C11       -16.9330   -7.7720  -49.1900 C.ar      1 E7S        -0.0699
     12 C12       -17.4970   -8.2190  -50.3290 C.ar      1 E7S        -0.0595
     13 C13       -17.5150   -9.9240  -50.5160 C.3       1 E7S        -0.0392
     14 H1        -19.0057   -7.0518  -53.3543 H         1 E7S         0.0364
     15 H2        -19.5522   -8.5311  -52.4943 H         1 E7S         0.0364
     16 H3        -17.9396   -8.4958  -53.2849 H         1 E7S         0.0364
     17 H4        -18.3556   -5.2881  -51.8965 H         1 E7S         0.0458
     18 H5        -17.4443   -3.3031  -50.0162 H         1 E7S         0.2301
     19 H6        -16.4580   -2.2160  -47.7445 H         1 E7S         0.0826
     20 H7        -15.1235   -3.2649  -47.1565 H         1 E7S         0.0826
     21 H8        -16.7256   -4.3193  -45.7749 H         1 E7S         0.2139
     22 H9        -16.5293   -8.4499  -48.4466 H         1 E7S         0.0451
     23 H10       -17.9937  -10.1830  -51.4719 H         1 E7S         0.0359
     24 H11       -18.0799  -10.3777  -49.6884 H         1 E7S         0.0359
     25 H12       -16.4830  -10.3047  -50.5077 H         1 E7S         0.0359
@<TRIPOS>BOND
     1    5    1 ar 
     2    1   10 1  
     3    1   11 ar 
     4    3    2 1  
     5    4    3 ar 
     6    3   12 ar 
     7    4    5 ar 
     8    5    6 1  
     9    6    7 1  
    10    7    8 1  
    11    7   10 2  
    12    8    9 1  
    13   11   12 ar 
    14   12   13 1  
    15    2   14 1  
    16    2   15 1  
    17    2   16 1  
    18    4   17 1  
    19    6   18 1  
    20    8   19 1  
    21    8   20 1  
    22    9   21 1  
    23   11   22 1  
    24   13   23 1  
    25   13   24 1  
    26   13   25 1  
@<TRIPOS>SUBSTRUCTURE
     1 E7S         1

