### 
### Created by X-TOOL on Mon Jan  6 16:09:23 2020
### 

@<TRIPOS>MOLECULE
6bt0_ligand
   52    55     1     0     0
SMALL
GAST_HUCK


@<TRIPOS>ATOM
      1 C2         18.5770    3.2120  -24.3530 C.ar      1 E7V        -0.0074
      2 C4         16.4800    3.5670  -23.2520 C.ar      1 E7V        -0.0214
      3 C5         16.0090    2.3060  -23.6470 C.ar      1 E7V         0.0243
      4 C7         19.7880    3.9230  -24.5490 C.2       1 E7V        -0.0443
      5 C6         16.8490    1.4910  -24.4190 C.ar      1 E7V        -0.0490
      6 C8         19.6760    5.1470  -23.9110 C.2       1 E7V         0.0743
      7 C1         18.1340    1.9440  -24.7690 C.ar      1 E7V         0.0025
      8 C11        20.7920    6.1500  -23.9320 C.2       1 E7V         0.0738
      9 C3         17.7540    4.0280  -23.5950 C.ar      1 E7V         0.0697
     10 CL1        12.5820    3.6790  -17.4760 Cl        1 E7V        -0.0761
     11 C19        13.1110    3.1770  -19.1260 C.ar      1 E7V         0.0473
     12 C20        13.3390    4.1200  -20.1300 C.ar      1 E7V         0.0490
     13 CL2        13.1130    5.8890  -19.8410 Cl        1 E7V        -0.0717
     14 C21        13.7410    3.6800  -21.3970 C.ar      1 E7V        -0.0329
     15 C18        13.2890    1.8160  -19.4030 C.ar      1 E7V        -0.0529
     16 C17        13.7120    1.3870  -20.6640 C.ar      1 E7V        -0.0466
     17 C16        13.9430    2.3200  -21.6730 C.ar      1 E7V         0.0312
     18 S15        14.4430    1.7820  -23.2110 S.3       1 E7V        -0.0445
     19 BR1        19.2900    0.8630  -25.8100 Br        1 E7V        -0.0575
     20 O12        21.6770    6.0960  -23.0500 O.co2     1 E7V        -0.5594
     21 O13        20.8330    7.0010  -24.8550 O.co2     1 E7V        -0.5594
     22 N9         18.4290    5.1880  -23.3270 N.pl3     1 E7V        -0.2490
     23 C14        17.7940    6.2700  -22.5370 C.3       1 E7V         0.0830
     24 C24        18.7060    7.1760  -21.7370 C.ar      1 E7V        -0.0114
     25 C25        19.5200    6.6460  -20.7330 C.ar      1 E7V        -0.0520
     26 C26        20.3510    7.4900  -19.9950 C.ar      1 E7V        -0.0484
     27 C29        18.7170    8.5530  -21.9830 C.ar      1 E7V        -0.0520
     28 C28        19.5500    9.3890  -21.2380 C.ar      1 E7V        -0.0484
     29 C27        20.3770    8.8580  -20.2400 C.ar      1 E7V         0.0429
     30 C30        21.3070    9.6900  -19.3940 C.2       1 E7V         0.2019
     31 O31        20.8650   10.1000  -18.3320 O.2       1 E7V        -0.3876
     32 N32        22.5780    9.9210  -19.7830 N.am      1 E7V        -0.2795
     33 C33        23.2710   11.2060  -19.6350 C.3       1 E7V         0.0216
     34 C34        23.4090    8.8810  -20.3930 C.3       1 E7V         0.0216
     35 H1         15.8338    4.2056  -22.6606 H         1 E7V         0.0504
     36 H2         20.6550    3.5684  -25.1044 H         1 E7V         0.0437
     37 H3         16.5092    0.5147  -24.7452 H         1 E7V         0.0530
     38 H4         13.9000    4.4085  -22.1838 H         1 E7V         0.0575
     39 H5         13.0957    1.0838  -18.6273 H         1 E7V         0.0607
     40 H6         13.8601    0.3306  -20.8568 H         1 E7V         0.0572
     41 H7         17.0965    5.7967  -21.8302 H         1 E7V         0.0753
     42 H8         17.2316    6.9040  -23.2382 H         1 E7V         0.0753
     43 H9         19.5062    5.5817  -20.5277 H         1 E7V         0.0571
     44 H10        20.9846    7.0732  -19.2204 H         1 E7V         0.0652
     45 H11        18.0782    8.9709  -22.7526 H         1 E7V         0.0571
     46 H12        19.5570   10.4553  -21.4328 H         1 E7V         0.0652
     47 H13        24.2930   11.1193  -20.0324 H         1 E7V         0.0485
     48 H14        23.3136   11.4792  -18.5703 H         1 E7V         0.0485
     49 H15        22.7260   11.9828  -20.1913 H         1 E7V         0.0485
     50 H16        22.8299    7.9492  -20.4734 H         1 E7V         0.0485
     51 H17        24.2973    8.7078  -19.7678 H         1 E7V         0.0485
     52 H18        23.7239    9.2046  -21.3960 H         1 E7V         0.0485
@<TRIPOS>BOND
     1    1    4 1  
     2    7    1 ar 
     3    9    1 ar 
     4    3    2 ar 
     5    2    9 ar 
     6    3    5 ar 
     7   18    3 1  
     8    4    6 2  
     9    5    7 ar 
    10    6    8 1  
    11   22    6 1  
    12    7   19 1  
    13    8   20 2  
    14    8   21 2  
    15    9   22 1  
    16   11   10 1  
    17   12   11 ar 
    18   15   11 ar 
    19   12   13 1  
    20   14   12 ar 
    21   17   14 ar 
    22   16   15 ar 
    23   17   16 ar 
    24   17   18 1  
    25   22   23 1  
    26   23   24 1  
    27   24   25 ar 
    28   24   27 ar 
    29   25   26 ar 
    30   26   29 ar 
    31   27   28 ar 
    32   28   29 ar 
    33   29   30 1  
    34   30   31 2  
    35   30   32 am 
    36   32   33 1  
    37   32   34 1  
    38    2   35 1  
    39    4   36 1  
    40    5   37 1  
    41   14   38 1  
    42   15   39 1  
    43   16   40 1  
    44   23   41 1  
    45   23   42 1  
    46   25   43 1  
    47   26   44 1  
    48   27   45 1  
    49   28   46 1  
    50   33   47 1  
    51   33   48 1  
    52   33   49 1  
    53   34   50 1  
    54   34   51 1  
    55   34   52 1  
@<TRIPOS>SUBSTRUCTURE
     1 E7V         1

