### 
### Created by X-TOOL on Wed Jan  1 15:39:34 2020
### 

@<TRIPOS>MOLECULE
6bt6_ligand
   37    40     1     0     0
SMALL
GAST_HUCK


@<TRIPOS>ATOM
      1 N1          1.3950   -1.5160  -11.6780 N.2       1 3GK        -0.0636
      2 C6          4.6120   -1.4870  -13.2030 C.ar      1 3GK         0.0268
      3 C7          5.5180   -0.7300  -12.4650 C.ar      1 3GK        -0.0238
      4 C8          6.8510   -0.6590  -12.8260 C.ar      1 3GK         0.0704
      5 C9          7.2910   -1.3450  -13.9540 C.ar      1 3GK        -0.0372
      6 C13         8.7930    0.8390  -12.4830 C.2       1 3GK         0.2342
      7 C17         9.7740    2.5130   -9.1570 C.ar      1 3GK         0.0734
      8 C18        10.7920    3.3790   -9.6090 C.ar      1 3GK        -0.0205
      9 C22         8.2640    1.3290   -8.0770 C.2       1 3GK         0.1134
     10 C24        12.1680    4.3120  -11.4580 C.3       1 3GK         0.3675
     11 F27        11.6060    5.4140  -11.9350 F         1 3GK        -0.2279
     12 F25        13.0390    4.6790  -10.4820 F         1 3GK        -0.2279
     13 F26        12.8990    3.8170  -12.4840 F         1 3GK        -0.2279
     14 C19        11.1170    3.3780  -10.9560 C.ar      1 3GK         0.0391
     15 N23         9.2200    2.2700   -7.9270 N.2       1 3GK        -0.2914
     16 N21         8.1810    0.9580   -9.3680 N.pl3     1 3GK        -0.2316
     17 C16         9.0900    1.6620  -10.0460 C.ar      1 3GK         0.1332
     18 C20        10.4510    2.5380  -11.8520 C.ar      1 3GK        -0.0245
     19 C15         9.4620    1.6850  -11.4040 C.ar      1 3GK         0.1049
     20 O14         9.2040    0.8060  -13.6370 O.2       1 3GK        -0.3764
     21 N12         7.7080    0.1510  -12.0510 N.am      1 3GK        -0.2333
     22 C10         6.3970   -2.0880  -14.6990 C.ar      1 3GK        -0.0702
     23 C11         5.0640   -2.1610  -14.3320 C.ar      1 3GK        -0.0591
     24 C3          3.1870   -1.5560  -12.8170 C.2       1 3GK         0.1822
     25 N2          2.7390   -1.3870  -11.5800 N.pl3     1 3GK        -0.1510
     26 N4          2.1890   -1.7760  -13.6660 N.2       1 3GK        -0.2073
     27 N5          1.0760   -1.7500  -12.9300 N.2       1 3GK        -0.1383
     28 H1          5.1726   -0.1871  -11.5926 H         1 3GK         0.0543
     29 H2          8.3335   -1.2961  -14.2471 H         1 3GK         0.0536
     30 H3         11.3098    4.0323   -8.9161 H         1 3GK         0.0887
     31 H4          7.6500    0.9288   -7.2716 H         1 3GK         0.1384
     32 H5          7.5345    0.2590   -9.7608 H         1 3GK         0.2442
     33 H6         10.7120    2.5560  -12.9040 H         1 3GK         0.0800
     34 H7          7.4914    0.2255  -11.0776 H         1 3GK         0.2249
     35 H8          6.7418   -2.6189  -15.5790 H         1 3GK         0.0588
     36 H9          4.3709   -2.7452  -14.9265 H         1 3GK         0.0535
     37 H10         3.2920   -1.1990  -10.7316 H         1 3GK         0.2708
@<TRIPOS>BOND
     1   25    1 1  
     2    1   27 2  
     3    2    3 ar 
     4    2   23 ar 
     5   24    2 1  
     6    3    4 ar 
     7    4    5 ar 
     8    4   21 1  
     9   22    5 ar 
    10    6   19 1  
    11    6   20 2  
    12   21    6 am 
    13    7    8 ar 
    14    7   15 1  
    15   17    7 ar 
    16   14    8 ar 
    17    9   15 2  
    18   16    9 1  
    19   10   11 1  
    20   10   12 1  
    21   10   13 1  
    22   14   10 1  
    23   18   14 ar 
    24   17   16 1  
    25   19   17 ar 
    26   19   18 ar 
    27   23   22 ar 
    28   24   25 1  
    29   24   26 2  
    30   26   27 1  
    31    3   28 1  
    32    5   29 1  
    33    8   30 1  
    34    9   31 1  
    35   16   32 1  
    36   18   33 1  
    37   21   34 1  
    38   22   35 1  
    39   23   36 1  
    40   25   37 1  
@<TRIPOS>SUBSTRUCTURE
     1 3GK         1

