### 
### Created by X-TOOL on Wed Jan  1 15:39:37 2020
### 

@<TRIPOS>MOLECULE
6bto_ligand
   65    67     1     0     0
SMALL
GAST_HUCK


@<TRIPOS>ATOM
      1 C17         8.8320   13.4910   -4.7320 C.3       1 E8P         0.0656
      2 C22         9.5400   15.2920   -3.0940 C.2       1 E8P         0.2013
      3 C28         9.9710   13.6780   -5.7190 C.2       1 E8P         0.1863
      4 C01         2.7890   12.2260   -4.0410 C.3       1 E8P        -0.0653
      5 C05         3.7520   12.6570   -5.1200 C.3       1 E8P        -0.0559
      6 C08         5.2020   12.3010   -4.8130 C.3       1 E8P        -0.0532
      7 C11         6.2020   13.3500   -5.2940 C.3       1 E8P        -0.0506
      8 C14         7.6310   12.8270   -5.4790 C.3       1 E8P        -0.0311
      9 C19         8.4860   14.8450   -4.0880 C.3       1 E8P         0.0585
     10 O23        10.2160   14.5010   -2.4500 O.2       1 E8P        -0.3968
     11 N24         9.6350   16.6000   -2.9740 N.am      1 E8P        -0.1641
     12 O26        10.5660   17.1150   -2.0790 O.3       1 E8P        -0.2717
     13 O29         9.9410   14.5990   -6.5170 O.2       1 E8P        -0.3963
     14 N30        10.9990   12.7900   -5.7190 N.am      1 E8P        -0.2481
     15 C31        11.2630   11.6540   -4.8050 C.3       1 E8P         0.0483
     16 C33        12.2010   12.1500   -3.7100 C.3       1 E8P        -0.0290
     17 C36        13.4860   12.4490   -4.4950 C.3       1 E8P        -0.0438
     18 C39        13.1550   11.9520   -5.9130 C.3       1 E8P         0.0018
     19 C41        12.2150   10.7780   -5.6180 C.3       1 E8P        -0.0224
     20 C44        12.1810   12.9440   -6.5770 C.3       1 E8P         0.1369
     21 C46        11.9380   12.5020   -8.0300 C.2       1 E8P         0.2056
     22 O47        10.8640   12.0340   -8.4010 O.2       1 E8P        -0.3943
     23 N48        13.0150   12.6220   -8.8200 N.am      1 E8P        -0.2587
     24 C50        13.0880   12.2040  -10.2150 C.3       1 E8P         0.1278
     25 C52        14.5410   11.9180  -10.5920 C.2       1 E8P         0.0723
     26 O53        14.8480   11.0160  -11.3440 O.co2     1 E8P        -0.5642
     27 O55        15.4040   12.7230  -10.0250 O.co2     1 E8P        -0.5642
     28 C56        12.4900   13.2060  -11.2160 C.ar      1 E8P        -0.0049
     29 C57        12.3290   12.8440  -12.5490 C.ar      1 E8P        -0.0564
     30 C59        11.8060   13.7390  -13.4700 C.ar      1 E8P        -0.0682
     31 C61        11.4470   15.0120  -13.0770 C.ar      1 E8P        -0.0685
     32 C63        11.6070   15.3880  -11.7600 C.ar      1 E8P        -0.0682
     33 C65        12.1290   14.4930  -10.8340 C.ar      1 E8P        -0.0564
     34 H1          9.1584   12.8086   -3.9334 H         1 E8P         0.0563
     35 H2          1.7662   12.5130   -4.3265 H         1 E8P         0.0230
     36 H3          3.0565   12.7165   -3.0935 H         1 E8P         0.0230
     37 H4          2.8423   11.1344   -3.9166 H         1 E8P         0.0230
     38 H5          3.6782   13.7481   -5.2381 H         1 E8P         0.0263
     39 H6          3.4640   12.1660   -6.0612 H         1 E8P         0.0263
     40 H7          5.4372   11.3451   -5.3038 H         1 E8P         0.0265
     41 H8          5.3103   12.1905   -3.7239 H         1 E8P         0.0265
     42 H9          6.2272   14.1650   -4.5556 H         1 E8P         0.0267
     43 H10         5.8515   13.7414   -6.2604 H         1 E8P         0.0267
     44 H11         7.6192   11.7698   -5.1753 H         1 E8P         0.0294
     45 H12         7.8534   12.8973   -6.5540 H         1 E8P         0.0294
     46 H13         7.5225   14.7529   -3.5653 H         1 E8P         0.0529
     47 H14         8.4022   15.6032   -4.8805 H         1 E8P         0.0529
     48 H15         9.0520   17.2077   -3.5132 H         1 E8P         0.2216
     49 H16        10.5270   18.0641   -2.0943 H         1 E8P         0.2490
     50 H17        10.3553   11.1536   -4.4367 H         1 E8P         0.0560
     51 H18        12.3702   11.3746   -2.9483 H         1 E8P         0.0288
     52 H19        11.8075   13.0574   -3.2285 H         1 E8P         0.0288
     53 H20        14.3418   11.9006   -4.0745 H         1 E8P         0.0271
     54 H21        13.7059   13.5268   -4.4961 H         1 E8P         0.0271
     55 H22        14.0398   11.7142   -6.5217 H         1 E8P         0.0349
     56 H23        11.7538   10.3480   -6.5194 H         1 E8P         0.0292
     57 H24        12.6852    9.9769   -5.0289 H         1 E8P         0.0292
     58 H25        12.5586   13.9770   -6.5585 H         1 E8P         0.0805
     59 H26        13.8348   13.0315   -8.4198 H         1 E8P         0.1901
     60 H27        12.5164   11.2686  -10.3061 H         1 E8P         0.0887
     61 H28        12.6159   11.8498  -12.8721 H         1 E8P         0.0560
     62 H29        11.6786   13.4372  -14.5033 H         1 E8P         0.0600
     63 H30        11.0418   15.7119  -13.7988 H         1 E8P         0.0560
     64 H31        11.3243   16.3862  -11.4457 H         1 E8P         0.0600
     65 H32        12.2561   14.8017   -9.8027 H         1 E8P         0.0560
@<TRIPOS>BOND
     1    1    3 1  
     2    8    1 1  
     3    1    9 1  
     4    9    2 1  
     5    2   10 2  
     6    2   11 am 
     7    3   13 2  
     8    3   14 am 
     9    5    4 1  
    10    6    5 1  
    11    7    6 1  
    12    7    8 1  
    13   11   12 1  
    14   14   15 1  
    15   14   20 1  
    16   15   16 1  
    17   15   19 1  
    18   16   17 1  
    19   17   18 1  
    20   18   19 1  
    21   18   20 1  
    22   20   21 1  
    23   21   22 2  
    24   21   23 am 
    25   23   24 1  
    26   24   25 1  
    27   24   28 1  
    28   25   26 ar 
    29   25   27 ar 
    30   28   29 ar 
    31   28   33 ar 
    32   29   30 ar 
    33   30   31 ar 
    34   31   32 ar 
    35   32   33 ar 
    36    1   34 1  
    37    4   35 1  
    38    4   36 1  
    39    4   37 1  
    40    5   38 1  
    41    5   39 1  
    42    6   40 1  
    43    6   41 1  
    44    7   42 1  
    45    7   43 1  
    46    8   44 1  
    47    8   45 1  
    48    9   46 1  
    49    9   47 1  
    50   11   48 1  
    51   12   49 1  
    52   15   50 1  
    53   16   51 1  
    54   16   52 1  
    55   17   53 1  
    56   17   54 1  
    57   18   55 1  
    58   19   56 1  
    59   19   57 1  
    60   20   58 1  
    61   23   59 1  
    62   24   60 1  
    63   29   61 1  
    64   30   62 1  
    65   31   63 1  
    66   32   64 1  
    67   33   65 1  
@<TRIPOS>SUBSTRUCTURE
     1 E8P         1

