### 
### Created by X-TOOL on Wed Jan  1 15:39:36 2020
### 

@<TRIPOS>MOLECULE
6bu1_ligand
   24    24     1     0     0
SMALL
GAST_HUCK


@<TRIPOS>ATOM
      1 C10        34.8740   77.1120   63.7040 C.ar      1 E9S        -0.0515
      2 C13        32.4040   76.6960   62.4080 C.ar      1 E9S         0.1031
      3 C15        33.1770   77.8610   62.1960 C.ar      1 E9S         0.0585
      4 C02        37.9880   80.9550   64.4540 C.2       1 E9S         0.0656
      5 C04        36.7620   81.0700   63.4900 C.3       1 E9S         0.1222
      6 C06        35.6910   80.1990   63.6470 C.3       1 E9S         0.0607
      7 C07        35.1750   79.3980   62.5270 C.2       1 E9S         0.1363
      8 C09        34.3920   78.1030   62.8260 C.ar      1 E9S         0.0333
      9 C11        34.1270   75.9470   63.9160 C.ar      1 E9S        -0.0618
     10 C12        32.9000   75.7270   63.2750 C.ar      1 E9S        -0.0259
     11 O01        37.7560   80.7810   65.6470 O.co2     1 E9S        -0.5662
     12 O03        39.0980   81.0420   63.9140 O.co2     1 E9S        -0.5662
     13 O05        36.9330   81.7410   62.3250 O.3       1 E9S        -0.3754
     14 O08        35.3540   79.6870   61.4030 O.2       1 E9S        -0.3767
     15 O14        31.2010   76.5170   61.7560 O.3       1 E9S        -0.3300
     16 BR16       32.4440   79.1870   61.0180 Br        1 E9S        -0.0526
     17 H1         35.8204   77.2512   64.2139 H         1 E9S         0.0586
     18 H2         36.2860   81.9070   64.0218 H         1 E9S         0.0789
     19 H3         34.8479   80.8073   64.0063 H         1 E9S         0.0530
     20 H4         35.9863   79.4835   64.4285 H         1 E9S         0.0530
     21 H5         34.5085   75.1934   64.5954 H         1 E9S         0.0625
     22 H6         32.3443   74.8133   63.4524 H         1 E9S         0.0588
     23 H7         37.0399   81.1187   61.6152 H         1 E9S         0.2126
     24 H8         31.2486   75.7381   61.2141 H         1 E9S         0.2496
@<TRIPOS>BOND
     1    8    1 ar 
     2    1    9 ar 
     3    3    2 ar 
     4    2   10 ar 
     5    2   15 1  
     6    8    3 ar 
     7    3   16 1  
     8    5    4 1  
     9    4   11 ar 
    10    4   12 ar 
    11    6    5 1  
    12    5   13 1  
    13    7    6 1  
    14    7    8 1  
    15    7   14 2  
    16    9   10 ar 
    17    1   17 1  
    18    5   18 1  
    19    6   19 1  
    20    6   20 1  
    21    9   21 1  
    22   10   22 1  
    23   13   23 1  
    24   15   24 1  
@<TRIPOS>SUBSTRUCTURE
     1 E9S         1

