### 
### Created by X-TOOL on Wed Jan  1 15:39:34 2020
### 

@<TRIPOS>MOLECULE
6bu3_ligand
   37    40     1     0     0
SMALL
GAST_HUCK


@<TRIPOS>ATOM
      1 N1         -4.8560    0.5530  -16.0420 N.2       1 3GK        -0.1383
      2 C6         -1.6570   -0.2260  -14.7070 C.ar      1 3GK         0.0268
      3 C7         -0.7510   -0.5010  -15.7260 C.ar      1 3GK        -0.0238
      4 C8          0.5860   -0.7260  -15.4390 C.ar      1 3GK         0.0705
      5 C9          1.0080   -0.6990  -14.1180 C.ar      1 3GK        -0.0372
      6 C13         2.5890   -1.8040  -16.4460 C.2       1 3GK         0.2328
      7 C17         3.6960   -1.4760  -20.1480 C.ar      1 3GK         0.1216
      8 C18         4.7060   -2.4620  -20.1510 C.ar      1 3GK        -0.0009
      9 C22         2.2280    0.1130  -20.5380 C.2       1 3GK         0.1203
     10 C24         6.0270   -4.2340  -18.9910 C.3       1 3GK         0.3663
     11 F27         5.4610   -5.4160  -19.1990 F         1 3GK        -0.2290
     12 F25         6.9510   -4.0320  -19.9120 F         1 3GK        -0.2290
     13 F26         6.6900   -4.3670  -17.8150 F         1 3GK        -0.2290
     14 C19         4.9770   -3.1710  -18.9850 C.ar      1 3GK         0.0377
     15 N23         3.2030   -0.6260  -21.1090 N.pl3     1 3GK        -0.2357
     16 N21         2.0810   -0.2450  -19.2430 N.2       1 3GK        -0.2772
     17 C16         2.9660   -1.2060  -18.9720 C.ar      1 3GK         0.0823
     18 C20         4.2620   -2.9120  -17.8100 C.ar      1 3GK        -0.0285
     19 C15         3.2820   -1.9420  -17.8010 C.ar      1 3GK         0.0810
     20 O14         2.9910   -2.3590  -15.4260 O.2       1 3GK        -0.3752
     21 N12         1.4800   -1.0220  -16.4930 N.am      1 3GK        -0.2330
     22 C10         0.1160   -0.4340  -13.0930 C.ar      1 3GK        -0.0702
     23 C11        -1.2160   -0.1980  -13.3900 C.ar      1 3GK        -0.0591
     24 C3         -3.0790    0.0260  -15.0080 C.2       1 3GK         0.1822
     25 N2         -3.5310    0.4610  -16.1770 N.2       1 3GK        -0.2073
     26 N4         -4.0760   -0.1470  -14.1450 N.pl3     1 3GK        -0.1510
     27 N5         -5.1790    0.1920  -14.8220 N.2       1 3GK        -0.0636
     28 H1         -1.0938   -0.5397  -16.7537 H         1 3GK         0.0543
     29 H2          2.0497   -0.8878  -13.8852 H         1 3GK         0.0536
     30 H3          5.2669   -2.6655  -21.0560 H         1 3GK         0.0866
     31 H4          1.6471    0.8822  -21.0448 H         1 3GK         0.1473
     32 H5          3.5198   -0.5640  -22.0871 H         1 3GK         0.2390
     33 H6          4.4784   -3.4732  -16.9082 H         1 3GK         0.0775
     34 H7          1.2710   -0.6063  -17.3781 H         1 3GK         0.2250
     35 H8          0.4579   -0.4114  -12.0646 H         1 3GK         0.0588
     36 H9         -1.9181    0.0096  -12.5906 H         1 3GK         0.0535
     37 H10        -4.0128   -0.4710  -13.1693 H         1 3GK         0.2708
@<TRIPOS>BOND
     1   25    1 1  
     2    1   27 2  
     3    2    3 ar 
     4    2   23 ar 
     5   24    2 1  
     6    3    4 ar 
     7    4    5 ar 
     8    4   21 1  
     9   22    5 ar 
    10    6   19 1  
    11    6   20 2  
    12   21    6 am 
    13    7    8 ar 
    14    7   15 1  
    15   17    7 ar 
    16   14    8 ar 
    17    9   15 1  
    18   16    9 2  
    19   10   11 1  
    20   10   12 1  
    21   10   13 1  
    22   14   10 1  
    23   18   14 ar 
    24   17   16 1  
    25   19   17 ar 
    26   19   18 ar 
    27   23   22 ar 
    28   24   25 2  
    29   24   26 1  
    30   26   27 1  
    31    3   28 1  
    32    5   29 1  
    33    8   30 1  
    34    9   31 1  
    35   15   32 1  
    36   18   33 1  
    37   21   34 1  
    38   22   35 1  
    39   23   36 1  
    40   26   37 1  
@<TRIPOS>SUBSTRUCTURE
     1 3GK         1

