### 
### Created by X-TOOL on Mon Aug  2 16:12:42 2021
### 

@<TRIPOS>MOLECULE
6buv_ligand
   67    70     1     0     0
SMALL
GAST_HUCK


@<TRIPOS>ATOM
      1 C8         -0.1090   60.8340   59.0630 C.3       1 E9A         0.0910
      2 N1         -4.8390   59.0630   56.2760 N.2       1 E9A        -0.2710
      3 C7         -2.1510   64.0410   59.4620 C.3       1 E9A        -0.0623
      4 O          -1.0110   60.5970   57.9260 O.3       1 E9A        -0.2711
      5 C6         -0.2450   64.0740   57.8530 C.3       1 E9A        -0.0623
      6 C5         -1.1510   63.1730   58.7040 C.3       1 E9A        -0.0412
      7 C1          0.3750   59.9680   61.4180 C.3       1 E9A        -0.0412
      8 C2          0.2010   61.3900   61.9150 C.3       1 E9A        -0.0500
      9 C3         -0.7840   62.1630   61.0540 C.3       1 E9A        -0.0471
     10 C4         -0.3070   62.2500   59.6050 C.3       1 E9A        -0.0079
     11 N          -2.8120   59.7980   55.9380 N.pl3     1 E9A        -0.1590
     12 C           1.8370   59.5610   61.3010 C.3       1 E9A        -0.0623
     13 C10        -0.5000   59.8790   56.9010 C.2       1 E9A         0.2656
     14 C11        -1.3800   59.7770   55.6730 C.3       1 E9A         0.1689
     15 C12        -3.5460   58.7060   56.2060 C.2       1 E9A         0.2339
     16 C13        -5.9770   58.1880   56.5170 C.3       1 E9A         0.0168
     17 C14        -4.9400   60.4380   56.0320 C.ar      1 E9A         0.1232
     18 C15        -3.6570   60.8980   55.8020 C.ar      1 E9A         0.1571
     19 C16        -3.4240   62.2180   55.4470 C.ar      1 E9A         0.0211
     20 C17        -4.5160   63.0630   55.3370 C.ar      1 E9A        -0.0139
     21 C18        -5.8060   62.6050   55.5870 C.ar      1 E9A        -0.0147
     22 C19        -6.0370   61.2850   55.9450 C.ar      1 E9A         0.0081
     23 C20        -2.9420   57.2970   56.3150 C.3       1 E9A         0.1860
     24 C21        -1.7280   56.4230   58.2330 C.ar      1 E9A         0.0978
     25 C22        -1.6890   56.2750   59.6120 C.ar      1 E9A        -0.0326
     26 C23        -0.5890   55.6750   60.2010 C.ar      1 E9A        -0.0706
     27 C24         0.4590   55.2240   59.4290 C.ar      1 E9A        -0.0729
     28 C25         0.4120   55.3620   58.0590 C.ar      1 E9A        -0.0706
     29 C26        -0.6790   55.9570   57.4500 C.ar      1 E9A        -0.0326
     30 C9         -0.3750   59.7560   60.1000 C.3       1 E9A        -0.0193
     31 O1          0.5870   59.3810   56.9280 O.2       1 E9A        -0.3673
     32 O2         -2.8260   57.0850   57.7250 O.3       1 E9A        -0.2829
     33 H1          0.9327   60.7415   58.7221 H         1 E9A         0.0652
     34 H2         -2.7089   64.6656   58.7488 H         1 E9A         0.0232
     35 H3         -1.6125   64.6864   60.1715 H         1 E9A         0.0232
     36 H4         -2.8527   63.3968   60.0121 H         1 E9A         0.0232
     37 H5          0.4783   63.4530   57.3041 H         1 E9A         0.0232
     38 H6          0.2951   64.7739   58.5075 H         1 E9A         0.0232
     39 H7         -0.8591   64.6406   57.1376 H         1 E9A         0.0232
     40 H8         -1.7252   62.5259   58.0247 H         1 E9A         0.0299
     41 H9         -0.0838   59.3052   62.1664 H         1 E9A         0.0299
     42 H10         1.1754   61.8997   61.8890 H         1 E9A         0.0268
     43 H11        -0.1719   61.3642   62.9495 H         1 E9A         0.0268
     44 H12        -0.8907   63.1807   61.4576 H         1 E9A         0.0269
     45 H13        -1.7588   61.6541   61.0802 H         1 E9A         0.0269
     46 H14         0.6911   62.7113   59.6356 H         1 E9A         0.0332
     47 H15         1.9011   58.5247   60.9377 H         1 E9A         0.0232
     48 H16         2.3181   59.6341   62.2875 H         1 E9A         0.0232
     49 H17         2.3484   60.2300   60.5932 H         1 E9A         0.0232
     50 H18        -1.1429   60.6238   55.0121 H         1 E9A         0.0882
     51 H19        -1.1418   58.8336   55.1600 H         1 E9A         0.0882
     52 H20        -5.6211   57.1599   56.6794 H         1 E9A         0.0421
     53 H21        -6.6478   58.2103   55.6455 H         1 E9A         0.0421
     54 H22        -6.5221   58.5324   57.4082 H         1 E9A         0.0421
     55 H23        -2.4183   62.5775   55.2613 H         1 E9A         0.0835
     56 H24        -4.3633   64.0975   55.0516 H         1 E9A         0.1033
     57 H25        -6.6422   63.2895   55.5008 H         1 E9A         0.0678
     58 H26        -7.0394   60.9269   56.1498 H         1 E9A         0.1019
     59 H27        -1.9558   57.2545   55.8297 H         1 E9A         0.1058
     60 H28        -3.6074   56.5488   55.8595 H         1 E9A         0.1058
     61 H29        -2.5127   56.6261   60.2230 H         1 E9A         0.0542
     62 H30        -0.5521   55.5592   61.2782 H         1 E9A         0.0589
     63 H31         1.3194   54.7612   59.8987 H         1 E9A         0.0523
     64 H32         1.2358   55.0018   57.4535 H         1 E9A         0.0589
     65 H33        -0.7149   56.0586   56.3714 H         1 E9A         0.0542
     66 H34        -0.0693   58.7868   59.6791 H         1 E9A         0.0296
     67 H35        -1.4539   59.7390   60.3138 H         1 E9A         0.0296
@<TRIPOS>BOND
     1    4    1 1  
     2    1   10 1  
     3    1   30 1  
     4   15    2 2  
     5    2   16 1  
     6    2   17 1  
     7    6    3 1  
     8   13    4 1  
     9    6    5 1  
    10   10    6 1  
    11    7    8 1  
    12    7   12 1  
    13   30    7 1  
    14    9    8 1  
    15   10    9 1  
    16   11   14 1  
    17   15   11 1  
    18   11   18 1  
    19   14   13 1  
    20   13   31 2  
    21   23   15 1  
    22   18   17 ar 
    23   17   22 ar 
    24   18   19 ar 
    25   19   20 ar 
    26   20   21 ar 
    27   22   21 ar 
    28   32   23 1  
    29   24   25 ar 
    30   24   29 ar 
    31   24   32 1  
    32   25   26 ar 
    33   26   27 ar 
    34   27   28 ar 
    35   28   29 ar 
    36    1   33 1  
    37    3   34 1  
    38    3   35 1  
    39    3   36 1  
    40    5   37 1  
    41    5   38 1  
    42    5   39 1  
    43    6   40 1  
    44    7   41 1  
    45    8   42 1  
    46    8   43 1  
    47    9   44 1  
    48    9   45 1  
    49   10   46 1  
    50   12   47 1  
    51   12   48 1  
    52   12   49 1  
    53   14   50 1  
    54   14   51 1  
    55   16   52 1  
    56   16   53 1  
    57   16   54 1  
    58   19   55 1  
    59   20   56 1  
    60   21   57 1  
    61   22   58 1  
    62   23   59 1  
    63   23   60 1  
    64   25   61 1  
    65   26   62 1  
    66   27   63 1  
    67   28   64 1  
    68   29   65 1  
    69   30   66 1  
    70   30   67 1  
@<TRIPOS>SUBSTRUCTURE
     1 E9A         1

