### 
### Created by X-TOOL on Wed Jan  1 15:39:38 2020
### 

@<TRIPOS>MOLECULE
6bw2_ligand
   84    89     1     0     0
SMALL
GAST_HUCK


@<TRIPOS>ATOM
      1 CAA        50.9390    4.5750   35.0700 C.3       1 ECY        -0.0345
      2 CAB        48.6240    3.1900   30.7670 C.3       1 ECY        -0.0345
      3 CAC        45.4770   -5.5720   38.4790 C.3       1 ECY        -0.0289
      4 CAD        48.8200   -2.3210   40.5840 C.3       1 ECY         0.0006
      5 CAE        47.5470   -4.1890   42.6780 C.3       1 ECY         0.0566
      6 CAJ        50.6870  -12.4140   34.3310 C.ar      1 ECY        -0.0649
      7 CAK        47.0210   -1.4200   36.2590 C.ar      1 ECY        -0.0854
      8 CAL        51.1510  -11.1730   34.7500 C.ar      1 ECY        -0.0558
      9 CAM        49.3930  -12.5380   33.8400 C.ar      1 ECY        -0.0545
     10 CAN        46.8480   -2.0300   37.5120 C.ar      1 ECY        -0.0785
     11 CAO        47.8070   -2.0260   35.3030 C.ar      1 ECY        -0.0786
     12 CAP        50.7600    2.1670   34.3710 C.ar      1 ECY        -0.0385
     13 CAQ        49.6610    1.5000   32.3200 C.ar      1 ECY        -0.0385
     14 CAR        49.0410  -10.1780   34.1860 C.ar      1 ECY        -0.0443
     15 CAS        50.7000   -2.5510   33.4300 C.3       1 ECY        -0.0186
     16 CAT        49.1900   -7.4910   37.6510 C.3       1 ECY        -0.0066
     17 CAU        50.1500   -1.2460   32.8430 C.3       1 ECY         0.0716
     18 CAV        49.7070   -3.7310   33.3710 C.3       1 ECY        -0.0268
     19 CAW        48.8100   -7.7560   36.1930 C.3       1 ECY         0.0374
     20 CAX        49.0970   -5.9860   37.9450 C.3       1 ECY         0.0501
     21 CAY        50.9670   -8.7290   35.1720 C.3       1 ECY         0.0670
     22 CBB        47.1730  -11.5570   33.2450 C.2       1 ECY         0.0613
     23 CBC        50.4920   -6.3010   35.1840 C.2       1 ECY         0.2192
     24 CBD        50.4840    3.5030   34.0980 C.ar      1 ECY        -0.0474
     25 CBE        49.3750    2.8310   32.0330 C.ar      1 ECY        -0.0474
     26 CBF        46.3400   -4.8290   39.4660 C.2       1 ECY         0.0050
     27 CBG        50.3370  -10.0380   34.6950 C.ar      1 ECY        -0.0174
     28 CBH        50.3490    1.1740   33.4820 C.ar      1 ECY         0.0784
     29 CBI        47.7920   -3.4040   40.3150 C.2       1 ECY         0.0753
     30 CBJ        48.5470  -11.4220   33.7620 C.ar      1 ECY         0.0035
     31 CBK        49.7870    3.8340   32.9230 C.ar      1 ECY         0.0295
     32 CBL        47.4540   -3.2420   37.8260 C.ar      1 ECY        -0.0195
     33 CBM        49.2840   -4.0640   34.7960 C.2       1 ECY        -0.0219
     34 CBN        47.2100   -3.7860   39.1510 C.2       1 ECY         0.0022
     35 CBO        49.6410   -5.1660   35.5400 C.2       1 ECY         0.1289
     36 CBP        48.4420   -3.2520   35.5820 C.ar      1 ECY        -0.0171
     37 CBQ        48.2710   -3.8570   36.8250 C.ar      1 ECY         0.0662
     38 NAZ        46.3590   -5.0870   40.7380 N.2       1 ECY        -0.2369
     39 NBR        50.0790   -7.5770   35.4970 N.am      1 ECY        -0.2625
     40 NBS        47.2510   -4.2090   41.2590 N.pl3     1 ECY        -0.2132
     41 NBT        49.0150   -5.0540   36.7930 N.pl3     1 ECY        -0.2636
     42 OAF        46.9800  -12.1750   32.1600 O.co2     1 ECY        -0.5607
     43 OAG        51.5790   -6.1800   34.6270 O.2       1 ECY        -0.3923
     44 OAH        46.2060  -11.0590   33.8870 O.co2     1 ECY        -0.5607
     45 OBA        50.5970   -0.1680   33.7060 O.3       1 ECY        -0.3210
     46 CLAI       49.4240    5.4970   32.5540 Cl        1 ECY        -0.0937
     47 H1         51.4618    4.1049   35.9160 H         1 ECY         0.0390
     48 H2         50.0640    5.1284   35.4416 H         1 ECY         0.0390
     49 H3         51.6213    5.2691   34.5574 H         1 ECY         0.0390
     50 H4         48.3909    2.2727   30.2064 H         1 ECY         0.0390
     51 H5         49.2467    3.8508   30.1461 H         1 ECY         0.0390
     52 H6         47.6892    3.7070   31.0293 H         1 ECY         0.0390
     53 H7         44.8948   -6.3413   39.0074 H         1 ECY         0.0379
     54 H8         46.1151   -6.0509   37.7217 H         1 ECY         0.0379
     55 H9         44.7912   -4.8663   37.9875 H         1 ECY         0.0379
     56 H10        49.0840   -1.8233   39.6392 H         1 ECY         0.0452
     57 H11        49.7211   -2.7721   41.0250 H         1 ECY         0.0452
     58 H12        48.4002   -1.5823   41.2827 H         1 ECY         0.0452
     59 H13        46.9512   -4.9605   43.1877 H         1 ECY         0.0591
     60 H14        47.2971   -3.2005   43.0908 H         1 ECY         0.0591
     61 H15        48.6172   -4.3909   42.8322 H         1 ECY         0.0591
     62 H16        51.3327  -13.2829   34.3870 H         1 ECY         0.0606
     63 H17        46.5371   -0.4741   36.0442 H         1 ECY         0.0497
     64 H18        52.1635  -11.0834   35.1267 H         1 ECY         0.0578
     65 H19        49.0337  -13.5073   33.5139 H         1 ECY         0.0593
     66 H20        46.2256   -1.5434   38.2543 H         1 ECY         0.0469
     67 H21        47.9369   -1.5581   34.3339 H         1 ECY         0.0491
     68 H22        51.2946    1.8978   35.2748 H         1 ECY         0.0424
     69 H23        49.3473    0.7183   31.6377 H         1 ECY         0.0424
     70 H24        48.4028   -9.3045   34.1174 H         1 ECY         0.0590
     71 H25        50.9640   -2.3730   34.4829 H         1 ECY         0.0309
     72 H26        51.6032   -2.8301   32.8676 H         1 ECY         0.0309
     73 H27        50.2194   -7.8353   37.8290 H         1 ECY         0.0310
     74 H28        48.5013   -8.0361   38.3132 H         1 ECY         0.0310
     75 H29        49.0508   -1.2776   32.8173 H         1 ECY         0.0615
     76 H30        50.5365   -1.0983   31.8238 H         1 ECY         0.0615
     77 H31        50.1928   -4.6048   32.9123 H         1 ECY         0.0381
     78 H32        48.8257   -3.4476   32.7769 H         1 ECY         0.0381
     79 H33        48.0585   -7.0341   35.8408 H         1 ECY         0.0523
     80 H34        48.4259   -8.7784   36.0621 H         1 ECY         0.0523
     81 H35        49.9898   -5.7105   38.5255 H         1 ECY         0.0593
     82 H36        48.1977   -5.8276   38.5582 H         1 ECY         0.0593
     83 H37        51.6531   -8.3939   34.3802 H         1 ECY         0.0684
     84 H38        51.5413   -8.9600   36.0813 H         1 ECY         0.0684
@<TRIPOS>BOND
     1   24    1 1  
     2   25    2 1  
     3   26    3 1  
     4   29    4 1  
     5   40    5 1  
     6    8    6 ar 
     7    6    9 ar 
     8    7   10 ar 
     9   11    7 ar 
    10   27    8 ar 
    11   30    9 ar 
    12   10   32 ar 
    13   36   11 ar 
    14   12   24 ar 
    15   28   12 ar 
    16   13   25 ar 
    17   28   13 ar 
    18   27   14 ar 
    19   14   30 ar 
    20   15   17 1  
    21   18   15 1  
    22   19   16 1  
    23   16   20 1  
    24   17   45 1  
    25   33   18 1  
    26   39   19 1  
    27   20   41 1  
    28   21   27 1  
    29   39   21 1  
    30   30   22 1  
    31   22   42 ar 
    32   22   44 ar 
    33   35   23 1  
    34   23   39 am 
    35   23   43 2  
    36   24   31 ar 
    37   25   31 ar 
    38   34   26 1  
    39   26   38 2  
    40   45   28 1  
    41   34   29 2  
    42   29   40 1  
    43   31   46 1  
    44   32   34 1  
    45   32   37 ar 
    46   33   35 2  
    47   33   36 1  
    48   35   41 1  
    49   36   37 ar 
    50   37   41 1  
    51   38   40 1  
    52    1   47 1  
    53    1   48 1  
    54    1   49 1  
    55    2   50 1  
    56    2   51 1  
    57    2   52 1  
    58    3   53 1  
    59    3   54 1  
    60    3   55 1  
    61    4   56 1  
    62    4   57 1  
    63    4   58 1  
    64    5   59 1  
    65    5   60 1  
    66    5   61 1  
    67    6   62 1  
    68    7   63 1  
    69    8   64 1  
    70    9   65 1  
    71   10   66 1  
    72   11   67 1  
    73   12   68 1  
    74   13   69 1  
    75   14   70 1  
    76   15   71 1  
    77   15   72 1  
    78   16   73 1  
    79   16   74 1  
    80   17   75 1  
    81   17   76 1  
    82   18   77 1  
    83   18   78 1  
    84   19   79 1  
    85   19   80 1  
    86   20   81 1  
    87   20   82 1  
    88   21   83 1  
    89   21   84 1  
@<TRIPOS>SUBSTRUCTURE
     1 ECY         1

