### 
### Created by X-TOOL on Wed Jan  1 15:39:38 2020
### 

@<TRIPOS>MOLECULE
6bw5_ligand
  117   120     1     0     0
SMALL
GAST_HUCK


@<TRIPOS>ATOM
      1 C4         22.5310    7.0520   36.5860 C.2       1 TUM        -0.0030
      2 C5         23.7650    6.2350   36.1470 C.2       1 TUM         0.1764
      3 C8         26.3290    5.9380   36.2420 C.3       1 TUM         0.1197
      4 C13        28.0650    4.0340   35.0230 C.3       1 TUM         0.0925
      5 C15        29.3560    1.9410   35.6010 C.3       1 TUM         0.0864
      6 C17        30.6990    1.4240   36.0130 C.3       1 TUM         0.1164
      7 C20        32.4980    0.1570   35.2310 C.3       1 TUM         0.1387
      8 C22        31.5680    1.2070   34.8320 C.3       1 TUM         0.1148
      9 C26        30.2290   -3.0530   34.0580 C.2       1 TUM         0.0062
     10 O6         23.6140    5.2880   35.4540 O.2       1 TUM        -0.4012
     11 N7         25.1050    6.6580   36.5970 N.am      1 TUM        -0.2811
     12 C9         26.8690    6.2740   34.8610 C.3       1 TUM         0.1108
     13 O10        27.1130    7.6500   34.7680 O.3       1 TUM        -0.3867
     14 C11        28.1910    5.5220   34.6970 C.3       1 TUM         0.1095
     15 O12        29.1210    6.1080   35.5730 O.3       1 TUM        -0.3866
     16 C14        29.4650    3.4320   35.1960 C.3       1 TUM         0.0047
     17 O16        28.8730    1.1930   34.5100 O.3       1 TUM        -0.3891
     18 O18        30.5580    0.0800   36.6510 O.3       1 TUM        -0.3364
     19 C19        31.8010   -0.6620   36.2550 C.3       1 TUM         0.2059
     20 O21        33.6790    0.7690   35.8100 O.3       1 TUM        -0.3836
     21 O23        32.2920    2.4150   34.4770 O.3       1 TUM        -0.3864
     22 N24        31.4200   -1.9050   35.6830 N.am      1 TUM        -0.1592
     23 C25        30.6210   -1.8950   34.6370 C.2       1 TUM         0.0591
     24 C27        30.6570   -4.2320   34.5530 C.2       1 TUM         0.1822
     25 O28        30.3120   -5.2490   34.0460 O.2       1 TUM        -0.4124
     26 N29        31.4590   -4.2490   35.6020 N.am      1 TUM        -0.1865
     27 C30        31.8490   -3.0880   36.1830 C.2       1 TUM         0.3328
     28 O31        32.5690   -3.1090   37.1280 O.2       1 TUM        -0.3815
     29 O32        27.3600    3.8080   36.2220 O.3       1 TUM        -0.3429
     30 C33        26.1080    4.4240   36.2830 C.3       1 TUM         0.1876
     31 O34        25.4760    4.0780   37.4780 O.3       1 TUM        -0.3180
     32 C35        24.5950    2.9960   37.3040 C.3       1 TUM         0.1879
     33 O36        25.2900    1.8370   36.9210 O.3       1 TUM        -0.3407
     34 C37        26.1100    1.1800   37.8790 C.3       1 TUM         0.1130
     35 C38        26.4440   -0.1980   37.3580 C.3       1 TUM         0.0730
     36 O39        26.8230   -0.0950   36.0150 O.3       1 TUM        -0.3924
     37 C40        25.4100    1.0020   39.2290 C.3       1 TUM         0.1116
     38 O41        26.3310    0.5500   40.1780 O.3       1 TUM        -0.3865
     39 C42        24.8510    2.3380   39.6700 C.3       1 TUM         0.1111
     40 O43        24.2150    2.1960   40.9140 O.3       1 TUM        -0.3867
     41 C44        23.8610    2.7760   38.6130 C.3       1 TUM         0.1211
     42 N45        23.2450    4.0070   39.0640 N.am      1 TUM        -0.2766
     43 C46        22.2010    3.9180   40.0580 C.2       1 TUM         0.1733
     44 O47        21.8810    2.8650   40.4780 O.2       1 TUM        -0.3974
     45 C48        21.5310    5.1700   40.5800 C.3       1 TUM         0.0257
     46 C1         21.4130    6.4060   36.9580 C.2       1 TUM        -0.0596
     47 C2         20.1760    7.2140   37.3970 C.3       1 TUM        -0.0148
     48 C3         18.9930    6.2520   37.6490 C.3       1 TUM        -0.0396
     49 C6         17.6670    7.0320   37.6270 C.3       1 TUM        -0.0505
     50 C7         16.5330    6.1610   37.0510 C.3       1 TUM        -0.0529
     51 C10        15.5110    7.0810   36.3770 C.3       1 TUM        -0.0531
     52 C12        14.3610    6.2940   35.7340 C.3       1 TUM        -0.0530
     53 C16        13.1060    7.1750   35.7500 C.3       1 TUM        -0.0528
     54 C18        12.0320    6.6140   34.8060 C.3       1 TUM        -0.0507
     55 C21        10.6450    7.1000   35.2530 C.3       1 TUM        -0.0467
     56 C23        10.3450    8.4650   34.6270 C.3       1 TUM        -0.0627
     57 C24         9.5800    6.0960   34.8070 C.3       1 TUM        -0.0627
     58 H1         22.5662    8.1404   36.5941 H         1 TUM         0.0472
     59 H2         27.0953    6.2048   36.9846 H         1 TUM         0.0631
     60 H3         27.5426    3.5320   34.1954 H         1 TUM         0.0624
     61 H4         28.6572    1.8449   36.4451 H         1 TUM         0.0621
     62 H5         31.1679    2.1352   36.7089 H         1 TUM         0.0650
     63 H6         32.7791   -0.4629   34.3669 H         1 TUM         0.0676
     64 H7         30.9657    0.8802   33.9715 H         1 TUM         0.0648
     65 H8         29.5682   -3.0331   33.1926 H         1 TUM         0.0258
     66 H9         25.1804    7.4737   37.1706 H         1 TUM         0.1837
     67 H10        26.1523    5.9664   34.0853 H         1 TUM         0.0645
     68 H11        27.7510    7.9025   35.4250 H         1 TUM         0.2100
     69 H12        28.5389    5.6285   33.6589 H         1 TUM         0.0646
     70 H13        29.2300    7.0250   35.3502 H         1 TUM         0.2100
     71 H14        30.0041    3.9837   35.9803 H         1 TUM         0.0317
     72 H15        30.0154    3.5120   34.2470 H         1 TUM         0.0317
     73 H16        28.8064    0.2787   34.7591 H         1 TUM         0.2099
     74 H17        32.4513   -0.8258   37.1269 H         1 TUM         0.0997
     75 H18        34.2656    0.0899   36.1219 H         1 TUM         0.2101
     76 H19        32.7942    2.7135   35.2261 H         1 TUM         0.2100
     77 H20        30.2722   -0.9454   34.2339 H         1 TUM         0.1178
     78 H21        31.7800   -5.1220   35.9693 H         1 TUM         0.2259
     79 H22        25.4893    4.1087   35.4299 H         1 TUM         0.0935
     80 H23        23.8671    3.2451   36.5178 H         1 TUM         0.0935
     81 H24        27.0316    1.7631   38.0227 H         1 TUM         0.0647
     82 H25        25.5616   -0.8491   37.4437 H         1 TUM         0.0584
     83 H26        27.2721   -0.6236   37.9438 H         1 TUM         0.0584
     84 H27        27.5842    0.4689   35.9443 H         1 TUM         0.2095
     85 H28        24.5934    0.2717   39.1300 H         1 TUM         0.0647
     86 H29        25.8942    0.4404   41.0144 H         1 TUM         0.2100
     87 H30        25.6606    3.0778   39.7552 H         1 TUM         0.0645
     88 H31        23.5070    1.5674   40.8365 H         1 TUM         0.2100
     89 H32        23.0901    2.0034   38.4759 H         1 TUM         0.0633
     90 H33        23.5339    4.8917   38.6982 H         1 TUM         0.1857
     91 H34        20.7690    4.8950   41.3241 H         1 TUM         0.0467
     92 H35        21.0529    5.7049   39.7462 H         1 TUM         0.0467
     93 H36        22.2839    5.8203   41.0493 H         1 TUM         0.0467
     94 H37        21.3811    5.3175   36.9494 H         1 TUM         0.0846
     95 H38        19.9051    7.9282   36.6055 H         1 TUM         0.0488
     96 H39        20.4060    7.7621   38.3226 H         1 TUM         0.0488
     97 H40        19.1168    5.7716   38.6308 H         1 TUM         0.0296
     98 H41        18.9758    5.4821   36.8636 H         1 TUM         0.0296
     99 H42        17.7861    7.9294   37.0022 H         1 TUM         0.0267
    100 H43        17.4069    7.3314   38.6530 H         1 TUM         0.0267
    101 H44        16.0480    5.5985   37.8624 H         1 TUM         0.0265
    102 H45        16.9438    5.4576   36.3118 H         1 TUM         0.0265
    103 H46        16.0204    7.6656   35.5968 H         1 TUM         0.0265
    104 H47        15.0948    7.7629   37.1331 H         1 TUM         0.0265
    105 H48        14.1758    5.3726   36.3055 H         1 TUM         0.0265
    106 H49        14.6211    6.0362   34.6968 H         1 TUM         0.0265
    107 H50        13.3750    8.1913   35.4263 H         1 TUM         0.0265
    108 H51        12.7036    7.2104   36.7731 H         1 TUM         0.0265
    109 H52        12.0602    5.5147   34.8322 H         1 TUM         0.0268
    110 H53        12.2284    6.9615   33.7810 H         1 TUM         0.0268
    111 H54        10.6271    7.1894   36.3492 H         1 TUM         0.0295
    112 H55         9.3509    8.8065   34.9513 H         1 TUM         0.0232
    113 H56        10.3630    8.3776   33.5306 H         1 TUM         0.0232
    114 H57        11.1055    9.1914   34.9495 H         1 TUM         0.0232
    115 H58         9.7918    5.1138   35.2546 H         1 TUM         0.0232
    116 H59         9.5936    6.0098   33.7105 H         1 TUM         0.0232
    117 H60         8.5890    6.4425   35.1354 H         1 TUM         0.0232
@<TRIPOS>BOND
     1    2    1 1  
     2    1   46 2  
     3    2   10 2  
     4   11    2 am 
     5    3   11 1  
     6   12    3 1  
     7    3   30 1  
     8    4   14 1  
     9   16    4 1  
    10    4   29 1  
    11    6    5 1  
    12    5   16 1  
    13    5   17 1  
    14    6    8 1  
    15   18    6 1  
    16    7    8 1  
    17   19    7 1  
    18    7   20 1  
    19    8   21 1  
    20   23    9 2  
    21    9   24 1  
    22   12   13 1  
    23   14   12 1  
    24   14   15 1  
    25   19   18 1  
    26   22   19 1  
    27   22   23 1  
    28   22   27 am 
    29   24   25 2  
    30   24   26 am 
    31   26   27 am 
    32   27   28 2  
    33   29   30 1  
    34   30   31 1  
    35   31   32 1  
    36   32   33 1  
    37   32   41 1  
    38   33   34 1  
    39   34   35 1  
    40   34   37 1  
    41   35   36 1  
    42   37   38 1  
    43   37   39 1  
    44   39   40 1  
    45   39   41 1  
    46   41   42 1  
    47   42   43 am 
    48   43   44 2  
    49   43   45 1  
    50   46   47 1  
    51   47   48 1  
    52   48   49 1  
    53   49   50 1  
    54   50   51 1  
    55   51   52 1  
    56   52   53 1  
    57   53   54 1  
    58   54   55 1  
    59   55   56 1  
    60   55   57 1  
    61    1   58 1  
    62    3   59 1  
    63    4   60 1  
    64    5   61 1  
    65    6   62 1  
    66    7   63 1  
    67    8   64 1  
    68    9   65 1  
    69   11   66 1  
    70   12   67 1  
    71   13   68 1  
    72   14   69 1  
    73   15   70 1  
    74   16   71 1  
    75   16   72 1  
    76   17   73 1  
    77   19   74 1  
    78   20   75 1  
    79   21   76 1  
    80   23   77 1  
    81   26   78 1  
    82   30   79 1  
    83   32   80 1  
    84   34   81 1  
    85   35   82 1  
    86   35   83 1  
    87   36   84 1  
    88   37   85 1  
    89   38   86 1  
    90   39   87 1  
    91   40   88 1  
    92   41   89 1  
    93   42   90 1  
    94   45   91 1  
    95   45   92 1  
    96   45   93 1  
    97   46   94 1  
    98   47   95 1  
    99   47   96 1  
   100   48   97 1  
   101   48   98 1  
   102   49   99 1  
   103   49  100 1  
   104   50  101 1  
   105   50  102 1  
   106   51  103 1  
   107   51  104 1  
   108   52  105 1  
   109   52  106 1  
   110   53  107 1  
   111   53  108 1  
   112   54  109 1  
   113   54  110 1  
   114   55  111 1  
   115   56  112 1  
   116   56  113 1  
   117   56  114 1  
   118   57  115 1  
   119   57  116 1  
   120   57  117 1  
@<TRIPOS>SUBSTRUCTURE
     1 TUM         1

