### 
### Created by X-TOOL on Wed Jan  1 15:39:38 2020
### 

@<TRIPOS>MOLECULE
6bw8_ligand
   88    94     1     0     0
SMALL
GAST_HUCK


@<TRIPOS>ATOM
      1 C10        13.1590   29.1850   33.4570 C.3       1 ECM         0.0716
      2 C13        15.0880   31.6770   34.7490 C.2       1 ECM        -0.0212
      3 C15        13.9210   34.0110   35.5330 C.2       1 ECM         0.2438
      4 C17        13.9030   36.5720   35.8220 C.ar      1 ECM         0.0908
      5 C20        12.5280   39.0290   35.9670 C.ar      1 ECM        -0.0913
      6 C21        13.6210   38.8710   35.0860 C.ar      1 ECM        -0.0266
      7 C22        14.3300   37.6560   34.9990 C.ar      1 ECM         0.0947
      8 C24        16.3090   36.9070   33.5960 C.3       1 ECM         0.0410
      9 C26        14.2350   39.7700   34.1550 C.2       1 ECM         0.0050
     10 C01        15.6010   24.6110   30.5440 C.3       1 ECM        -0.0345
     11 C02        15.1420   25.2360   31.8440 C.ar      1 ECM        -0.0474
     12 C03        14.8620   24.4430   32.9490 C.ar      1 ECM         0.0295
     13 C05        14.4450   25.0340   34.1290 C.ar      1 ECM        -0.0474
     14 C06        14.1380   24.1230   35.3330 C.3       1 ECM        -0.0345
     15 C07        14.3050   26.4230   34.2130 C.ar      1 ECM        -0.0385
     16 C08        14.5830   27.2120   33.1000 C.ar      1 ECM         0.0784
     17 C11        13.1570   30.7420   33.2900 C.3       1 ECM        -0.0186
     18 C12        14.5630   31.4280   33.3290 C.3       1 ECM        -0.0268
     19 C14        14.7970   32.7410   35.6490 C.2       1 ECM         0.1350
     20 C18        12.8270   36.7500   36.7050 C.ar      1 ECM        -0.0562
     21 C19        12.1290   37.9780   36.7750 C.ar      1 ECM        -0.0950
     22 C25        15.2630   39.0610   33.5680 C.2       1 ECM         0.0402
     23 C27        13.8320   41.2350   33.8700 C.2       1 ECM         0.0381
     24 C30        15.9160   35.1950   36.2990 C.3       1 ECM         0.0561
     25 C31        15.9970   34.8320   37.7610 C.3       1 ECM        -0.0017
     26 C32        15.3420   33.4870   37.8850 C.3       1 ECM         0.0506
     27 C35        16.2180   31.4040   36.7040 C.ar      1 ECM         0.0667
     28 C36        16.0150   30.8270   35.4620 C.ar      1 ECM        -0.0169
     29 C37        16.6630   29.6260   35.1170 C.ar      1 ECM        -0.0782
     30 C38        17.5270   29.0040   36.0360 C.ar      1 ECM        -0.0717
     31 C39        17.7400   29.5930   37.2950 C.ar      1 ECM         0.0228
     32 C41        17.1000   30.7760   37.6370 C.ar      1 ECM        -0.0057
     33 C42        17.3280   31.4390   39.0220 C.2       1 ECM         0.0028
     34 C43        18.1830   32.5680   39.3150 C.2       1 ECM         0.0755
     35 C44        19.0800   33.3220   38.3270 C.3       1 ECM         0.0007
     36 C46        18.7520   33.8670   41.2980 C.3       1 ECM         0.0567
     37 C48        16.7190   31.1290   40.2500 C.2       1 ECM         0.0052
     38 C49        15.7100   30.0130   40.5070 C.3       1 ECM        -0.0288
     39 C50        15.0040   26.6150   31.9190 C.ar      1 ECM        -0.0385
     40 N16        14.5700   35.2390   35.8550 N.am      1 ECM        -0.2222
     41 N23        15.3030   37.8290   34.0730 N.pl3     1 ECM        -0.2661
     42 N34        15.4730   32.5640   36.7660 N.pl3     1 ECM        -0.2630
     43 N45        18.0510   32.8160   40.5940 N.pl3     1 ECM        -0.2130
     44 N47        17.2050   31.9860   41.1500 N.2       1 ECM        -0.2368
     45 O09        14.4610   28.6550   33.1550 O.3       1 ECM        -0.3210
     46 O28        14.3270   42.1630   34.5580 O.co2     1 ECM        -0.5716
     47 O29        13.0080   41.4910   32.9610 O.co2     1 ECM        -0.5716
     48 O33        12.7960   33.9720   35.1550 O.2       1 ECM        -0.3815
     49 CL04       15.0250   22.6850   32.8810 Cl        1 ECM        -0.0937
     50 CL40       18.8060   28.8300   38.4270 Cl        1 ECM        -0.0859
     51 H1         12.4197   28.7451   32.7715 H         1 ECM         0.0615
     52 H2         12.8947   28.9304   34.4940 H         1 ECM         0.0615
     53 H3         12.0007   39.9751   36.0104 H         1 ECM         0.0387
     54 H4         16.9305   37.4034   32.8361 H         1 ECM         0.0568
     55 H5         15.8195   36.0277   33.1520 H         1 ECM         0.0568
     56 H6         16.9426   36.5884   34.4368 H         1 ECM         0.0568
     57 H7         15.7692   25.4006   29.7969 H         1 ECM         0.0390
     58 H8         14.8292   23.9181   30.1777 H         1 ECM         0.0390
     59 H9         16.5381   24.0602   30.7127 H         1 ECM         0.0390
     60 H10        13.8213   24.7390   36.1875 H         1 ECM         0.0390
     61 H11        15.0412   23.5567   35.6041 H         1 ECM         0.0390
     62 H12        13.3323   23.4230   35.0671 H         1 ECM         0.0390
     63 H13        13.9817   26.8829   35.1398 H         1 ECM         0.0424
     64 H14        12.5497   31.1687   34.1018 H         1 ECM         0.0309
     65 H15        12.6921   30.9779   32.3214 H         1 ECM         0.0309
     66 H16        15.2798   30.7811   32.8021 H         1 ECM         0.0381
     67 H17        14.4920   32.3954   32.8103 H         1 ECM         0.0381
     68 H18        12.5248   35.9299   37.3462 H         1 ECM         0.0389
     69 H19        11.2915   38.0949   37.4533 H         1 ECM         0.0474
     70 H20        15.9388   39.4495   32.8076 H         1 ECM         0.1005
     71 H21        16.4630   34.4427   35.7117 H         1 ECM         0.0585
     72 H22        16.3758   36.1829   36.1486 H         1 ECM         0.0585
     73 H23        15.4630   35.5758   38.3706 H         1 ECM         0.0315
     74 H24        17.0469   34.7781   38.0848 H         1 ECM         0.0315
     75 H25        14.2673   33.6585   38.0451 H         1 ECM         0.0593
     76 H26        15.7704   32.9934   38.7697 H         1 ECM         0.0593
     77 H27        16.4961   29.1805   34.1430 H         1 ECM         0.0492
     78 H28        18.0252   28.0771   35.7757 H         1 ECM         0.0503
     79 H29        18.9749   32.8798   37.3253 H         1 ECM         0.0453
     80 H30        20.1280   33.2473   38.6526 H         1 ECM         0.0453
     81 H31        18.7808   34.3800   38.2939 H         1 ECM         0.0453
     82 H32        18.4596   33.8563   42.3584 H         1 ECM         0.0591
     83 H33        18.4929   34.8404   40.8561 H         1 ECM         0.0591
     84 H34        19.8366   33.7037   41.2152 H         1 ECM         0.0591
     85 H35        15.4159   30.0215   41.5669 H         1 ECM         0.0379
     86 H36        16.1658   29.0427   40.2608 H         1 ECM         0.0379
     87 H37        14.8210   30.1705   39.8786 H         1 ECM         0.0379
     88 H38        15.2256   27.2280   31.0529 H         1 ECM         0.0424
@<TRIPOS>BOND
     1   17    1 1  
     2    1   45 1  
     3    2   18 1  
     4   19    2 2  
     5    2   28 1  
     6    3   19 1  
     7   40    3 am 
     8    3   48 2  
     9    4    7 ar 
    10    4   20 ar 
    11   40    4 1  
    12    6    5 ar 
    13   21    5 ar 
    14    7    6 ar 
    15    6    9 1  
    16    7   41 1  
    17   41    8 1  
    18   22    9 2  
    19    9   23 1  
    20   11   10 1  
    21   11   12 ar 
    22   39   11 ar 
    23   13   12 ar 
    24   12   49 1  
    25   13   14 1  
    26   15   13 ar 
    27   16   15 ar 
    28   16   39 ar 
    29   45   16 1  
    30   18   17 1  
    31   19   42 1  
    32   20   21 ar 
    33   41   22 1  
    34   23   46 ar 
    35   23   47 ar 
    36   24   25 1  
    37   24   40 1  
    38   25   26 1  
    39   26   42 1  
    40   28   27 ar 
    41   27   32 ar 
    42   27   42 1  
    43   28   29 ar 
    44   29   30 ar 
    45   30   31 ar 
    46   31   32 ar 
    47   31   50 1  
    48   32   33 1  
    49   33   34 2  
    50   33   37 1  
    51   34   35 1  
    52   34   43 1  
    53   43   36 1  
    54   37   38 1  
    55   37   44 2  
    56   43   44 1  
    57    1   51 1  
    58    1   52 1  
    59    5   53 1  
    60    8   54 1  
    61    8   55 1  
    62    8   56 1  
    63   10   57 1  
    64   10   58 1  
    65   10   59 1  
    66   14   60 1  
    67   14   61 1  
    68   14   62 1  
    69   15   63 1  
    70   17   64 1  
    71   17   65 1  
    72   18   66 1  
    73   18   67 1  
    74   20   68 1  
    75   21   69 1  
    76   22   70 1  
    77   24   71 1  
    78   24   72 1  
    79   25   73 1  
    80   25   74 1  
    81   26   75 1  
    82   26   76 1  
    83   29   77 1  
    84   30   78 1  
    85   35   79 1  
    86   35   80 1  
    87   35   81 1  
    88   36   82 1  
    89   36   83 1  
    90   36   84 1  
    91   38   85 1  
    92   38   86 1  
    93   38   87 1  
    94   39   88 1  
@<TRIPOS>SUBSTRUCTURE
     1 ECM         1

