### 
### Created by X-TOOL on Wed Jan  1 15:39:38 2020
### 

@<TRIPOS>MOLECULE
6bx6_ligand
   52    54     1     0     0
SMALL
GAST_HUCK


@<TRIPOS>ATOM
      1 C4         52.1510  -42.1640   33.1020 C.ar      1 EDJ         0.2046
      2 C5         52.8540  -43.3410   33.3130 C.ar      1 EDJ         0.0836
      3 C6         54.0930  -43.4750   32.7170 C.ar      1 EDJ         0.0144
      4 N1         54.5720  -42.4270   31.9380 N.ar      1 EDJ        -0.2626
      5 N3         52.6550  -41.1800   32.3460 N.ar      1 EDJ        -0.2192
      6 CAB        49.9380  -36.9760   30.4030 C.3       1 EDJ         0.0562
      7 OAR        50.5670  -37.4960   31.5740 O.3       1 EDJ        -0.3306
      8 CBA        51.8810  -37.7310   31.3330 C.ar      1 EDJ         0.1027
      9 CAL        52.4390  -39.0030   31.3060 C.ar      1 EDJ        -0.0285
     10 CBE        52.6810  -36.6280   31.1130 C.ar      1 EDJ         0.1352
     11 OAT        52.1220  -35.3920   31.1530 O.3       1 EDJ        -0.3367
     12 CAD        52.3100  -34.6910   29.9250 C.3       1 EDJ         0.0518
     13 CBB        54.0340  -36.7620   30.8680 C.ar      1 EDJ         0.1027
     14 OAS        54.7400  -35.6230   30.6600 O.3       1 EDJ        -0.3306
     15 CAC        54.7700  -34.8260   31.8470 C.3       1 EDJ         0.0562
     16 CAM        54.6000  -38.0250   30.8310 C.ar      1 EDJ        -0.0285
     17 CAW        53.8020  -39.1430   31.0550 C.ar      1 EDJ         0.0385
     18 NAQ        54.3610  -40.3460   31.0160 N.pl3     1 EDJ        -0.2527
     19 C2         53.8550  -41.3120   31.7710 C.ar      1 EDJ         0.1997
     20 BR5        52.1770  -44.7280   34.3630 Br        1 EDJ        -0.0516
     21 OAU        50.9380  -42.0610   33.7040 O.3       1 EDJ        -0.2267
     22 CAZ        49.9900  -42.6400   32.9280 C.ar      1 EDJ         0.1455
     23 CAI        50.1880  -43.8670   32.3160 C.ar      1 EDJ        -0.0205
     24 CAG        49.1770  -44.4050   31.5320 C.ar      1 EDJ        -0.0644
     25 CAH        47.9840  -43.7160   31.3700 C.ar      1 EDJ        -0.0659
     26 CAJ        47.7960  -42.4880   31.9890 C.ar      1 EDJ        -0.0487
     27 CBC        48.8020  -41.9410   32.7730 C.ar      1 EDJ         0.0845
     28 CAV        48.5930  -40.7080   33.3840 C.2       1 EDJ         0.2003
     29 OAE        47.4600  -40.2410   33.4670 O.2       1 EDJ        -0.3903
     30 NAP        49.6880  -40.0890   33.8440 N.am      1 EDJ        -0.2909
     31 CAA        49.4940  -38.7830   34.4890 C.3       1 EDJ         0.0188
     32 H1         54.6789  -44.3768   32.8534 H         1 EDJ         0.0888
     33 H2         48.8739  -36.7896   30.6104 H         1 EDJ         0.0572
     34 H3         50.0297  -37.7040   29.5835 H         1 EDJ         0.0572
     35 H4         50.4255  -36.0336   30.1126 H         1 EDJ         0.0572
     36 H5         51.8208  -39.8766   31.4783 H         1 EDJ         0.0346
     37 H6         51.8448  -33.6967   29.9955 H         1 EDJ         0.0564
     38 H7         51.8437  -35.2566   29.1048 H         1 EDJ         0.0564
     39 H8         53.3863  -34.5791   29.7277 H         1 EDJ         0.0564
     40 H9         55.3463  -33.9083   31.6580 H         1 EDJ         0.0572
     41 H10        55.2443  -35.3960   32.6595 H         1 EDJ         0.0572
     42 H11        53.7425  -34.5606   32.1365 H         1 EDJ         0.0572
     43 H12        55.6585  -38.1424   30.6287 H         1 EDJ         0.0346
     44 H13        55.1739  -40.5264   30.4098 H         1 EDJ         0.2156
     45 H14        51.1221  -44.4009   32.4480 H         1 EDJ         0.0571
     46 H15        49.3196  -45.3635   31.0463 H         1 EDJ         0.0628
     47 H16        47.1955  -44.1383   30.7576 H         1 EDJ         0.0546
     48 H17        46.8610  -41.9549   31.8597 H         1 EDJ         0.0644
     49 H18        50.5964  -40.4971   33.7527 H         1 EDJ         0.1837
     50 H19        50.4667  -38.3884   34.8179 H         1 EDJ         0.0483
     51 H20        48.8319  -38.8988   35.3598 H         1 EDJ         0.0483
     52 H21        49.0383  -38.0841   33.7722 H         1 EDJ         0.0483
@<TRIPOS>BOND
     1    1    2 ar 
     2    5    1 ar 
     3    1   21 1  
     4    3    2 ar 
     5    2   20 1  
     6    4    3 ar 
     7   19    4 ar 
     8   19    5 ar 
     9    7    6 1  
    10    8    7 1  
    11    9    8 ar 
    12    8   10 ar 
    13   17    9 ar 
    14   10   11 1  
    15   13   10 ar 
    16   11   12 1  
    17   13   14 1  
    18   16   13 ar 
    19   14   15 1  
    20   17   16 ar 
    21   18   17 1  
    22   18   19 1  
    23   21   22 1  
    24   22   23 ar 
    25   22   27 ar 
    26   23   24 ar 
    27   24   25 ar 
    28   25   26 ar 
    29   26   27 ar 
    30   27   28 1  
    31   28   29 2  
    32   28   30 am 
    33   30   31 1  
    34    3   32 1  
    35    6   33 1  
    36    6   34 1  
    37    6   35 1  
    38    9   36 1  
    39   12   37 1  
    40   12   38 1  
    41   12   39 1  
    42   15   40 1  
    43   15   41 1  
    44   15   42 1  
    45   16   43 1  
    46   18   44 1  
    47   23   45 1  
    48   24   46 1  
    49   25   47 1  
    50   26   48 1  
    51   30   49 1  
    52   31   50 1  
    53   31   51 1  
    54   31   52 1  
@<TRIPOS>SUBSTRUCTURE
     1 EDJ         1

