### 
### Created by X-TOOL on Mon Aug  2 16:12:42 2021
### 

@<TRIPOS>MOLECULE
6bxy_ligand
   73    78     1     0     0
SMALL
GAST_HUCK


@<TRIPOS>ATOM
      1 C4        -11.8340   -8.0170  -11.7390 C.ar      1 EEV         0.1043
      2 C5        -11.4360   -9.3040  -11.5820 C.ar      1 EEV         0.0333
      3 C6        -12.3680  -10.1980  -11.1110 C.ar      1 EEV         0.1217
      4 N1        -13.6000   -9.8040  -10.7460 N.ar      1 EEV        -0.2688
      5 N3        -13.0710   -7.6040  -11.3570 N.ar      1 EEV        -0.2823
      6 C2        -14.0110   -8.5000  -10.8480 C.ar      1 EEV         0.0546
      7 CAA       -16.5450  -17.6310  -11.1210 C.3       1 EEV        -0.0352
      8 CAG       -15.8800  -22.3230  -13.8200 C.1       1 EEV         0.1077
      9 CAI       -13.0140  -18.4470  -10.3440 C.ar      1 EEV        -0.0701
     10 CAJ       -12.8920  -19.6650  -11.0670 C.ar      1 EEV        -0.0484
     11 CAK       -10.1440   -9.5070  -11.9940 C.2       1 EEV        -0.0561
     12 CAL       -16.0300  -20.1870  -12.5390 C.2       1 EEV        -0.0214
     13 CAM       -12.9650  -13.7210  -11.7130 C.3       1 EEV         0.0110
     14 CAN       -12.5990  -13.2580   -9.2880 C.3       1 EEV         0.0110
     15 CAO       -13.8840  -14.9450  -11.2520 C.3       1 EEV        -0.0286
     16 CAP       -13.6080  -14.3540   -8.9540 C.3       1 EEV        -0.0286
     17 CAQ       -14.0670  -24.6990  -10.2380 C.3       1 EEV         0.1371
     18 CAR       -11.6560  -24.1070  -11.7060 C.3       1 EEV         0.0598
     19 CAS       -14.3300  -16.5340   -9.5500 C.3       1 EEV        -0.0057
     20 CAT        -8.0510   -8.2450  -12.8730 C.3       1 EEV         0.0918
     21 CAU       -13.0330  -22.2650  -12.7730 C.3       1 EEV         0.0791
     22 CBB       -12.8500  -25.3570   -9.9540 C.2       1 EEV         0.2022
     23 CBC       -15.3130  -18.3110  -11.0570 C.ar      1 EEV        -0.0411
     24 CBD        -9.5190   -8.3930  -12.3950 C.2       1 EEV         0.0295
     25 CBE       -15.3570  -21.2790  -12.9540 C.2       1 EEV         0.1737
     26 CBF       -14.2340  -17.7670  -10.3250 C.ar      1 EEV        -0.0077
     27 CBH       -15.1640  -19.4570  -11.7710 C.ar      1 EEV        -0.0064
     28 CBK       -13.9630  -20.1230  -11.7780 C.ar      1 EEV         0.0648
     29 CBL       -12.9800  -12.5950  -10.6580 C.3       1 EEV         0.0502
     30 CBM       -12.9270  -23.2230  -11.5680 C.3       1 EEV         0.1074
     31 CBP        -7.1630   -7.6720  -11.6650 C.3       1 EEV         0.4027
     32 FAD        -7.5060   -6.5230  -11.3260 F         1 EEV        -0.1681
     33 FAE        -7.2880   -8.3370  -10.5420 F         1 EEV        -0.1681
     34 FAF        -5.8250   -7.6000  -12.0490 F         1 EEV        -0.1681
     35 NAB       -16.2720  -23.1320  -14.4760 N.1       1 EEV        -0.3454
     36 NAX       -11.6480  -25.0910  -10.5830 N.am      1 EEV        -0.2825
     37 NAY       -12.0390  -11.5060  -11.0160 N.pl3     1 EEV        -0.2990
     38 NBN       -13.5040  -15.4920   -9.9270 N.4       1 EEV         0.2447
     39 NBO       -14.0990  -21.2470  -12.5190 N.pl3     1 EEV        -0.2461
     40 OAC       -12.8090  -26.1760   -9.0300 O.2       1 EEV        -0.3945
     41 OAZ       -14.0510  -23.9630  -11.4770 O.3       1 EEV        -0.3517
     42 SBA       -10.5770   -7.0580  -12.3040 S.3       1 EEV        -0.0086
     43 H1        -15.0049   -8.1849  -10.5514 H         1 EEV         0.0981
     44 H2        -16.4999  -16.7305  -10.4908 H         1 EEV         0.0380
     45 H3        -17.3474  -18.2912  -10.7602 H         1 EEV         0.0380
     46 H4        -16.7497  -17.3402  -12.1619 H         1 EEV         0.0380
     47 H5        -12.1612  -18.0464   -9.8080 H         1 EEV         0.0517
     48 H6        -11.9620  -20.2217  -11.0537 H         1 EEV         0.0479
     49 H7         -9.6687  -10.4868  -11.9949 H         1 EEV         0.0290
     50 H8        -17.0637  -19.9345  -12.7704 H         1 EEV         0.0531
     51 H9        -13.3433  -13.3257  -12.6673 H         1 EEV         0.0340
     52 H10       -11.9324  -14.0759  -11.8466 H         1 EEV         0.0340
     53 H11       -11.5925  -13.6960   -9.3602 H         1 EEV         0.0340
     54 H12       -12.6109  -12.4950   -8.4958 H         1 EEV         0.0340
     55 H13       -13.7987  -15.7476  -11.9994 H         1 EEV         0.0815
     56 H14       -14.9272  -14.5999  -11.2019 H         1 EEV         0.0815
     57 H15       -14.6237  -13.9341   -8.9982 H         1 EEV         0.0815
     58 H16       -13.4099  -14.7288   -7.9390 H         1 EEV         0.0815
     59 H17       -14.2815  -23.9964   -9.4193 H         1 EEV         0.0804
     60 H18       -14.8656  -25.4535  -10.2924 H         1 EEV         0.0804
     61 H19       -10.7563  -23.4762  -11.6547 H         1 EEV         0.0546
     62 H20       -11.6758  -24.6401  -12.6680 H         1 EEV         0.0546
     63 H21       -14.0973  -16.7804   -8.5035 H         1 EEV         0.0940
     64 H22       -15.3681  -16.1772   -9.6206 H         1 EEV         0.0940
     65 H23        -8.0086   -7.5493  -13.7240 H         1 EEV         0.0558
     66 H24        -7.6631   -9.2268  -13.1823 H         1 EEV         0.0558
     67 H25       -13.2854  -22.8404  -13.6759 H         1 EEV         0.0621
     68 H26       -12.0693  -21.7555  -12.9203 H         1 EEV         0.0621
     69 H27       -13.9928  -12.1714  -10.5895 H         1 EEV         0.0564
     70 H28       -12.8323  -22.6253  -10.6494 H         1 EEV         0.0645
     71 H29       -10.8028  -25.5418  -10.2959 H         1 EEV         0.1852
     72 H30       -11.0607  -11.7658  -11.2067 H         1 EEV         0.1854
     73 H31       -12.5540  -15.8274   -9.9595 H         1 EEV         0.2044
@<TRIPOS>BOND
     1    2    1 ar 
     2    1    5 ar 
     3    1   42 1  
     4    3    2 ar 
     5    2   11 1  
     6    3    4 ar 
     7   37    3 1  
     8    4    6 ar 
     9    6    5 ar 
    10   23    7 1  
    11   25    8 1  
    12    8   35 3  
    13    9   10 ar 
    14   26    9 ar 
    15   10   28 ar 
    16   11   24 2  
    17   12   25 2  
    18   27   12 1  
    19   13   15 1  
    20   29   13 1  
    21   14   16 1  
    22   29   14 1  
    23   15   38 1  
    24   16   38 1  
    25   22   17 1  
    26   17   41 1  
    27   30   18 1  
    28   18   36 1  
    29   19   26 1  
    30   38   19 1  
    31   24   20 1  
    32   20   31 1  
    33   21   30 1  
    34   39   21 1  
    35   36   22 am 
    36   22   40 2  
    37   26   23 ar 
    38   23   27 ar 
    39   24   42 1  
    40   39   25 1  
    41   27   28 ar 
    42   28   39 1  
    43   29   37 1  
    44   30   41 1  
    45   31   32 1  
    46   31   33 1  
    47   31   34 1  
    48    6   43 1  
    49    7   44 1  
    50    7   45 1  
    51    7   46 1  
    52    9   47 1  
    53   10   48 1  
    54   11   49 1  
    55   12   50 1  
    56   13   51 1  
    57   13   52 1  
    58   14   53 1  
    59   14   54 1  
    60   15   55 1  
    61   15   56 1  
    62   16   57 1  
    63   16   58 1  
    64   17   59 1  
    65   17   60 1  
    66   18   61 1  
    67   18   62 1  
    68   19   63 1  
    69   19   64 1  
    70   20   65 1  
    71   20   66 1  
    72   21   67 1  
    73   21   68 1  
    74   29   69 1  
    75   30   70 1  
    76   36   71 1  
    77   37   72 1  
    78   38   73 1  
@<TRIPOS>SUBSTRUCTURE
     1 EEV         1

