### 
### Created by X-TOOL on Mon Aug  2 16:12:42 2021
### 

@<TRIPOS>MOLECULE
6by8_ligand
   73    78     1     0     0
SMALL
GAST_HUCK


@<TRIPOS>ATOM
      1 C4         13.3220    7.6640   12.5500 C.ar      1 FNV         0.1043
      2 C5         13.6110    8.9910   12.4060 C.ar      1 FNV         0.0333
      3 C6         12.6110    9.8380   12.0150 C.ar      1 FNV         0.1217
      4 N1         11.3780    9.3910   11.7710 N.ar      1 FNV        -0.2688
      5 N3         12.0860    7.1810   12.3220 N.ar      1 FNV        -0.2823
      6 C2         11.0710    8.0350   11.9190 C.ar      1 FNV         0.0546
      7 CAA         8.1200   17.0900   12.0750 C.3       1 FNV        -0.0352
      8 CAG         8.5490   21.8710   14.5320 C.1       1 FNV         0.1077
      9 CAI        11.5170   18.1190   11.1350 C.ar      1 FNV        -0.0701
     10 CAJ        11.5510   19.3390   11.8120 C.ar      1 FNV        -0.0484
     11 CAK        14.9200    9.2590   12.6870 C.2       1 FNV        -0.0561
     12 CAL         8.4910   19.6990   13.3510 C.2       1 FNV        -0.0214
     13 CAM        12.0610   12.7510   10.0940 C.3       1 FNV         0.0110
     14 CAN        11.8920   13.3380   12.5100 C.3       1 FNV         0.0110
     15 CAO        11.0910   13.9430    9.8230 C.3       1 FNV        -0.0286
     16 CAP        10.8880   14.4560   12.1200 C.3       1 FNV        -0.0286
     17 CAQ        10.6940   23.6970   10.1360 C.3       1 FNV         0.1371
     18 CAR        11.9840   24.2540   12.6420 C.3       1 FNV         0.0598
     19 CAS        10.3410   16.0620   10.5120 C.3       1 FNV        -0.0057
     20 CAT        17.1490    8.1870   13.4000 C.3       1 FNV         0.0918
     21 CAU        11.2730   22.0250   13.4110 C.3       1 FNV         0.0791
     22 CBB        11.3550   24.9190   10.3270 C.2       1 FNV         0.2022
     23 CBC         9.3040   17.8220   11.9560 C.ar      1 FNV        -0.0411
     24 CBD        15.6480    8.1780   13.0470 C.2       1 FNV         0.0295
     25 CBE         9.0880   20.8420   13.7130 C.2       1 FNV         0.1737
     26 CBF        10.3840   17.3090   11.2080 C.ar      1 FNV        -0.0077
     27 CBH         9.3840   19.0160   12.5960 C.ar      1 FNV        -0.0064
     28 CBK        10.4990   19.7640   12.5230 C.ar      1 FNV         0.0648
     29 CBL        11.8280   12.1710   11.5150 C.3       1 FNV         0.0502
     30 CBM        10.9810   23.1530   12.4150 C.3       1 FNV         0.1074
     31 CBP        17.9720    7.6350   12.2040 C.3       1 FNV         0.4027
     32 FAD        17.7500    8.3390   11.1100 F         1 FNV        -0.1681
     33 FAE        19.2150    7.6620   12.4740 F         1 FNV        -0.1681
     34 FAF        17.6320    6.3930   11.9460 F         1 FNV        -0.1681
     35 NAB         8.1550   22.7070   15.1630 N.1       1 FNV        -0.3454
     36 NAX        11.9600   25.2320   11.5410 N.am      1 FNV        -0.2825
     37 NAY        12.8700   11.1640   11.8760 N.pl3     1 FNV        -0.2990
     38 NBN        11.2140   15.0450   10.8100 N.4       1 FNV         0.2447
     39 NBO        10.3110   20.8910   13.2200 N.pl3     1 FNV        -0.2461
     40 OAC        11.3700   25.7630    9.4350 O.2       1 FNV        -0.3945
     41 OAZ        11.1360   22.6910   11.0580 O.3       1 FNV        -0.3517
     42 SBA        14.6850    6.8180   13.0610 S.3       1 FNV        -0.0086
     43 H1         10.0714    7.6634   11.7249 H         1 FNV         0.0981
     44 H2          8.2090   16.1536   11.5047 H         1 FNV         0.0380
     45 H3          7.2816   17.6820   11.6793 H         1 FNV         0.0380
     46 H4          7.9372   16.8580   13.1346 H         1 FNV         0.0380
     47 H5         12.3730   17.8003   10.5512 H         1 FNV         0.0517
     48 H6         12.4434   19.9523   11.7614 H         1 FNV         0.0479
     49 H7         15.3428   10.2607   12.6262 H         1 FNV         0.0290
     50 H8          7.4831   19.3807   13.6130 H         1 FNV         0.0531
     51 H9         13.0996   13.1042   10.0133 H         1 FNV         0.0340
     52 H10        11.8827   11.9627    9.3478 H         1 FNV         0.0340
     53 H11        11.6451   12.9673   13.5158 H         1 FNV         0.0340
     54 H12        12.9105   13.7536   12.5122 H         1 FNV         0.0340
     55 H13        10.0585   13.5646    9.8511 H         1 FNV         0.0815
     56 H14        11.3066   14.3464    8.8226 H         1 FNV         0.0815
     57 H15        10.9193   15.2464   12.8844 H         1 FNV         0.0815
     58 H16         9.8758   14.0276   12.0767 H         1 FNV         0.0815
     59 H17        10.8862   23.3469    9.1111 H         1 FNV         0.0804
     60 H18         9.6139   23.8534   10.2736 H         1 FNV         0.0804
     61 H19        12.9901   23.8145   12.7095 H         1 FNV         0.0546
     62 H20        11.7447   24.7687   13.5842 H         1 FNV         0.0546
     63 H21        10.4879   16.2954    9.4471 H         1 FNV         0.0940
     64 H22         9.3294   15.6570   10.6625 H         1 FNV         0.0940
     65 H23        17.3204    7.5554   14.2841 H         1 FNV         0.0558
     66 H24        17.4671    9.2172   13.6181 H         1 FNV         0.0558
     67 H25        11.1756   22.4131   14.4356 H         1 FNV         0.0621
     68 H26        12.2985   21.6597   13.2532 H         1 FNV         0.0621
     69 H27        10.8370   11.6955   11.5579 H         1 FNV         0.0564
     70 H28         9.9584   23.5286   12.5676 H         1 FNV         0.0645
     71 H29        12.3824   26.1296   11.6668 H         1 FNV         0.1852
     72 H30        13.8346   11.4919   12.0273 H         1 FNV         0.1854
     73 H31        12.1557   15.4046   10.8141 H         1 FNV         0.2044
@<TRIPOS>BOND
     1    2    1 ar 
     2    1    5 ar 
     3    1   42 1  
     4    3    2 ar 
     5    2   11 1  
     6    3    4 ar 
     7   37    3 1  
     8    4    6 ar 
     9    6    5 ar 
    10   23    7 1  
    11   25    8 1  
    12    8   35 3  
    13    9   10 ar 
    14   26    9 ar 
    15   10   28 ar 
    16   11   24 2  
    17   12   25 2  
    18   27   12 1  
    19   13   15 1  
    20   29   13 1  
    21   14   16 1  
    22   29   14 1  
    23   15   38 1  
    24   16   38 1  
    25   22   17 1  
    26   17   41 1  
    27   30   18 1  
    28   18   36 1  
    29   19   26 1  
    30   38   19 1  
    31   24   20 1  
    32   20   31 1  
    33   21   30 1  
    34   39   21 1  
    35   36   22 am 
    36   22   40 2  
    37   26   23 ar 
    38   23   27 ar 
    39   24   42 1  
    40   39   25 1  
    41   27   28 ar 
    42   28   39 1  
    43   29   37 1  
    44   30   41 1  
    45   31   32 1  
    46   31   33 1  
    47   31   34 1  
    48    6   43 1  
    49    7   44 1  
    50    7   45 1  
    51    7   46 1  
    52    9   47 1  
    53   10   48 1  
    54   11   49 1  
    55   12   50 1  
    56   13   51 1  
    57   13   52 1  
    58   14   53 1  
    59   14   54 1  
    60   15   55 1  
    61   15   56 1  
    62   16   57 1  
    63   16   58 1  
    64   17   59 1  
    65   17   60 1  
    66   18   61 1  
    67   18   62 1  
    68   19   63 1  
    69   19   64 1  
    70   20   65 1  
    71   20   66 1  
    72   21   67 1  
    73   21   68 1  
    74   29   69 1  
    75   30   70 1  
    76   36   71 1  
    77   37   72 1  
    78   38   73 1  
@<TRIPOS>SUBSTRUCTURE
     1 FNV         1

