### 
### Created by X-TOOL on Mon Aug  2 16:17:03 2021
### 

@<TRIPOS>MOLECULE
6byk_ligand
   71    71     1     0     0
SMALL
GAST_HUCK


@<TRIPOS>ATOM
      1 N          -7.5740    4.3130    1.6930 N.4       1 PRO         0.2461
      2 CA         -6.5120    3.6660    0.9230 C.3       1 PRO         0.0670
      3 C          -6.6270    4.0030   -0.5640 C.2       1 PRO         0.2268
      4 O          -7.7420    4.1430   -1.0620 O.2       1 PRO        -0.3907
      5 CB         -6.7580    2.1840    1.1920 C.3       1 PRO         0.0127
      6 CG         -8.2440    2.0900    1.3220 C.3       1 PRO        -0.0053
      7 CD         -8.7360    3.4230    1.8580 C.3       1 PRO        -0.0313
      8 N          -5.4980    4.1180   -1.2570 N.am      1 PRO        -0.2608
      9 CA         -5.4850    4.6430   -2.6240 C.3       1 PRO         0.1334
     10 C          -5.5550    3.5380   -3.6790 C.2       1 PRO         0.2042
     11 O          -5.3790    2.3600   -3.3680 O.2       1 PRO        -0.3944
     12 CB         -4.2300    5.5070   -2.8970 C.3       1 PRO        -0.0063
     13 CG1        -4.5670    6.9820   -2.7330 C.3       1 PRO        -0.0584
     14 CG2        -3.0560    5.1110   -1.9980 C.3       1 PRO        -0.0584
     15 N          -5.8470    3.9200   -4.9200 N.am      1 PRO        -0.2616
     16 CA         -6.0510    2.9550   -5.9920 C.3       1 PRO         0.1539
     17 C          -5.7150    3.5380   -7.3710 C.2       1 PRO         0.2062
     18 O          -4.9750    4.5110   -7.4600 O.2       1 PRO        -0.3943
     19 CB         -7.4870    2.5090   -5.9700 C.3       1 PRO         0.0843
     20 OG         -8.2580    3.6450   -6.3730 O.3       1 PRO        -0.3903
     21 N          -6.2790    2.9860   -8.4460 N.am      1 PRO        -0.2635
     22 CA         -5.7790    3.3150   -9.7770 C.3       1 PRO         0.1330
     23 C          -6.8080    3.0770  -10.8640 C.2       1 PRO         0.2035
     24 O          -7.3680    1.9850  -10.9770 O.2       1 PRO        -0.3944
     25 CB         -4.5000    2.5040  -10.0320 C.3       1 PRO         0.0045
     26 CG         -4.3000    1.8560  -11.4080 C.3       1 PRO         0.0412
     27 CD         -3.9620    2.8450  -12.5010 C.2       1 PRO         0.1737
     28 OE1        -3.2970    3.8520  -12.2590 O.2       1 PRO        -0.3973
     29 NE2        -4.3990    2.5500  -13.7220 N.am      1 PRO        -0.3009
     30 N          -7.0680    4.1140  -11.6550 N.am      1 PRO        -0.2697
     31 CA         -7.8530    3.9460  -12.8680 C.3       1 PRO         0.0916
     32 C          -7.0500    4.4370  -14.0630 C.2       1 PRO         0.0598
     33 O          -7.4090    5.4210  -14.7070 O.co2     1 PRO        -0.5666
     34 CB         -9.1870    4.6830  -12.7730 C.3       1 PRO        -0.0300
     35 OXT        -6.0220    3.8620  -14.4150 O.co2     1 PRO        -0.5666
     36 H1         -7.8665    5.1484    1.2108 H         1 PRO         0.2035
     37 H2         -7.2167    4.5581    2.6031 H         1 PRO         0.2035
     38 H3         -5.5195    3.9702    1.2870 H         1 PRO         0.1099
     39 H4         -6.2620    1.8662    2.1210 H         1 PRO         0.0347
     40 H5         -6.3977    1.5682    0.3548 H         1 PRO         0.0347
     41 H6         -8.5105    1.2824    2.0197 H         1 PRO         0.0320
     42 H7         -8.6959    1.8896    0.3393 H         1 PRO         0.0320
     43 H8         -9.5954    3.7872    1.2760 H         1 PRO         0.0814
     44 H9         -9.0195    3.3397    2.9175 H         1 PRO         0.0814
     45 H10        -4.6359    3.8389   -0.8340 H         1 PRO         0.1885
     46 H11        -6.3733    5.2814   -2.7398 H         1 PRO         0.0802
     47 H12        -3.9244    5.3398   -3.9404 H         1 PRO         0.0343
     48 H13        -3.6695    7.5871   -2.9289 H         1 PRO         0.0234
     49 H14        -4.9166    7.1663   -1.7065 H         1 PRO         0.0234
     50 H15        -5.3584    7.2587   -3.4451 H         1 PRO         0.0234
     51 H16        -2.8332    4.0426   -2.1353 H         1 PRO         0.0234
     52 H17        -3.3197    5.2983   -0.9467 H         1 PRO         0.0234
     53 H18        -2.1714    5.7074   -2.2660 H         1 PRO         0.0234
     54 H19        -5.9286    4.8960   -5.1220 H         1 PRO         0.1884
     55 H20        -5.3998    2.0868   -5.8126 H         1 PRO         0.0823
     56 H21        -7.7736    2.1925   -4.9563 H         1 PRO         0.0606
     57 H22        -7.6393    1.6753   -6.6712 H         1 PRO         0.0606
     58 H23        -9.1799    3.4157   -6.3761 H         1 PRO         0.2097
     59 H24        -7.0422    2.3486   -8.3404 H         1 PRO         0.1883
     60 H25        -5.5212    4.3843   -9.7914 H         1 PRO         0.0801
     61 H26        -4.4756    1.6952   -9.2868 H         1 PRO         0.0337
     62 H27        -3.6490    3.1810   -9.8664 H         1 PRO         0.0337
     63 H28        -5.2286    1.3356  -11.6853 H         1 PRO         0.0504
     64 H29        -3.4795    1.1272  -11.3330 H         1 PRO         0.0504
     65 H30        -4.2057    3.1670  -14.4849 H         1 PRO         0.1814
     66 H31        -4.9208    1.7112  -13.8772 H         1 PRO         0.1814
     67 H32        -6.7198    5.0197  -11.4131 H         1 PRO         0.1875
     68 H33        -8.0614    2.8743  -13.0023 H         1 PRO         0.0723
     69 H34        -9.7543    4.5358  -13.7039 H         1 PRO         0.0270
     70 H35        -9.0027    5.7569  -12.6218 H         1 PRO         0.0270
     71 H36        -9.7650    4.2872  -11.9249 H         1 PRO         0.0270
@<TRIPOS>BOND
     1    1    2 1  
     2    1    7 1  
     3    2    3 1  
     4    2    5 1  
     5    3    4 2  
     6    3    8 am 
     7    5    6 1  
     8    6    7 1  
     9    8    9 1  
    10    9   10 1  
    11    9   12 1  
    12   10   11 2  
    13   10   15 am 
    14   12   13 1  
    15   12   14 1  
    16   15   16 1  
    17   16   17 1  
    18   16   19 1  
    19   17   18 2  
    20   17   21 am 
    21   19   20 1  
    22   21   22 1  
    23   22   23 1  
    24   22   25 1  
    25   23   24 2  
    26   23   30 am 
    27   25   26 1  
    28   26   27 1  
    29   27   28 2  
    30   27   29 am 
    31   30   31 1  
    32   31   32 1  
    33   31   34 1  
    34   32   33 ar 
    35   32   35 ar 
    36    1   36 1  
    37    1   37 1  
    38    2   38 1  
    39    5   39 1  
    40    5   40 1  
    41    6   41 1  
    42    6   42 1  
    43    7   43 1  
    44    7   44 1  
    45    8   45 1  
    46    9   46 1  
    47   12   47 1  
    48   13   48 1  
    49   13   49 1  
    50   13   50 1  
    51   14   51 1  
    52   14   52 1  
    53   14   53 1  
    54   15   54 1  
    55   16   55 1  
    56   19   56 1  
    57   19   57 1  
    58   20   58 1  
    59   21   59 1  
    60   22   60 1  
    61   25   61 1  
    62   25   62 1  
    63   26   63 1  
    64   26   64 1  
    65   29   65 1  
    66   29   66 1  
    67   30   67 1  
    68   31   68 1  
    69   34   69 1  
    70   34   70 1  
    71   34   71 1  
@<TRIPOS>SUBSTRUCTURE
     1 PRO         1

