### 
### Created by X-TOOL on Mon Aug  2 16:10:38 2021
### 

@<TRIPOS>MOLECULE
6byz_ligand
   73    77     1     0     0
SMALL
GAST_HUCK


@<TRIPOS>ATOM
      1 C20       106.4590  -48.5540   43.6470 C.ar      1 J18        -0.0295
      2 C21       106.4240  -48.3960   45.0450 C.ar      1 J18        -0.0262
      3 C22       105.4740  -47.5740   45.7010 C.ar      1 J18        -0.0368
      4 C23       104.4880  -46.8780   44.9860 C.3       1 J18        -0.0328
      5 C24       105.5180  -47.4490   47.0990 C.ar      1 J18        -0.0441
      6 C25       104.6180  -46.6680   47.8280 C.3       1 J18        -0.0338
      7 C26       106.4850  -48.1310   47.8290 C.ar      1 J18        -0.0676
      8 C27       107.4180  -48.9360   47.1870 C.ar      1 J18        -0.0754
      9 C28       107.3850  -49.0590   45.8000 C.ar      1 J18        -0.0685
     10 C29       107.4380  -47.9160   42.8840 C.ar      1 J18        -0.0619
     11 C11       113.3680  -51.3240   36.2410 C.ar      1 J18        -0.0320
     12 C01       104.8230  -47.5740   38.1290 C.3       1 J18         0.0893
     13 C02       105.1740  -48.9050   38.7900 C.3       1 J18         0.0210
     14 C03       104.5910  -50.8030   37.3940 C.3       1 J18        -0.0309
     15 C04       104.9080  -52.0620   36.5460 C.3       1 J18        -0.0110
     16 C05       106.1760  -52.6920   37.0350 C.3       1 J18        -0.0311
     17 C06       107.2600  -51.8300   36.3950 C.3       1 J18         0.0303
     18 C07       110.9480  -52.4030   37.1150 C.ar      1 J18         0.1389
     19 C08       112.0880  -53.2300   37.0330 C.ar      1 J18         0.0749
     20 C09       112.0950  -54.6050   37.3680 C.3       1 J18         0.3790
     21 C10       113.2860  -52.6630   36.5910 C.ar      1 J18        -0.0296
     22 C12       112.2550  -50.5210   36.3210 C.ar      1 J18        -0.0321
     23 C13       111.0610  -51.0590   36.7560 C.ar      1 J18        -0.0053
     24 C14       108.1200  -50.6540   38.4000 C.3       1 J18         0.0751
     25 C15       106.6390  -50.3610   38.8580 C.3       1 J18         0.0148
     26 C16       106.5820  -48.9400   39.4090 C.3       1 J18         0.0820
     27 C17       106.5660  -48.8080   40.8270 C.ar      1 J18        -0.0292
     28 C18       105.5870  -49.4460   41.5990 C.ar      1 J18        -0.0594
     29 C19       105.5280  -49.3320   42.9810 C.ar      1 J18        -0.0619
     30 C30       107.5010  -48.0290   41.4920 C.ar      1 J18        -0.0594
     31 F01       113.3750  -55.0960   37.3130 F         1 J18        -0.2199
     32 F02       111.6260  -54.7870   38.6000 F         1 J18        -0.2199
     33 F03       111.3570  -55.2860   36.5150 F         1 J18        -0.2199
     34 N01       105.6880  -49.8610   37.8100 N.4       1 J18         0.2459
     35 N02       108.4160  -51.5950   37.2740 N.am      1 J18        -0.2256
     36 O01       105.2690  -46.4820   38.9400 O.3       1 J18        -0.3893
     37 O02       108.6910  -54.0990   36.8920 O.2       1 J18        -0.1465
     38 O03       109.1860  -53.1490   39.1810 O.2       1 J18        -0.1465
     39 S01       109.2420  -52.8950   37.6670 S.o2      1 J18         0.0829
     40 H1        104.5977  -47.0873   43.9117 H         1 J18         0.0380
     41 H2        104.6006  -45.7981   45.1625 H         1 J18         0.0380
     42 H3        103.4926  -47.2029   45.3230 H         1 J18         0.0380
     43 H4        104.8597  -46.7335   48.8991 H         1 J18         0.0375
     44 H5        103.5946  -47.0346   47.6600 H         1 J18         0.0375
     45 H6        104.6911  -45.6209   47.4991 H         1 J18         0.0375
     46 H7        106.5113  -48.0339   48.9083 H         1 J18         0.0533
     47 H8        108.1681  -49.4658   47.7629 H         1 J18         0.0542
     48 H9        108.1197  -49.6810   45.3016 H         1 J18         0.0540
     49 H10       108.1791  -47.3086   43.3909 H         1 J18         0.0599
     50 H11       114.3112  -50.9096   35.9037 H         1 J18         0.0698
     51 H12       103.7324  -47.5090   38.0013 H         1 J18         0.0616
     52 H13       105.3114  -47.5179   37.1450 H         1 J18         0.0616
     53 H14       104.3558  -49.2550   39.4366 H         1 J18         0.0903
     54 H15       104.1150  -51.1592   38.3195 H         1 J18         0.0815
     55 H16       103.8687  -50.2082   36.8156 H         1 J18         0.0815
     56 H17       105.0263  -51.7726   35.4914 H         1 J18         0.0317
     57 H18       104.0821  -52.7827   36.6381 H         1 J18         0.0317
     58 H19       106.2529  -53.7367   36.6993 H         1 J18         0.0283
     59 H20       106.2381  -52.6540   38.1326 H         1 J18         0.0283
     60 H21       106.8204  -50.8571   36.1300 H         1 J18         0.0478
     61 H22       107.6126  -52.3338   35.4829 H         1 J18         0.0478
     62 H23       114.1715  -53.2842   36.5201 H         1 J18         0.0853
     63 H24       112.3148  -49.4745   36.0448 H         1 J18         0.0856
     64 H25       110.1873  -50.4206   36.8206 H         1 J18         0.0718
     65 H26       108.6457  -51.0492   39.2817 H         1 J18         0.0536
     66 H27       108.5557  -49.6843   38.1174 H         1 J18         0.0536
     67 H28       106.2539  -51.1697   39.4965 H         1 J18         0.0896
     68 H29       107.3154  -48.2430   38.9775 H         1 J18         0.0576
     69 H30       104.8441  -50.0544   41.0960 H         1 J18         0.0558
     70 H31       104.7553  -49.8506   43.5369 H         1 J18         0.0599
     71 H32       108.2749  -47.5116   40.9366 H         1 J18         0.0558
     72 H33       106.1353  -49.4636   36.9988 H         1 J18         0.2044
     73 H34       105.0439  -45.6619   38.5165 H         1 J18         0.2097
@<TRIPOS>BOND
     1    1    2 1  
     2   10    1 ar 
     3   29    1 ar 
     4    2    3 ar 
     5    2    9 ar 
     6    3    4 1  
     7    3    5 ar 
     8    5    6 1  
     9    5    7 ar 
    10    8    7 ar 
    11    9    8 ar 
    12   30   10 ar 
    13   21   11 ar 
    14   22   11 ar 
    15   13   12 1  
    16   12   36 1  
    17   26   13 1  
    18   34   13 1  
    19   15   14 1  
    20   34   14 1  
    21   16   15 1  
    22   17   16 1  
    23   35   17 1  
    24   18   19 ar 
    25   18   23 ar 
    26   39   18 1  
    27   19   20 1  
    28   19   21 ar 
    29   20   31 1  
    30   20   32 1  
    31   20   33 1  
    32   23   22 ar 
    33   24   25 1  
    34   35   24 1  
    35   25   26 1  
    36   25   34 1  
    37   26   27 1  
    38   27   28 ar 
    39   27   30 ar 
    40   28   29 ar 
    41   35   39 am 
    42   39   37 2  
    43   39   38 2  
    44    4   40 1  
    45    4   41 1  
    46    4   42 1  
    47    6   43 1  
    48    6   44 1  
    49    6   45 1  
    50    7   46 1  
    51    8   47 1  
    52    9   48 1  
    53   10   49 1  
    54   11   50 1  
    55   12   51 1  
    56   12   52 1  
    57   13   53 1  
    58   14   54 1  
    59   14   55 1  
    60   15   56 1  
    61   15   57 1  
    62   16   58 1  
    63   16   59 1  
    64   17   60 1  
    65   17   61 1  
    66   21   62 1  
    67   22   63 1  
    68   23   64 1  
    69   24   65 1  
    70   24   66 1  
    71   25   67 1  
    72   26   68 1  
    73   28   69 1  
    74   29   70 1  
    75   30   71 1  
    76   34   72 1  
    77   36   73 1  
@<TRIPOS>SUBSTRUCTURE
     1 J18         1

