### 
### Created by X-TOOL on Wed Jan  1 15:39:36 2020
### 

@<TRIPOS>MOLECULE
6c0n_ligand
   71    75     1     0     0
SMALL
GAST_HUCK


@<TRIPOS>ATOM
      1 C01        52.7720  -27.5060   38.5340 C.3       1 K5C        -0.0314
      2 C02        51.3160  -27.0830   38.7420 C.ar      1 K5C        -0.0059
      3 C03        50.3450  -27.8710   39.3960 C.ar      1 K5C        -0.0546
      4 C04        48.9970  -27.4870   39.5870 C.ar      1 K5C        -0.0229
      5 C05        47.9870  -28.3100   40.3210 C.2       1 K5C        -0.0274
      6 C06        47.0740  -27.9190   41.2310 C.2       1 K5C         0.0463
      7 C07        46.2770  -28.8780   41.8280 C.1       1 K5C         0.0608
      8 C09        48.6530  -26.2150   39.1050 C.ar      1 K5C        -0.0546
      9 C10        49.5740  -25.3740   38.4380 C.ar      1 K5C        -0.0059
     10 C11        49.1260  -24.0150   37.9260 C.3       1 K5C        -0.0314
     11 C12        50.9050  -25.8230   38.2460 C.ar      1 K5C         0.1373
     12 C14        52.2690  -25.0830   36.3800 C.ar      1 K5C         0.2060
     13 C16        52.3140  -26.2860   34.4460 C.ar      1 K5C         0.1594
     14 C18        50.9310  -28.4430   34.1990 C.3       1 K5C         0.0500
     15 C19        51.5640  -29.4620   35.0890 C.3       1 K5C         0.0108
     16 C20        50.5840  -30.4780   35.5010 C.3       1 K5C        -0.0283
     17 C22        49.0110  -32.0880   34.8670 C.3       1 K5C         0.0020
     18 C23        49.7250  -33.3140   35.3370 C.ar      1 K5C         0.0015
     19 C24        50.9510  -33.6570   34.7060 C.ar      1 K5C        -0.0534
     20 C25        51.6660  -34.7830   35.0960 C.ar      1 K5C        -0.0418
     21 C26        51.2580  -35.6640   36.1180 C.ar      1 K5C         0.1009
     22 C31        50.0460  -35.2790   36.7110 C.ar      1 K5C        -0.0418
     23 C32        49.2950  -34.1570   36.3510 C.ar      1 K5C        -0.0534
     24 C33        49.3070  -30.1110   33.3390 C.3       1 K5C        -0.0283
     25 C34        50.2870  -29.0090   32.9560 C.3       1 K5C         0.0108
     26 C36        53.5980  -24.3980   34.5290 C.ar      1 K5C         0.0297
     27 C37        54.5010  -23.3520   34.0790 C.2       1 K5C        -0.0435
     28 C38        54.7200  -22.4140   35.0300 C.2       1 K5C         0.0065
     29 C40        53.1500  -24.1720   35.8520 C.ar      1 K5C         0.1085
     30 N08        45.6120  -29.6930   42.3670 N.1       1 K5C        -0.3604
     31 N15        51.8390  -26.1390   35.7240 N.ar      1 K5C        -0.2380
     32 N17        51.8560  -27.4000   33.7690 N.pl3     1 K5C        -0.2933
     33 N21        49.9680  -31.1040   34.2530 N.4       1 K5C         0.2473
     34 N28        52.7780  -37.7720   35.2070 N.am      1 K5C        -0.2617
     35 N35        53.1790  -25.4660   33.7860 N.ar      1 K5C        -0.2915
     36 O13        51.7900  -24.9420   37.6290 O.3       1 K5C        -0.2342
     37 O29        53.3000  -36.7200   37.3880 O.2       1 K5C        -0.1514
     38 O30        51.2840  -37.9950   37.2130 O.2       1 K5C        -0.1514
     39 S27        52.1780  -37.0810   36.5860 S.o2      1 K5C         0.0628
     40 S39        53.8480  -22.7490   36.4760 S.3       1 K5C        -0.0267
     41 H1         52.9308  -28.5019   38.9732 H         1 K5C         0.0372
     42 H2         53.4382  -26.7795   39.0222 H         1 K5C         0.0372
     43 H3         52.9935  -27.5407   37.4571 H         1 K5C         0.0372
     44 H4         50.6534  -28.8373   39.7784 H         1 K5C         0.0549
     45 H5         47.9900  -29.3736   40.0873 H         1 K5C         0.0884
     46 H6         46.9657  -26.8672   41.4915 H         1 K5C         0.0713
     47 H7         47.6384  -25.8619   39.2500 H         1 K5C         0.0549
     48 H8         48.0660  -23.8603   38.1758 H         1 K5C         0.0372
     49 H9         49.2553  -23.9736   36.8344 H         1 K5C         0.0372
     50 H10        49.7324  -23.2275   38.3972 H         1 K5C         0.0372
     51 H11        50.1385  -27.9640   34.7927 H         1 K5C         0.0561
     52 H12        51.9620  -28.9614   35.9840 H         1 K5C         0.0339
     53 H13        52.3859  -29.9529   34.5473 H         1 K5C         0.0339
     54 H14        49.7952  -30.0066   36.1056 H         1 K5C         0.0815
     55 H15        51.0859  -31.2559   36.0951 H         1 K5C         0.0815
     56 H16        48.5094  -31.6141   35.7236 H         1 K5C         0.0980
     57 H17        48.2606  -32.3754   34.1158 H         1 K5C         0.0980
     58 H18        51.3344  -33.0309   33.9084 H         1 K5C         0.0559
     59 H19        52.5960  -34.9973   34.5820 H         1 K5C         0.0619
     60 H20        49.6620  -35.9010   37.5115 H         1 K5C         0.0619
     61 H21        48.3672  -33.9433   36.8693 H         1 K5C         0.0559
     62 H22        48.9670  -30.6265   32.4287 H         1 K5C         0.0815
     63 H23        48.4424  -29.6651   33.8525 H         1 K5C         0.0815
     64 H24        51.0648  -29.4243   32.2984 H         1 K5C         0.0339
     65 H25        49.7484  -28.2090   32.4270 H         1 K5C         0.0339
     66 H26        54.9511  -23.3258   33.0877 H         1 K5C         0.0449
     67 H27        55.3701  -21.5506   34.8964 H         1 K5C         0.0897
     68 H28        52.2244  -27.5112   32.8136 H         1 K5C         0.1843
     69 H29        50.6741  -31.5889   33.7216 H         1 K5C         0.2048
     70 H30        53.3359  -38.5999   35.2645 H         1 K5C         0.1634
     71 H31        52.5827  -37.3616   34.3163 H         1 K5C         0.1634
@<TRIPOS>BOND
     1    2    1 1  
     2    2    3 ar 
     3   11    2 ar 
     4    3    4 ar 
     5    4    5 1  
     6    8    4 ar 
     7    5    6 2  
     8    6    7 1  
     9    7   30 3  
    10    9    8 ar 
    11    9   10 1  
    12   11    9 ar 
    13   36   11 1  
    14   29   12 ar 
    15   12   31 ar 
    16   12   36 1  
    17   31   13 ar 
    18   13   32 1  
    19   13   35 ar 
    20   14   15 1  
    21   14   25 1  
    22   32   14 1  
    23   15   16 1  
    24   16   33 1  
    25   17   18 1  
    26   33   17 1  
    27   18   19 ar 
    28   18   23 ar 
    29   19   20 ar 
    30   20   21 ar 
    31   22   21 ar 
    32   21   39 1  
    33   23   22 ar 
    34   25   24 1  
    35   24   33 1  
    36   26   27 1  
    37   26   29 ar 
    38   26   35 ar 
    39   27   28 2  
    40   28   40 1  
    41   29   40 1  
    42   39   34 am 
    43   39   37 2  
    44   39   38 2  
    45    1   41 1  
    46    1   42 1  
    47    1   43 1  
    48    3   44 1  
    49    5   45 1  
    50    6   46 1  
    51    8   47 1  
    52   10   48 1  
    53   10   49 1  
    54   10   50 1  
    55   14   51 1  
    56   15   52 1  
    57   15   53 1  
    58   16   54 1  
    59   16   55 1  
    60   17   56 1  
    61   17   57 1  
    62   19   58 1  
    63   20   59 1  
    64   22   60 1  
    65   23   61 1  
    66   24   62 1  
    67   24   63 1  
    68   25   64 1  
    69   25   65 1  
    70   27   66 1  
    71   28   67 1  
    72   32   68 1  
    73   33   69 1  
    74   34   70 1  
    75   34   71 1  
@<TRIPOS>SUBSTRUCTURE
     1 K5C         1

