### 
### Created by X-TOOL on Wed Jan  1 15:39:36 2020
### 

@<TRIPOS>MOLECULE
6c0r_ligand
   71    75     1     0     0
SMALL
GAST_HUCK


@<TRIPOS>ATOM
      1 C01        52.7230  -27.7230   38.7740 C.3       1 K5C        -0.0314
      2 C02        51.2410  -27.3910   38.9640 C.ar      1 K5C        -0.0059
      3 C03        50.2960  -28.2650   39.5460 C.ar      1 K5C        -0.0546
      4 C04        48.9210  -27.9570   39.7050 C.ar      1 K5C        -0.0229
      5 C05        47.9110  -28.8450   40.3520 C.2       1 K5C        -0.0274
      6 C06        47.1100  -28.5670   41.4020 C.2       1 K5C         0.0463
      7 C07        46.2560  -29.5430   41.8790 C.1       1 K5C         0.0608
      8 C09        48.5280  -26.6890   39.2620 C.ar      1 K5C        -0.0546
      9 C10        49.4130  -25.7760   38.6740 C.ar      1 K5C        -0.0059
     10 C11        48.9120  -24.4340   38.1990 C.3       1 K5C        -0.0314
     11 C12        50.7630  -26.1340   38.5080 C.ar      1 K5C         0.1373
     12 C14        52.0500  -25.1960   36.7300 C.ar      1 K5C         0.2060
     13 C16        52.2050  -26.2610   34.7290 C.ar      1 K5C         0.1594
     14 C18        51.0230  -28.4870   34.2160 C.3       1 K5C         0.0500
     15 C19        51.6590  -29.4900   35.0830 C.3       1 K5C         0.0108
     16 C20        50.7170  -30.5680   35.3960 C.3       1 K5C        -0.0283
     17 C22        49.0620  -32.0400   34.6210 C.3       1 K5C         0.0020
     18 C23        49.6200  -33.2900   35.1860 C.ar      1 K5C         0.0015
     19 C24        50.8610  -33.7620   34.6910 C.ar      1 K5C        -0.0534
     20 C25        51.4310  -34.9330   35.1890 C.ar      1 K5C        -0.0418
     21 C26        50.8460  -35.7370   36.1920 C.ar      1 K5C         0.1009
     22 C31        49.6220  -35.2190   36.6380 C.ar      1 K5C        -0.0418
     23 C32        49.0180  -34.0510   36.1700 C.ar      1 K5C        -0.0534
     24 C33        49.5790  -30.1390   33.1080 C.3       1 K5C        -0.0283
     25 C34        50.5820  -29.0310   32.8880 C.3       1 K5C         0.0108
     26 C36        53.2960  -24.2640   34.9350 C.ar      1 K5C         0.0297
     27 C37        54.1070  -23.1180   34.5660 C.2       1 K5C        -0.0435
     28 C38        54.2360  -22.2270   35.5770 C.2       1 K5C         0.0065
     29 C40        52.8320  -24.1700   36.2650 C.ar      1 K5C         0.1085
     30 N08        45.5330  -30.3730   42.3110 N.1       1 K5C        -0.3604
     31 N15        51.7130  -26.2520   36.0050 N.ar      1 K5C        -0.2380
     32 N17        51.8710  -27.3550   33.9520 N.pl3     1 K5C        -0.2933
     33 N21        50.1280  -31.1540   34.0830 N.4       1 K5C         0.2473
     34 N28        51.5770  -38.3240   35.5750 N.am      1 K5C        -0.2617
     35 N35        52.9940  -25.3130   34.1360 N.ar      1 K5C        -0.2915
     36 O13        51.5790  -25.1670   37.9710 O.3       1 K5C        -0.2342
     37 O29        52.9410  -36.9950   37.1610 O.2       1 K5C        -0.1514
     38 O30        50.7800  -37.7290   37.8640 O.2       1 K5C        -0.1514
     39 S27        51.5780  -37.2130   36.8040 S.o2      1 K5C         0.0628
     40 S39        53.3860  -22.7360   36.9880 S.3       1 K5C        -0.0267
     41 H1         52.9289  -28.7253   39.1777 H         1 K5C         0.0372
     42 H2         53.3362  -26.9805   39.3057 H         1 K5C         0.0372
     43 H3         52.9690  -27.7019   37.7021 H         1 K5C         0.0372
     44 H4         50.6437  -29.2314   39.8927 H         1 K5C         0.0549
     45 H5         47.8075  -29.8409   39.9237 H         1 K5C         0.0884
     46 H6         47.1364  -27.5834   41.8686 H         1 K5C         0.0713
     47 H7         47.4899  -26.3997   39.3794 H         1 K5C         0.0549
     48 H8         47.8377  -24.3452   38.4181 H         1 K5C         0.0372
     49 H9         49.0736  -24.3451   37.1146 H         1 K5C         0.0372
     50 H10        49.4594  -23.6335   38.7181 H         1 K5C         0.0372
     51 H11        50.1298  -28.1273   34.7479 H         1 K5C         0.0561
     52 H12        51.9817  -29.0083   36.0178 H         1 K5C         0.0339
     53 H13        52.5339  -29.9122   34.5670 H         1 K5C         0.0339
     54 H14        49.9003  -30.1700   36.0162 H         1 K5C         0.0815
     55 H15        51.2419  -31.3625   35.9466 H         1 K5C         0.0815
     56 H16        48.5183  -31.5031   35.4122 H         1 K5C         0.0980
     57 H17        48.3673  -32.2958   33.8074 H         1 K5C         0.0980
     58 H18        51.3739  -33.2054   33.9150 H         1 K5C         0.0559
     59 H19        52.3847  -35.2465   34.7799 H         1 K5C         0.0619
     60 H20        49.1010  -35.7720   37.4112 H         1 K5C         0.0619
     61 H21        48.0661  -33.7373   36.5830 H         1 K5C         0.0559
     62 H22        49.3681  -30.6340   32.1486 H         1 K5C         0.0815
     63 H23        48.6493  -29.7125   33.5127 H         1 K5C         0.0815
     64 H24        51.4534  -29.4271   32.3459 H         1 K5C         0.0339
     65 H25        50.1174  -28.2272   32.2980 H         1 K5C         0.0339
     66 H26        54.5613  -22.9893   33.5847 H         1 K5C         0.0449
     67 H27        54.8067  -21.3021   35.5076 H         1 K5C         0.0897
     68 H28        52.3065  -27.3605   33.0186 H         1 K5C         0.1843
     69 H29        50.8306  -31.6942   33.6028 H         1 K5C         0.2048
     70 H30        51.9556  -39.2372   35.7262 H         1 K5C         0.1634
     71 H31        51.1978  -38.0814   34.6820 H         1 K5C         0.1634
@<TRIPOS>BOND
     1    2    1 1  
     2    2    3 ar 
     3   11    2 ar 
     4    3    4 ar 
     5    4    5 1  
     6    8    4 ar 
     7    5    6 2  
     8    6    7 1  
     9    7   30 3  
    10    9    8 ar 
    11    9   10 1  
    12   11    9 ar 
    13   36   11 1  
    14   29   12 ar 
    15   12   31 ar 
    16   12   36 1  
    17   31   13 ar 
    18   13   32 1  
    19   13   35 ar 
    20   14   15 1  
    21   14   25 1  
    22   32   14 1  
    23   15   16 1  
    24   16   33 1  
    25   17   18 1  
    26   33   17 1  
    27   18   19 ar 
    28   18   23 ar 
    29   19   20 ar 
    30   20   21 ar 
    31   22   21 ar 
    32   21   39 1  
    33   23   22 ar 
    34   25   24 1  
    35   24   33 1  
    36   26   27 1  
    37   26   29 ar 
    38   26   35 ar 
    39   27   28 2  
    40   28   40 1  
    41   29   40 1  
    42   39   34 am 
    43   39   37 2  
    44   39   38 2  
    45    1   41 1  
    46    1   42 1  
    47    1   43 1  
    48    3   44 1  
    49    5   45 1  
    50    6   46 1  
    51    8   47 1  
    52   10   48 1  
    53   10   49 1  
    54   10   50 1  
    55   14   51 1  
    56   15   52 1  
    57   15   53 1  
    58   16   54 1  
    59   16   55 1  
    60   17   56 1  
    61   17   57 1  
    62   19   58 1  
    63   20   59 1  
    64   22   60 1  
    65   23   61 1  
    66   24   62 1  
    67   24   63 1  
    68   25   64 1  
    69   25   65 1  
    70   27   66 1  
    71   28   67 1  
    72   32   68 1  
    73   33   69 1  
    74   34   70 1  
    75   34   71 1  
@<TRIPOS>SUBSTRUCTURE
     1 K5C         1

