### 
### Created by X-TOOL on Wed Jan  1 15:39:37 2020
### 

@<TRIPOS>MOLECULE
6c0s_ligand
   77    81     1     0     0
SMALL
GAST_HUCK


@<TRIPOS>ATOM
      1 C13        45.9500  -20.8730   30.9580 C.ar      1 EEJ        -0.0589
      2 C17        44.4280  -22.4450   31.9220 C.ar      1 EEJ        -0.0589
      3 C16        45.3500  -22.7360   32.9150 C.ar      1 EEJ        -0.0334
      4 C15        46.6020  -22.1200   32.9200 C.ar      1 EEJ         0.0769
      5 C19        37.7750  -15.0380   27.6760 C.ar      1 EEJ         0.1410
      6 C20        37.1050  -13.8170   27.5850 C.ar      1 EEJ        -0.0176
      7 C21        35.9790  -13.5690   28.3550 C.ar      1 EEJ        -0.0476
      8 C22        35.5200  -14.5470   29.2150 C.ar      1 EEJ         0.0380
      9 C23        36.1600  -15.7610   29.3260 C.ar      1 EEJ        -0.0382
     10 C24        37.3030  -16.0240   28.5590 C.ar      1 EEJ         0.0262
     11 C11        42.3600  -21.1700   30.2040 C.ar      1 EEJ        -0.0037
     12 C12        44.7070  -21.5090   30.9200 C.ar      1 EEJ        -0.0104
     13 C34        48.8390  -22.1840   34.0710 C.2       1 EEJ         0.3537
     14 C27        38.8830  -15.1410   25.4020 C.2       1 EEJ         0.1690
     15 CL1        34.0760  -14.2590   30.1580 Cl        1 EEJ        -0.0754
     16 CL2        45.6130  -21.1290   27.8490 Cl        1 EEJ        -0.0135
     17 N3         39.2430  -19.8970   29.2330 N.am      1 EEJ        -0.2698
     18 C4         39.9450  -21.1540   29.4980 C.3       1 EEJ         0.0964
     19 C5         41.4140  -20.9570   29.2070 C.ar      1 EEJ         0.0586
     20 C6         39.4390  -22.3710   28.7020 C.3       1 EEJ        -0.0102
     21 N7         41.7630  -20.7240   27.9410 N.ar      1 EEJ        -0.2701
     22 N8         43.0550  -20.7540   27.5910 N.ar      1 EEJ        -0.2424
     23 C9         43.9930  -21.0020   28.4810 C.ar      1 EEJ         0.1487
     24 C10        43.7090  -21.2090   29.8490 C.ar      1 EEJ         0.0442
     25 C14        46.8940  -21.1870   31.9240 C.ar      1 EEJ        -0.0334
     26 N18        47.5250  -22.5300   33.9340 N.am      1 EEJ        -0.2036
     27 N25        38.7790  -15.3620   26.7140 N.pl3     1 EEJ        -0.0913
     28 C26        37.9740  -17.3200   28.7440 C.2       1 EEJ        -0.0388
     29 N28        40.0700  -15.4900   24.9880 N.2       1 EEJ        -0.2058
     30 N29        40.7360  -15.8990   26.0960 N.2       1 EEJ        -0.1365
     31 N30        39.9760  -15.8340   27.1420 N.2       1 EEJ        -0.0466
     32 C31        38.4970  -17.7070   29.8980 C.2       1 EEJ         0.0072
     33 C32        39.2380  -18.9540   30.1990 C.2       1 EEJ         0.1912
     34 O33        39.8650  -19.0980   31.2520 O.2       1 EEJ        -0.3926
     35 O35        49.4840  -21.4870   33.3150 O.2       1 EEJ        -0.3651
     36 O36        49.3420  -22.7530   35.1800 O.3       1 EEJ        -0.2616
     37 C37        50.7650  -22.5730   35.4040 C.3       1 EEJ         0.0669
     38 C38        40.1290  -23.7130   29.0520 C.3       1 EEJ        -0.0160
     39 C39        40.0910  -24.0690   30.5350 C.3       1 EEJ        -0.0463
     40 C40        40.8920  -25.3320   30.8240 C.3       1 EEJ        -0.0322
     41 C41        40.4630  -26.4830   29.9100 C.3       1 EEJ         0.0339
     42 N42        40.3580  -26.0900   28.4910 N.am      1 EEJ        -0.2732
     43 C43        39.5540  -24.8830   28.2620 C.3       1 EEJ         0.0369
     44 C44        41.0190  -26.7780   27.5060 C.2       1 EEJ         0.1754
     45 O45        41.8120  -27.6640   27.7810 O.2       1 EEJ        -0.3972
     46 C46        40.7940  -26.3750   26.0810 C.3       1 EEJ         0.0258
     47 H1         46.1818  -20.1174   30.2161 H         1 EEJ         0.0626
     48 H2         43.4705  -22.9532   31.9216 H         1 EEJ         0.0626
     49 H3         45.0968  -23.4470   33.6931 H         1 EEJ         0.0527
     50 H4         37.4687  -13.0548   26.9054 H         1 EEJ         0.0602
     51 H5         35.4645  -12.6176   28.2827 H         1 EEJ         0.0635
     52 H6         35.7796  -16.5137   30.0070 H         1 EEJ         0.0642
     53 H7         42.0556  -21.3030   31.2359 H         1 EEJ         0.0741
     54 H8         38.0954  -14.7309   24.7716 H         1 EEJ         0.1430
     55 H9         38.7799  -19.7412   28.3605 H         1 EEJ         0.1873
     56 H10        39.8222  -21.3835   30.5667 H         1 EEJ         0.0792
     57 H11        39.6025  -22.1717   27.6326 H         1 EEJ         0.0321
     58 H12        38.3615  -22.4807   28.8940 H         1 EEJ         0.0321
     59 H13        47.8647  -20.7048   31.9054 H         1 EEJ         0.0527
     60 H14        47.1616  -23.1484   34.6308 H         1 EEJ         0.2323
     61 H15        38.0442  -17.9937   27.8913 H         1 EEJ         0.0739
     62 H16        38.3653  -17.0201   30.7327 H         1 EEJ         0.0628
     63 H17        51.0566  -23.0802   36.3355 H         1 EEJ         0.0575
     64 H18        50.9906  -21.4994   35.4850 H         1 EEJ         0.0575
     65 H19        51.3262  -23.0031   34.5613 H         1 EEJ         0.0575
     66 H20        41.1863  -23.6052   28.7682 H         1 EEJ         0.0323
     67 H21        39.0459  -24.2310   30.8375 H         1 EEJ         0.0269
     68 H22        40.5155  -23.2357   31.1141 H         1 EEJ         0.0269
     69 H23        40.7309  -25.6269   31.8714 H         1 EEJ         0.0285
     70 H24        41.9599  -25.1243   30.6616 H         1 EEJ         0.0285
     71 H25        39.4811  -26.8484   30.2452 H         1 EEJ         0.0522
     72 H26        41.2038  -27.2917   29.9949 H         1 EEJ         0.0522
     73 H27        39.5634  -24.6377   27.1898 H         1 EEJ         0.0525
     74 H28        38.5195  -25.0680   28.5868 H         1 EEJ         0.0525
     75 H29        41.3917  -27.0190   25.4191 H         1 EEJ         0.0467
     76 H30        41.0974  -25.3266   25.9441 H         1 EEJ         0.0467
     77 H31        39.7278  -26.4836   25.8332 H         1 EEJ         0.0467
@<TRIPOS>BOND
     1   12    1 ar 
     2    1   25 ar 
     3    2    3 ar 
     4   12    2 ar 
     5    3    4 ar 
     6   25    4 ar 
     7    4   26 1  
     8    5    6 ar 
     9   10    5 ar 
    10    5   27 1  
    11    6    7 ar 
    12    8    7 ar 
    13    9    8 ar 
    14    8   15 1  
    15   10    9 ar 
    16   28   10 1  
    17   19   11 ar 
    18   11   24 ar 
    19   24   12 1  
    20   26   13 am 
    21   13   35 2  
    22   13   36 1  
    23   27   14 1  
    24   14   29 2  
    25   23   16 1  
    26   17   18 1  
    27   33   17 am 
    28   18   19 1  
    29   18   20 1  
    30   19   21 ar 
    31   20   38 1  
    32   21   22 ar 
    33   22   23 ar 
    34   24   23 ar 
    35   27   31 1  
    36   32   28 2  
    37   30   29 1  
    38   31   30 2  
    39   32   33 1  
    40   33   34 2  
    41   36   37 1  
    42   38   39 1  
    43   38   43 1  
    44   39   40 1  
    45   40   41 1  
    46   41   42 1  
    47   42   43 1  
    48   42   44 am 
    49   44   45 2  
    50   44   46 1  
    51    1   47 1  
    52    2   48 1  
    53    3   49 1  
    54    6   50 1  
    55    7   51 1  
    56    9   52 1  
    57   11   53 1  
    58   14   54 1  
    59   17   55 1  
    60   18   56 1  
    61   20   57 1  
    62   20   58 1  
    63   25   59 1  
    64   26   60 1  
    65   28   61 1  
    66   32   62 1  
    67   37   63 1  
    68   37   64 1  
    69   37   65 1  
    70   38   66 1  
    71   39   67 1  
    72   39   68 1  
    73   40   69 1  
    74   40   70 1  
    75   41   71 1  
    76   41   72 1  
    77   43   73 1  
    78   43   74 1  
    79   46   75 1  
    80   46   76 1  
    81   46   77 1  
@<TRIPOS>SUBSTRUCTURE
     1 EEJ         1

