### 
### Created by X-TOOL on Wed Jan  1 15:39:37 2020
### 

@<TRIPOS>MOLECULE
6c0t_ligand
   69    73     1     0     0
SMALL
GAST_HUCK


@<TRIPOS>ATOM
      1 C10       -19.1070   16.2510   16.8610 C.ar      1 EE4        -0.0386
      2 C13       -17.2280   18.2870   17.5400 C.ar      1 EE4        -0.0367
      3 C15       -18.4230   19.9950   16.1000 C.2       1 EE4         0.2109
      4 C21       -21.3110   21.6210   13.0890 C.3       1 EE4         0.0275
      5 C22       -19.9830   21.4410   13.0920 C.3       1 EE4         0.0909
      6 C24       -18.0290   22.1370   11.6940 C.2       1 EE4         0.2055
      7 C26       -17.2880   23.0890   10.8490 C.ar      1 EE4         0.0509
      8 C28       -16.9120   25.3300    9.9890 C.ar      1 EE4         0.0384
      9 C01       -20.1490   11.4650   22.6350 C.3       1 EE4        -0.0628
     10 C02       -20.6540   11.6080   21.2110 C.3       1 EE4        -0.0280
     11 C03       -19.6990   12.5980   20.3960 C.3       1 EE4         0.0695
     12 C05       -19.5200   12.5930   18.0620 C.ar      1 EE4         0.0989
     13 C06       -18.3690   13.3210   17.6390 C.ar      1 EE4         0.0888
     14 C07       -17.8650   14.5530   18.3730 C.2       1 EE4         0.1544
     15 C09       -18.0330   15.9810   17.7500 C.ar      1 EE4         0.0348
     16 C11       -19.2320   17.5190   16.3310 C.ar      1 EE4        -0.0367
     17 C12       -18.2560   18.5480   16.6930 C.ar      1 EE4         0.0541
     18 C14       -17.0980   16.9800   18.0850 C.ar      1 EE4        -0.0386
     19 C18       -19.5170   21.5180   14.5480 C.3       1 EE4         0.1241
     20 C19       -20.6520   22.2650   15.2840 C.2       1 EE4         0.0266
     21 C27       -17.6240   24.4690   10.8650 C.ar      1 EE4        -0.0269
     22 C29       -15.9300   24.8170    9.1190 C.ar      1 EE4        -0.0092
     23 C32       -16.9380   26.7490    9.7190 C.2       1 EE4         0.1104
     24 C33       -15.6140   23.4160    9.1130 C.ar      1 EE4        -0.0531
     25 C34       -16.3160   22.5600    9.9610 C.ar      1 EE4        -0.0419
     26 C35       -17.6750   12.9090   16.5420 C.ar      1 EE4         0.1715
     27 C37       -18.0760   11.7930   15.8520 C.ar      1 EE4         0.1188
     28 C39       -17.6990   10.0100   14.2530 C.3       1 EE4         0.0562
     29 C40       -19.2050   11.0840   16.2640 C.ar      1 EE4        -0.0380
     30 C41       -19.9160   11.5010   17.3820 C.ar      1 EE4        -0.0387
     31 F36       -16.5820   13.6190   16.1640 F         1 EE4        -0.1869
     32 N17       -19.4120   20.2140   15.0070 N.am      1 EE4        -0.2608
     33 N20       -21.7600   21.9700   14.5940 N.2       1 EE4        -0.3431
     34 N23       -19.2630   22.5620   12.2950 N.am      1 EE4        -0.2769
     35 N30       -15.4150   25.8520    8.4140 N.2       1 EE4        -0.3319
     36 N31       -16.0220   27.0150    8.7690 N.pl3     1 EE4        -0.2442
     37 O04       -20.2970   13.0290   19.2860 O.3       1 EE4        -0.3204
     38 O08       -17.3120   14.4410   19.4460 O.2       1 EE4        -0.3748
     39 O16       -17.8290   20.8970   16.5250 O.2       1 EE4        -0.3827
     40 O25       -17.6820   21.0290   11.8040 O.2       1 EE4        -0.3846
     41 O38       -17.3680   11.3860   14.7350 O.3       1 EE4        -0.3271
     42 H1        -19.8171   15.4737   16.6029 H         1 EE4         0.0679
     43 H2        -16.5166   19.0634   17.7972 H         1 EE4         0.0679
     44 H3        -21.8130   20.7022   12.7517 H         1 EE4         0.0399
     45 H4        -21.5752   22.4509   12.4172 H         1 EE4         0.0399
     46 H5        -19.7367   20.4602   12.6592 H         1 EE4         0.0623
     47 H6        -20.8091   10.7832   23.1914 H         1 EE4         0.0231
     48 H7        -20.1446   12.4507   23.1232 H         1 EE4         0.0231
     49 H8        -19.1274   11.0573   22.6226 H         1 EE4         0.0231
     50 H9        -21.6758   12.0150   21.2248 H         1 EE4         0.0288
     51 H10       -20.6587   10.6216   20.7241 H         1 EE4         0.0288
     52 H11       -18.7758   12.0653   20.1241 H         1 EE4         0.0613
     53 H12       -19.4506   13.4620   21.0299 H         1 EE4         0.0613
     54 H13       -20.0454   17.7508   15.6529 H         1 EE4         0.0679
     55 H14       -16.2794   16.7524   18.7582 H         1 EE4         0.0679
     56 H15       -18.5582   22.0478   14.6485 H         1 EE4         0.0863
     57 H16       -20.5685   22.8934   16.1695 H         1 EE4         0.1229
     58 H17       -18.3964   24.8511   11.5226 H         1 EE4         0.0680
     59 H18       -17.5872   27.4783   10.2012 H         1 EE4         0.1370
     60 H19       -14.8409   23.0295    8.4587 H         1 EE4         0.0630
     61 H20       -16.1198   21.4941    9.9418 H         1 EE4         0.0669
     62 H21       -17.0906    9.7756   13.3671 H         1 EE4         0.0571
     63 H22       -18.7656    9.9607   13.9887 H         1 EE4         0.0571
     64 H23       -17.4843    9.2813   15.0485 H         1 EE4         0.0571
     65 H24       -19.5270   10.2084   15.7120 H         1 EE4         0.0545
     66 H25       -20.7895   10.9472   17.7067 H         1 EE4         0.0496
     67 H26       -19.9633   19.4699   14.6297 H         1 EE4         0.1891
     68 H27       -19.6235   23.4907   12.2082 H         1 EE4         0.1852
     69 H28       -15.8156   27.9447    8.3767 H         1 EE4         0.2935
@<TRIPOS>BOND
     1    1   15 ar 
     2   16    1 ar 
     3   17    2 ar 
     4    2   18 ar 
     5    3   17 1  
     6   32    3 am 
     7    3   39 2  
     8    5    4 1  
     9    4   33 1  
    10   19    5 1  
    11    5   34 1  
    12    6    7 1  
    13   34    6 am 
    14    6   40 2  
    15    7   21 ar 
    16    7   25 ar 
    17   21    8 ar 
    18    8   22 ar 
    19    8   23 2  
    20   10    9 1  
    21   11   10 1  
    22   37   11 1  
    23   13   12 ar 
    24   12   30 ar 
    25   12   37 1  
    26   14   13 1  
    27   13   26 ar 
    28   15   14 1  
    29   14   38 2  
    30   18   15 ar 
    31   17   16 ar 
    32   19   20 1  
    33   19   32 1  
    34   20   33 2  
    35   22   24 ar 
    36   22   35 2  
    37   23   36 1  
    38   24   25 ar 
    39   26   27 ar 
    40   26   31 1  
    41   27   29 ar 
    42   27   41 1  
    43   41   28 1  
    44   29   30 ar 
    45   35   36 1  
    46    1   42 1  
    47    2   43 1  
    48    4   44 1  
    49    4   45 1  
    50    5   46 1  
    51    9   47 1  
    52    9   48 1  
    53    9   49 1  
    54   10   50 1  
    55   10   51 1  
    56   11   52 1  
    57   11   53 1  
    58   16   54 1  
    59   18   55 1  
    60   19   56 1  
    61   20   57 1  
    62   21   58 1  
    63   23   59 1  
    64   24   60 1  
    65   25   61 1  
    66   28   62 1  
    67   28   63 1  
    68   28   64 1  
    69   29   65 1  
    70   30   66 1  
    71   32   67 1  
    72   34   68 1  
    73   36   69 1  
@<TRIPOS>SUBSTRUCTURE
     1 EE4         1

