### 
### Created by X-TOOL on Wed Jan  1 15:39:37 2020
### 

@<TRIPOS>MOLECULE
6c0u_ligand
   69    73     1     0     0
SMALL
GAST_HUCK


@<TRIPOS>ATOM
      1 C10        -7.9840   56.9770   91.8210 C.ar      1 EE4        -0.0386
      2 C13        -8.6930   59.6690   92.3380 C.ar      1 EE4        -0.0367
      3 C15        -9.3680   60.0870   89.9170 C.2       1 EE4         0.2109
      4 C21       -11.2610   64.3600   89.6990 C.3       1 EE4         0.0275
      5 C22       -11.4940   63.0370   89.6930 C.3       1 EE4         0.0909
      6 C24       -13.7280   61.7840   89.1020 C.2       1 EE4         0.2055
      7 C26       -14.8650   61.5820   88.1590 C.ar      1 EE4         0.0509
      8 C28       -15.8750   62.0180   85.9590 C.ar      1 EE4         0.0384
      9 C01        -2.9880   61.3350   95.7800 C.3       1 EE4        -0.0628
     10 C02        -3.9730   60.4050   95.0930 C.3       1 EE4        -0.0280
     11 C03        -4.5840   59.3010   96.0850 C.3       1 EE4         0.0695
     12 C05        -6.5860   57.9680   96.2980 C.ar      1 EE4         0.0989
     13 C06        -7.4410   56.9740   95.7370 C.ar      1 EE4         0.0888
     14 C07        -7.2990   56.5840   94.2750 C.2       1 EE4         0.1544
     15 C09        -7.8490   57.5050   93.1270 C.ar      1 EE4         0.0348
     16 C11        -8.4600   57.7780   90.8020 C.ar      1 EE4        -0.0367
     17 C12        -8.8240   59.1650   91.0800 C.ar      1 EE4         0.0541
     18 C14        -8.2000   58.8430   93.3900 C.ar      1 EE4        -0.0386
     19 C18       -10.2050   62.3440   89.2030 C.3       1 EE4         0.1241
     20 C19        -9.1630   63.4650   88.9490 C.2       1 EE4         0.0266
     21 C27       -14.7980   62.1830   86.8690 C.ar      1 EE4        -0.0269
     22 C29       -17.0080   61.2760   86.3370 C.ar      1 EE4        -0.0092
     23 C32       -16.1410   62.4630   84.6060 C.2       1 EE4         0.1104
     24 C33       -17.0800   60.6710   87.6460 C.ar      1 EE4        -0.0531
     25 C34       -16.0100   60.8340   88.5450 C.ar      1 EE4        -0.0419
     26 C35        -8.3870   56.3580   96.5110 C.ar      1 EE4         0.1715
     27 C37        -8.5190   56.7010   97.8370 C.ar      1 EE4         0.1188
     28 C39       -10.8950   56.3450   98.2680 C.3       1 EE4         0.0562
     29 C40        -7.6790   57.6760   98.3840 C.ar      1 EE4        -0.0380
     30 C41        -6.7140   58.3020   97.5960 C.ar      1 EE4        -0.0387
     31 F36        -9.1850   55.4120   95.9470 F         1 EE4        -0.1869
     32 N17        -9.7270   61.5180   90.2180 N.am      1 EE4        -0.2608
     33 N20        -9.7100   64.6180   89.3490 N.2       1 EE4        -0.3431
     34 N23       -12.7060   62.7500   88.7430 N.am      1 EE4        -0.2769
     35 N30       -17.8670   61.2870   85.2820 N.2       1 EE4        -0.3319
     36 N31       -17.3480   61.9960   84.2410 N.pl3     1 EE4        -0.2442
     37 O04        -5.5390   58.6420   95.4240 O.3       1 EE4        -0.3204
     38 O08        -6.7430   55.5440   93.9850 O.2       1 EE4        -0.3748
     39 O16        -9.4840   59.6710   88.8440 O.2       1 EE4        -0.3827
     40 O25       -13.6720   61.1980   90.1060 O.2       1 EE4        -0.3846
     41 O38        -9.4690   56.0880   98.6420 O.3       1 EE4        -0.3271
     42 H1         -7.7144   55.9463   91.6211 H         1 EE4         0.0679
     43 H2         -8.9638   60.6991   92.5397 H         1 EE4         0.0679
     44 H3        -11.4882   64.7705   90.6939 H         1 EE4         0.0399
     45 H4        -11.8959   64.8502   88.9463 H         1 EE4         0.0399
     46 H5        -11.7363   62.6888   90.7079 H         1 EE4         0.0623
     47 H6         -2.6053   62.0659   95.0525 H         1 EE4         0.0231
     48 H7         -2.1506   60.7478   96.1849 H         1 EE4         0.0231
     49 H8         -3.4947   61.8648   96.6001 H         1 EE4         0.0231
     50 H9         -3.4547   59.8899   94.2708 H         1 EE4         0.0288
     51 H10        -4.7989   61.0068   94.6860 H         1 EE4         0.0288
     52 H11        -5.0127   59.7909   96.9717 H         1 EE4         0.0613
     53 H12        -3.7949   58.6015   96.3981 H         1 EE4         0.0613
     54 H13        -8.5632   57.3790   89.7994 H         1 EE4         0.0679
     55 H14        -8.0954   59.2445   94.3914 H         1 EE4         0.0679
     56 H15       -10.3928   61.7643   88.2873 H         1 EE4         0.0863
     57 H16        -8.1689   63.3366   88.5233 H         1 EE4         0.1229
     58 H17       -13.9283   62.7638   86.5836 H         1 EE4         0.0680
     59 H18       -15.4783   63.0704   83.9913 H         1 EE4         0.1370
     60 H19       -17.9522   60.0953   87.9341 H         1 EE4         0.0630
     61 H20       -16.0590   60.3889   89.5322 H         1 EE4         0.0669
     62 H21       -11.5586   55.8150   98.9671 H         1 EE4         0.0571
     63 H22       -11.0766   55.9838   97.2450 H         1 EE4         0.0571
     64 H23       -11.0981   57.4250   98.3171 H         1 EE4         0.0571
     65 H24        -7.7789   57.9472   99.4288 H         1 EE4         0.0545
     66 H25        -6.0673   59.0571   98.0281 H         1 EE4         0.0496
     67 H26        -9.6224   61.8753   91.1461 H         1 EE4         0.1891
     68 H27       -12.7768   63.2406   87.8745 H         1 EE4         0.1852
     69 H28       -17.8027   62.1484   83.3295 H         1 EE4         0.2935
@<TRIPOS>BOND
     1    1   15 ar 
     2   16    1 ar 
     3   17    2 ar 
     4    2   18 ar 
     5    3   17 1  
     6   32    3 am 
     7    3   39 2  
     8    5    4 1  
     9    4   33 1  
    10   19    5 1  
    11    5   34 1  
    12    6    7 1  
    13   34    6 am 
    14    6   40 2  
    15    7   21 ar 
    16    7   25 ar 
    17   21    8 ar 
    18    8   22 ar 
    19    8   23 2  
    20   10    9 1  
    21   11   10 1  
    22   37   11 1  
    23   13   12 ar 
    24   12   30 ar 
    25   12   37 1  
    26   14   13 1  
    27   13   26 ar 
    28   15   14 1  
    29   14   38 2  
    30   18   15 ar 
    31   17   16 ar 
    32   19   20 1  
    33   19   32 1  
    34   20   33 2  
    35   22   24 ar 
    36   22   35 2  
    37   23   36 1  
    38   24   25 ar 
    39   26   27 ar 
    40   26   31 1  
    41   27   29 ar 
    42   27   41 1  
    43   41   28 1  
    44   29   30 ar 
    45   35   36 1  
    46    1   42 1  
    47    2   43 1  
    48    4   44 1  
    49    4   45 1  
    50    5   46 1  
    51    9   47 1  
    52    9   48 1  
    53    9   49 1  
    54   10   50 1  
    55   10   51 1  
    56   11   52 1  
    57   11   53 1  
    58   16   54 1  
    59   18   55 1  
    60   19   56 1  
    61   20   57 1  
    62   21   58 1  
    63   23   59 1  
    64   24   60 1  
    65   25   61 1  
    66   28   62 1  
    67   28   63 1  
    68   28   64 1  
    69   29   65 1  
    70   30   66 1  
    71   32   67 1  
    72   34   68 1  
    73   36   69 1  
@<TRIPOS>SUBSTRUCTURE
     1 EE4         1

