### 
### Created by X-TOOL on Wed Jan  1 15:39:37 2020
### 

@<TRIPOS>MOLECULE
6c1s_ligand
   44    47     1     0     0
SMALL
GAST_HUCK


@<TRIPOS>ATOM
      1 C1         25.5050   61.4880   18.3370 C.3       1 EFV         0.0588
      2 C3         26.3770   60.7360   20.4810 C.ar      1 EFV         0.1514
      3 C4         25.1870   60.8690   21.2020 C.ar      1 EFV        -0.0107
      4 C5         24.9810   60.1870   22.4160 C.ar      1 EFV         0.0062
      5 C6         26.0040   59.3470   22.8620 C.ar      1 EFV         0.0005
      6 C8         27.3660   59.8860   21.0130 C.ar      1 EFV         0.1992
      7 O2         26.5660   61.4280   19.3010 O.3       1 EFV        -0.3163
      8 N7         27.1350   59.2510   22.1710 N.ar      1 EFV        -0.2796
      9 O9         28.5710   59.7870   20.3660 O.3       1 EFV        -0.3042
     10 C10        29.4680   58.6990   20.6110 C.3       1 EFV         0.0615
     11 C11        23.6450   60.2890   23.0610 C.ar      1 EFV         0.0447
     12 C12        23.2120   59.3460   24.0160 C.ar      1 EFV        -0.0310
     13 C13        21.9150   59.4070   24.4990 C.ar      1 EFV        -0.0304
     14 C14        21.0820   60.4300   24.0300 C.ar      1 EFV         0.0831
     15 C15        21.5560   61.3270   23.0570 C.ar      1 EFV         0.0718
     16 N16        22.7890   61.2170   22.6020 N.ar      1 EFV        -0.2871
     17 C17        20.4190   62.2630   22.7390 C.3       1 EFV         0.0986
     18 N18        19.2740   61.8100   23.5560 N.am      1 EFV        -0.2243
     19 C19        19.6880   60.7640   24.3140 C.2       1 EFV         0.2280
     20 O20        19.0140   60.1330   25.0900 O.2       1 EFV        -0.3801
     21 C21        17.9670   62.3860   23.5490 C.2       1 EFV         0.0789
     22 C22        17.5960   63.6390   23.0250 C.2       1 EFV         0.0206
     23 N23        16.3140   63.8130   23.2060 N.2       1 EFV        -0.2232
     24 N24        15.7890   62.6730   23.8280 N.pl3     1 EFV        -0.1978
     25 C25        16.8260   61.8220   24.0350 C.2       1 EFV         0.0628
     26 C26        14.3870   62.4530   24.2200 C.3       1 EFV         0.1877
     27 C27        13.6460   61.6170   23.2560 C.1       1 EFV         0.1253
     28 N28        13.0540   60.9660   22.5310 N.1       1 EFV        -0.3004
     29 H1         25.8327   62.0764   17.4673 H         1 EFV         0.0576
     30 H2         24.6236   61.9645   18.7910 H         1 EFV         0.0576
     31 H3         25.2453   60.4692   18.0136 H         1 EFV         0.0576
     32 H4         24.4042   61.5126   20.8172 H         1 EFV         0.0641
     33 H5         25.8752   58.7730   23.7725 H         1 EFV         0.0723
     34 H6         30.3677   58.8185   19.9894 H         1 EFV         0.0581
     35 H7         28.9714   57.7504   20.3588 H         1 EFV         0.0581
     36 H8         29.7544   58.6919   21.6730 H         1 EFV         0.0581
     37 H9         23.8901   58.5779   24.3701 H         1 EFV         0.0658
     38 H10        21.5549   58.6825   25.2204 H         1 EFV         0.0759
     39 H11        20.1690   62.2102   21.6691 H         1 EFV         0.0775
     40 H12        20.6902   63.2962   23.0017 H         1 EFV         0.0775
     41 H13        18.2691   64.3486   22.5461 H         1 EFV         0.0620
     42 H14        16.7571   60.8457   24.5126 H         1 EFV         0.0763
     43 H15        13.8862   63.4295   24.2954 H         1 EFV         0.0937
     44 H16        14.3707   61.9558   25.2010 H         1 EFV         0.0937
@<TRIPOS>BOND
     1    7    1 1  
     2    2    3 ar 
     3    2    6 ar 
     4    2    7 1  
     5    3    4 ar 
     6    4    5 ar 
     7    4   11 1  
     8    5    8 ar 
     9    6    8 ar 
    10    6    9 1  
    11    9   10 1  
    12   11   12 ar 
    13   11   16 ar 
    14   12   13 ar 
    15   13   14 ar 
    16   14   15 ar 
    17   14   19 1  
    18   15   16 ar 
    19   15   17 1  
    20   17   18 1  
    21   18   19 am 
    22   18   21 1  
    23   19   20 2  
    24   21   22 1  
    25   21   25 2  
    26   22   23 2  
    27   23   24 1  
    28   24   25 1  
    29   24   26 1  
    30   26   27 1  
    31   27   28 3  
    32    1   29 1  
    33    1   30 1  
    34    1   31 1  
    35    3   32 1  
    36    5   33 1  
    37   10   34 1  
    38   10   35 1  
    39   10   36 1  
    40   12   37 1  
    41   13   38 1  
    42   17   39 1  
    43   17   40 1  
    44   22   41 1  
    45   25   42 1  
    46   26   43 1  
    47   26   44 1  
@<TRIPOS>SUBSTRUCTURE
     1 EFV         1

