### 
### Created by X-TOOL on Mon Aug  2 16:12:43 2021
### 

@<TRIPOS>MOLECULE
6c2r_ligand
   60    63     1     0     0
SMALL
GAST_HUCK


@<TRIPOS>ATOM
      1 C7        112.4940  -20.1560    5.3910 C.ar      1 EG7         0.0356
      2 C6        109.8190  -16.2510    3.0050 C.2       1 EG7        -0.0267
      3 C1        111.9950  -22.2620    4.2910 C.ar      1 EG7        -0.0718
      4 C5        106.4890  -14.1590    5.3540 C.ar      1 EG7        -0.0218
      5 C4        112.4890  -21.7360    3.0920 C.ar      1 EG7        -0.0566
      6 C3        106.4380  -13.8370    6.7080 C.ar      1 EG7        -0.0265
      7 C2        111.9960  -21.4740    5.4500 C.ar      1 EG7        -0.0568
      8 C8        107.4270  -14.3360    7.5540 C.ar      1 EG7         0.1460
      9 C9        113.0010  -19.6490    4.2000 C.ar      1 EG7         0.1522
     10 C10       113.0040  -20.4420    3.0580 C.ar      1 EG7         0.0670
     11 C11       108.4230  -15.1680    7.0280 C.ar      1 EG7         0.0473
     12 C12       110.3580  -16.6500    1.7630 C.2       1 EG7         0.0556
     13 C13       107.5230  -15.0020    4.9190 C.ar      1 EG7         0.1160
     14 C14       108.5730  -15.7600    2.6820 C.2       1 EG7         0.0932
     15 C15       107.8820  -17.2400    9.2740 C.2       1 EG7         0.0534
     16 C16       108.9660  -18.1580    7.1350 C.3       1 EG7        -0.0002
     17 C17       110.2240  -17.8330    9.2460 C.3       1 EG7         0.0024
     18 C18       110.2850  -18.4680    6.4190 C.3       1 EG7        -0.0302
     19 C19       111.5380  -18.2380    8.5470 C.3       1 EG7        -0.0223
     20 C20       109.1180  -17.2310    8.3550 C.3       1 EG7         0.0368
     21 C21       111.6840  -17.2360    1.4500 C.3       1 EG7        -0.0041
     22 C22       112.3600  -18.9790    9.6130 C.3       1 EG7        -0.0216
     23 C23       112.5660  -19.2650    6.5980 C.3       1 EG7         0.0031
     24 C24       109.4580  -15.7830    7.9440 C.3       1 EG7         0.0043
     25 N25       108.4930  -15.5070    5.7160 N.ar      1 EG7        -0.2855
     26 N26       108.4590  -15.8740    1.3440 N.2       1 EG7        -0.2302
     27 N27       109.5260  -16.4190    0.7550 N.pl3     1 EG7        -0.2344
     28 N28       111.3070  -19.0470    7.3210 N.4       1 EG7         0.2485
     29 N29       107.5790  -15.2810    3.5400 N.pl3     1 EG7        -0.2666
     30 O30       107.9560  -17.1940   10.4950 O.co2     1 EG7        -0.5473
     31 O31       106.6570  -17.3150    8.6830 O.co2     1 EG7        -0.5473
     32 F32       107.3700  -14.0760    8.8550 F         1 EG7        -0.1907
     33 F33       113.4530  -18.3770    4.1700 F         1 EG7        -0.1881
     34 CL1       113.6850  -19.8170    1.6100 Cl        1 EG7        -0.0741
     35 H1        110.2805  -16.3161    3.9892 H         1 EG7         0.0216
     36 H2        111.6127  -23.2759    4.3232 H         1 EG7         0.0565
     37 H3        105.7536  -13.7709    4.6586 H         1 EG7         0.0550
     38 H4        112.4709  -22.3357    2.1892 H         1 EG7         0.0555
     39 H5        105.6438  -13.2099    7.0968 H         1 EG7         0.0668
     40 H6        111.6173  -21.8741    6.3836 H         1 EG7         0.0549
     41 H7        108.5255  -19.1070    7.4746 H         1 EG7         0.0316
     42 H8        108.2875  -17.6752    6.4163 H         1 EG7         0.0316
     43 H9        110.4728  -17.0881   10.0161 H         1 EG7         0.0319
     44 H10       109.8115  -18.7328    9.7258 H         1 EG7         0.0319
     45 H11       110.6811  -17.5345    5.9929 H         1 EG7         0.0814
     46 H12       110.0849  -19.1849    5.6091 H         1 EG7         0.0814
     47 H13       112.0797  -17.3288    8.2471 H         1 EG7         0.0848
     48 H14       111.7567  -17.4217    0.3682 H         1 EG7         0.0437
     49 H15       111.8032  -18.1848    1.9937 H         1 EG7         0.0437
     50 H16       112.4756  -16.5362    1.7559 H         1 EG7         0.0437
     51 H17       113.3188  -19.2994    9.1794 H         1 EG7         0.0284
     52 H18       111.8013  -19.8610    9.9593 H         1 EG7         0.0284
     53 H19       112.5484  -18.3071   10.4633 H         1 EG7         0.0284
     54 H20       112.9376  -18.2835    6.2685 H         1 EG7         0.0972
     55 H21       113.2838  -19.7114    7.3019 H         1 EG7         0.0972
     56 H22       109.5299  -15.1686    8.8536 H         1 EG7         0.0442
     57 H23       110.4279  -15.7849    7.4251 H         1 EG7         0.0442
     58 H24       109.6697  -16.6143   -0.2461 H         1 EG7         0.2450
     59 H25       110.9651  -19.9471    7.6193 H         1 EG7         0.2050
     60 H26       106.6901  -15.0896    3.0561 H         1 EG7         0.2075
@<TRIPOS>BOND
     1    1    7 ar 
     2    1    9 ar 
     3   23    1 1  
     4    2   12 2  
     5   14    2 1  
     6    3    5 ar 
     7    7    3 ar 
     8    6    4 ar 
     9   13    4 ar 
    10   10    5 ar 
    11    8    6 ar 
    12   11    8 ar 
    13    8   32 1  
    14    9   10 ar 
    15    9   33 1  
    16   10   34 1  
    17   24   11 1  
    18   11   25 ar 
    19   12   21 1  
    20   12   27 1  
    21   25   13 ar 
    22   13   29 1  
    23   14   26 2  
    24   29   14 1  
    25   20   15 1  
    26   15   30 ar 
    27   15   31 ar 
    28   18   16 1  
    29   16   20 1  
    30   19   17 1  
    31   17   20 1  
    32   28   18 1  
    33   19   22 1  
    34   28   19 1  
    35   20   24 1  
    36   23   28 1  
    37   26   27 1  
    38    2   35 1  
    39    3   36 1  
    40    4   37 1  
    41    5   38 1  
    42    6   39 1  
    43    7   40 1  
    44   16   41 1  
    45   16   42 1  
    46   17   43 1  
    47   17   44 1  
    48   18   45 1  
    49   18   46 1  
    50   19   47 1  
    51   21   48 1  
    52   21   49 1  
    53   21   50 1  
    54   22   51 1  
    55   22   52 1  
    56   22   53 1  
    57   23   54 1  
    58   23   55 1  
    59   24   56 1  
    60   24   57 1  
    61   27   58 1  
    62   28   59 1  
    63   29   60 1  
@<TRIPOS>SUBSTRUCTURE
     1 EG7         1

