### 
### Created by X-TOOL on Mon Aug  2 16:12:43 2021
### 

@<TRIPOS>MOLECULE
6c2t_ligand
   62    66     1     0     0
SMALL
GAST_HUCK


@<TRIPOS>ATOM
      1 C7        112.1470  -21.5490    2.7760 C.ar      1 EGJ        -0.0566
      2 C6        112.0000  -21.4250    5.1920 C.ar      1 EGJ        -0.0568
      3 C1        104.9390  -13.3560    8.3690 C.ar      1 EGJ        -0.0618
      4 C5        107.2090  -14.1450    8.6130 C.ar      1 EGJ        -0.0510
      5 C4        104.9580  -13.6750    7.0220 C.ar      1 EGJ        -0.0558
      6 C3        111.9780  -22.1780    4.0080 C.ar      1 EGJ        -0.0718
      7 C2        106.0220  -13.6700    9.1800 C.ar      1 EGJ        -0.0607
      8 C8        106.1410  -14.4720    5.0430 C.ar      1 EGJ        -0.0209
      9 C9        109.4830  -16.4540    0.5950 C.2       1 EGJ        -0.0397
     10 C10       110.4790  -16.7230    1.5050 C.2       1 EGJ        -0.0030
     11 C11       106.1460  -14.1210    6.4050 C.ar      1 EGJ        -0.0211
     12 C12       107.2810  -14.4010    7.2210 C.ar      1 EGJ         0.0062
     13 C13       112.2410  -20.0460    5.1350 C.ar      1 EGJ         0.0356
     14 C14       112.4210  -19.4170    3.8990 C.ar      1 EGJ         0.1522
     15 C15       112.3790  -20.1660    2.7260 C.ar      1 EGJ         0.0670
     16 C16       108.3850  -15.0130    6.6080 C.ar      1 EGJ         0.0337
     17 C17       107.3200  -14.9970    4.5460 C.ar      1 EGJ         0.1256
     18 C18       108.4690  -15.8010    2.4030 C.2       1 EGJ         0.2009
     19 C19       108.5820  -17.2050    8.6090 C.2       1 EGJ         0.0538
     20 C20       109.6100  -17.8240    6.4620 C.3       1 EGJ         0.0002
     21 C21       111.0920  -17.1810    8.3890 C.3       1 EGJ         0.0028
     22 C22       109.9360  -19.2690    6.8100 C.3       1 EGJ        -0.0301
     23 C23       111.3780  -18.6830    8.6550 C.3       1 EGJ        -0.0222
     24 C24       109.7450  -16.9090    7.6910 C.3       1 EGJ         0.0390
     25 C25       112.7340  -18.8350    9.3580 C.3       1 EGJ        -0.0216
     26 C26       112.3520  -19.2450    6.4050 C.3       1 EGJ         0.0031
     27 C27       109.6570  -15.4260    7.3060 C.3       1 EGJ         0.0098
     28 N28       108.2870  -16.0550    1.1300 N.2       1 EGJ        -0.3155
     29 N29       108.4030  -15.2890    5.2960 N.ar      1 EGJ        -0.2757
     30 N30       111.2820  -19.4660    7.3880 N.4       1 EGJ         0.2485
     31 N31       107.3980  -15.3810    3.1880 N.pl3     1 EGJ        -0.2271
     32 O32       107.5320  -17.6940    8.2380 O.co2     1 EGJ        -0.5473
     33 O33       108.8280  -16.8370    9.8820 O.co2     1 EGJ        -0.5473
     34 F34       112.6580  -18.0960    3.8070 F         1 EGJ        -0.1881
     35 S35       109.9940  -16.2530    3.0780 S.3       1 EGJ         0.0150
     36 CL1       112.7250  -19.3640    1.2460 Cl        1 EGJ        -0.0741
     37 H1        112.0994  -22.1260    1.8596 H         1 EGJ         0.0555
     38 H2        111.8311  -21.9086    6.1473 H         1 EGJ         0.0549
     39 H3        104.0743  -12.8585    8.7931 H         1 EGJ         0.0640
     40 H4        108.0762  -14.3178    9.2400 H         1 EGJ         0.0654
     41 H5        104.0512  -13.5812    6.4355 H         1 EGJ         0.0596
     42 H6        111.8293  -23.2509    4.0518 H         1 EGJ         0.0565
     43 H7        105.9471  -13.5467   10.2544 H         1 EGJ         0.0594
     44 H8        105.2644  -14.3388    4.4194 H         1 EGJ         0.0497
     45 H9        109.6353  -16.5518   -0.4789 H         1 EGJ         0.0511
     46 H10       111.4404  -17.1717    1.2593 H         1 EGJ         0.0608
     47 H11       108.5774  -17.7700    6.0868 H         1 EGJ         0.0316
     48 H12       110.3027  -17.4786    5.6804 H         1 EGJ         0.0316
     49 H13       111.8967  -16.7838    7.7528 H         1 EGJ         0.0319
     50 H14       111.0933  -16.6532    9.3541 H         1 EGJ         0.0319
     51 H15       109.8644  -19.8694    5.8911 H         1 EGJ         0.0814
     52 H16       109.1927  -19.6241    7.5389 H         1 EGJ         0.0814
     53 H17       110.6042  -19.0637    9.3379 H         1 EGJ         0.0848
     54 H18       112.9328  -19.9007    9.5446 H         1 EGJ         0.0284
     55 H19       112.7138  -18.2928   10.3148 H         1 EGJ         0.0284
     56 H20       113.5272  -18.4206    8.7183 H         1 EGJ         0.0284
     57 H21       112.3488  -18.1788    6.1346 H         1 EGJ         0.0972
     58 H22       113.3094  -19.4991    6.8834 H         1 EGJ         0.0972
     59 H23       109.7478  -14.8305    8.2264 H         1 EGJ         0.0477
     60 H24       110.5003  -15.1984    6.6374 H         1 EGJ         0.0477
     61 H25       111.3518  -20.4369    7.6499 H         1 EGJ         0.2050
     62 H26       106.4985  -15.3433    2.6875 H         1 EGJ         0.2238
@<TRIPOS>BOND
     1    6    1 ar 
     2   15    1 ar 
     3    2    6 ar 
     4   13    2 ar 
     5    5    3 ar 
     6    7    3 ar 
     7    4    7 ar 
     8   12    4 ar 
     9   11    5 ar 
    10   11    8 ar 
    11   17    8 ar 
    12   10    9 2  
    13   28    9 1  
    14   35   10 1  
    15   12   11 ar 
    16   16   12 ar 
    17   13   14 ar 
    18   26   13 1  
    19   14   15 ar 
    20   14   34 1  
    21   15   36 1  
    22   27   16 1  
    23   16   29 ar 
    24   29   17 ar 
    25   17   31 1  
    26   18   28 2  
    27   31   18 1  
    28   18   35 1  
    29   24   19 1  
    30   19   32 ar 
    31   19   33 ar 
    32   22   20 1  
    33   20   24 1  
    34   23   21 1  
    35   21   24 1  
    36   30   22 1  
    37   23   25 1  
    38   30   23 1  
    39   24   27 1  
    40   26   30 1  
    41    1   37 1  
    42    2   38 1  
    43    3   39 1  
    44    4   40 1  
    45    5   41 1  
    46    6   42 1  
    47    7   43 1  
    48    8   44 1  
    49    9   45 1  
    50   10   46 1  
    51   20   47 1  
    52   20   48 1  
    53   21   49 1  
    54   21   50 1  
    55   22   51 1  
    56   22   52 1  
    57   23   53 1  
    58   25   54 1  
    59   25   55 1  
    60   25   56 1  
    61   26   57 1  
    62   26   58 1  
    63   27   59 1  
    64   27   60 1  
    65   30   61 1  
    66   31   62 1  
@<TRIPOS>SUBSTRUCTURE
     1 EGJ         1

