### 
### Created by X-TOOL on Wed Jan  1 15:39:37 2020
### 

@<TRIPOS>MOLECULE
6c2x_ligand
   26    26     1     0     0
SMALL
GAST_HUCK


@<TRIPOS>ATOM
      1 C01        36.0130   76.9220   64.2850 C.3       1 EHV        -0.0304
      2 C02        34.6020   76.8670   63.6610 C.ar      1 EHV        -0.0363
      3 C03        33.7380   75.6320   63.9350 C.ar      1 EHV        -0.0601
      4 C04        32.4310   75.5300   63.3940 C.ar      1 EHV        -0.0690
      5 C05        31.8840   76.6370   62.5180 C.ar      1 EHV        -0.0624
      6 C06        32.7300   77.7830   62.2630 C.ar      1 EHV         0.0114
      7 C08        34.0900   77.9330   62.8320 C.ar      1 EHV         0.0106
      8 C09        34.9500   79.1570   62.5170 C.2       1 EHV         0.0789
      9 C11        35.0730   79.9220   63.2680 C.2       1 EHV        -0.0231
     10 C12        36.3280   80.9070   63.2280 C.3       1 EHV         0.1254
     11 C14        37.4030   80.7380   64.1020 C.2       1 EHV         0.0717
     12 O10        35.5730   79.2170   61.1140 O.3       1 EHV        -0.3468
     13 O13        36.6330   81.5790   61.9840 O.3       1 EHV        -0.3693
     14 O15        38.5780   81.0840   63.6280 O.co2     1 EHV        -0.5642
     15 O16        37.0550   80.1920   65.4160 O.co2     1 EHV        -0.5642
     16 BR07       32.0160   79.1090   61.2140 Br        1 EHV        -0.0546
     17 H1         36.1896   76.0094   64.8733 H         1 EHV         0.0393
     18 H2         36.0898   77.8016   64.9410 H         1 EHV         0.0393
     19 H3         36.7650   76.9940   63.4854 H         1 EHV         0.0393
     20 H4         34.1294   74.8284   64.5483 H         1 EHV         0.0568
     21 H5         31.8230   74.6584   63.6080 H         1 EHV         0.0579
     22 H6         30.8882   76.5731   62.0944 H         1 EHV         0.0579
     23 H7         34.3335   80.0229   64.0610 H         1 EHV         0.0468
     24 H8         35.8520   81.7521   63.7469 H         1 EHV         0.0883
     25 H9         36.5188   79.2628   61.1904 H         1 EHV         0.2413
     26 H10        37.2883   81.0815   61.5090 H         1 EHV         0.2152
@<TRIPOS>BOND
     1    1    2 1  
     2    2    3 ar 
     3    2    7 ar 
     4    3    4 ar 
     5    4    5 ar 
     6    5    6 ar 
     7    6    7 ar 
     8    6   16 1  
     9    7    8 1  
    10    8    9 2  
    11    8   12 1  
    12    9   10 1  
    13   10   11 1  
    14   10   13 1  
    15   11   14 ar 
    16   11   15 ar 
    17    1   17 1  
    18    1   18 1  
    19    1   19 1  
    20    3   20 1  
    21    4   21 1  
    22    5   22 1  
    23    9   23 1  
    24   10   24 1  
    25   12   25 1  
    26   13   26 1  
@<TRIPOS>SUBSTRUCTURE
     1 EHV         1

