### 
### Created by X-TOOL on Wed Jan  1 15:39:38 2020
### 

@<TRIPOS>MOLECULE
6c2y_ligand
   64    68     1     0     0
SMALL
GAST_HUCK


@<TRIPOS>ATOM
      1 O01       -19.9980   28.5950   16.2080 O.2       1 EJS        -0.3842
      2 C02       -19.5570   28.3340   17.2760 C.2       1 EJS         0.2130
      3 C03       -18.3410   29.0730   17.8230 C.3       1 EJS         0.1087
      4 C04       -18.5810   29.7290   19.1210 C.3       1 EJS         0.0634
      5 C05       -19.9880   29.7340   19.7260 C.3       1 EJS        -0.0396
      6 N06       -17.6210   30.6530   19.6380 N.am      1 EJS        -0.2675
      7 C07       -16.4710   31.0780   18.8030 C.2       1 EJS         0.2599
      8 N08       -16.2820   30.5620   17.4130 N.am      1 EJS        -0.2569
      9 C09       -17.2940   29.5860   16.8870 C.3       1 EJS         0.0972
     10 C10       -16.4830   28.3610   16.4130 C.ar      1 EJS        -0.0139
     11 C11       -15.3020   28.0450   17.0660 C.ar      1 EJS        -0.0398
     12 C12       -14.5550   26.9510   16.6610 C.ar      1 EJS         0.0769
     13 C13       -13.2480   26.6190   17.3900 C.2       1 EJS         0.2052
     14 N14       -12.9940   27.1720   18.7150 N.am      1 EJS        -0.2660
     15 C15       -11.7460   26.8600   19.4000 C.3       1 EJS         0.1254
     16 C16       -11.7230   25.4010   19.8750 C.2       1 EJS         0.2335
     17 N17       -12.4840   24.4030   19.4150 N.2       1 EJS        -0.2734
     18 C18       -12.1490   23.2850   20.1010 C.2       1 EJS         0.1029
     19 C19       -12.7520   21.8900   19.9260 C.3       1 EJS         0.0978
     20 O20       -11.7090   21.0140   19.6000 O.3       1 EJS        -0.3693
     21 C21       -12.1050   19.9180   18.8290 C.3       1 EJS         0.0391
     22 N22       -11.1900   23.6070   20.9600 N.2       1 EJS        -0.1425
     23 O23       -10.9330   24.9080   20.8160 O.3       1 EJS        -0.1457
     24 O24       -12.4440   25.9180   16.8760 O.2       1 EJS        -0.3868
     25 C25       -14.9890   26.1760   15.6010 C.ar      1 EJS         0.1459
     26 F26       -14.2550   25.1000   15.1980 F         1 EJS        -0.1831
     27 C27       -16.1730   26.4890   14.9460 C.ar      1 EJS        -0.0287
     28 C28       -16.9220   27.5840   15.3550 C.ar      1 EJS        -0.0553
     29 O29       -15.6890   31.8450   19.2490 O.2       1 EJS        -0.4007
     30 N30       -20.1360   27.3330   18.1550 N.am      1 EJS        -0.2334
     31 C31       -21.3320   26.5780   17.8490 C.ar      1 EJS         0.0673
     32 C32       -22.2760   27.1100   16.9780 C.ar      1 EJS        -0.0264
     33 C33       -23.4670   26.4070   16.7060 C.ar      1 EJS         0.0189
     34 C34       -24.6100   26.6370   15.8710 C.2       1 EJS         0.1055
     35 N35       -25.4410   25.6200   16.0180 N.pl3     1 EJS        -0.2464
     36 N36       -24.9010   24.7570   16.8960 N.2       1 EJS        -0.3432
     37 C37       -23.7080   25.2070   17.3270 C.ar      1 EJS        -0.0308
     38 C38       -22.7610   24.6760   18.2370 C.ar      1 EJS        -0.0729
     39 C39       -21.5870   25.3700   18.5020 C.ar      1 EJS        -0.0412
     40 H1        -17.7771   28.2026   18.1897 H         1 EJS         0.0611
     41 H2        -18.2242   28.8770   19.7183 H         1 EJS         0.0581
     42 H3        -19.9712   30.2658   20.6888 H         1 EJS         0.0253
     43 H4        -20.3224   28.6982   19.8851 H         1 EJS         0.0253
     44 H5        -20.6809   30.2416   19.0388 H         1 EJS         0.0253
     45 H6        -17.7248   31.0138   20.5648 H         1 EJS         0.1850
     46 H7        -15.5080   30.8568   16.8527 H         1 EJS         0.1876
     47 H8        -17.8076   30.0567   16.0358 H         1 EJS         0.0738
     48 H9        -14.9623   28.6551   17.8951 H         1 EJS         0.0598
     49 H10       -13.6728   27.7625   19.1516 H         1 EJS         0.1881
     50 H11       -11.6397   27.5227   20.2715 H         1 EJS         0.0801
     51 H12       -10.9064   27.0255   18.7089 H         1 EJS         0.0801
     52 H13       -13.4974   21.9026   19.1172 H         1 EJS         0.0735
     53 H14       -13.2321   21.5691   20.8622 H         1 EJS         0.0735
     54 H15       -11.2316   19.2834   18.6180 H         1 EJS         0.0526
     55 H16       -12.5376   20.2730   17.8820 H         1 EJS         0.0526
     56 H17       -12.8574   19.3347   19.3800 H         1 EJS         0.0526
     57 H18       -16.5119   25.8790   14.1164 H         1 EJS         0.0599
     58 H19       -17.8477   27.8297   14.8474 H         1 EJS         0.0584
     59 H20       -19.6793   27.1543   19.0265 H         1 EJS         0.2257
     60 H21       -22.0954   28.0691   16.5063 H         1 EJS         0.0513
     61 H22       -24.7663   27.5010   15.2267 H         1 EJS         0.1367
     62 H23       -26.3472   25.5078   15.5415 H         1 EJS         0.2933
     63 H24       -22.9524   23.7280   18.7266 H         1 EJS         0.0577
     64 H25       -20.8709   24.9751   19.2136 H         1 EJS         0.0502
@<TRIPOS>BOND
     1    1    2 2  
     2    2    3 1  
     3    2   30 am 
     4    3    4 1  
     5    3    9 1  
     6    4    5 1  
     7    4    6 1  
     8    6    7 am 
     9    7    8 am 
    10    7   29 2  
    11    8    9 1  
    12    9   10 1  
    13   10   11 ar 
    14   10   28 ar 
    15   11   12 ar 
    16   12   13 1  
    17   12   25 ar 
    18   13   14 am 
    19   13   24 2  
    20   14   15 1  
    21   15   16 1  
    22   16   17 2  
    23   16   23 1  
    24   17   18 1  
    25   18   19 1  
    26   18   22 2  
    27   19   20 1  
    28   20   21 1  
    29   22   23 1  
    30   25   26 1  
    31   25   27 ar 
    32   27   28 ar 
    33   30   31 1  
    34   31   32 ar 
    35   31   39 ar 
    36   32   33 ar 
    37   33   34 2  
    38   33   37 ar 
    39   34   35 1  
    40   35   36 1  
    41   36   37 2  
    42   37   38 ar 
    43   38   39 ar 
    44    3   40 1  
    45    4   41 1  
    46    5   42 1  
    47    5   43 1  
    48    5   44 1  
    49    6   45 1  
    50    8   46 1  
    51    9   47 1  
    52   11   48 1  
    53   14   49 1  
    54   15   50 1  
    55   15   51 1  
    56   19   52 1  
    57   19   53 1  
    58   21   54 1  
    59   21   55 1  
    60   21   56 1  
    61   27   57 1  
    62   28   58 1  
    63   30   59 1  
    64   32   60 1  
    65   34   61 1  
    66   35   62 1  
    67   38   63 1  
    68   39   64 1  
@<TRIPOS>SUBSTRUCTURE
     1 EJS         1

