### 
### Created by X-TOOL on Wed Jan  1 15:39:38 2020
### 

@<TRIPOS>MOLECULE
6c3e_ligand
   30    32     1     0     0
SMALL
GAST_HUCK


@<TRIPOS>ATOM
      1 C4          6.0320  -12.8780  -26.1790 C.ar      1 EJY         0.1709
      2 C5          6.3190  -13.5870  -27.3420 C.ar      1 EJY         0.0573
      3 C6          6.7440  -12.9260  -28.4720 C.ar      1 EJY         0.0688
      4 C7          6.8940  -11.5470  -28.4460 C.ar      1 EJY         0.2137
      5 C10         7.2540   -9.4030  -28.8080 C.2       1 EJY         0.3107
      6 C13         7.4040   -5.7910  -28.8620 C.ar      1 EJY        -0.0261
      7 C15         5.2890   -4.6710  -28.9560 C.ar      1 EJY        -0.0447
      8 C17         5.4630   -6.9630  -29.6440 C.ar      1 EJY        -0.0261
      9 C20         6.1730  -11.5070  -26.1450 C.ar      1 EJY         0.0957
     10 O1          4.9680  -13.0530  -24.0880 O.2       1 EJY        -0.4905
     11 N2          5.5820  -13.6240  -24.9730 N.2       1 EJY        -0.2010
     12 O3          5.8380  -14.8120  -24.8510 O.2       1 EJY        -0.4905
     13 N8          7.2950  -10.6270  -29.3790 N.pl3     1 EJY        -0.1479
     14 C11         7.6610   -8.1650  -29.5620 C.3       1 EJY         0.1437
     15 C12         6.8110   -6.9470  -29.3420 C.ar      1 EJY         0.0349
     16 C14         6.6410   -4.6540  -28.6620 C.ar      1 EJY        -0.0438
     17 C16         4.7000   -5.8250  -29.4440 C.ar      1 EJY        -0.0438
     18 N18         6.8540   -9.5040  -27.5730 N.2       1 EJY        -0.0570
     19 C19         6.6110  -10.8140  -27.2830 C.ar      1 EJY         0.2439
     20 H1          6.2072  -14.6651  -27.3578 H         1 EJY         0.1448
     21 H2          6.9605  -13.4803  -29.3781 H         1 EJY         0.0985
     22 H3          8.4656   -5.7769  -28.6430 H         1 EJY         0.0713
     23 H4          4.6905   -3.7800  -28.8041 H         1 EJY         0.0760
     24 H5          5.0042   -7.8634  -30.0362 H         1 EJY         0.0713
     25 H6          5.9446  -10.9628  -25.2357 H         1 EJY         0.1392
     26 H7          7.5785  -10.8328  -30.3476 H         1 EJY         0.2618
     27 H8          7.6362   -8.4023  -30.6358 H         1 EJY         0.1169
     28 H9          8.6902   -7.9143  -29.2655 H         1 EJY         0.1169
     29 H10         7.1015   -3.7519  -28.2758 H         1 EJY         0.0675
     30 H11         3.6399   -5.8376  -29.6699 H         1 EJY         0.0675
@<TRIPOS>BOND
     1    2    1 ar 
     2    9    1 ar 
     3    1   11 1  
     4    3    2 ar 
     5    4    3 ar 
     6   13    4 1  
     7    4   19 ar 
     8    5   13 1  
     9   14    5 1  
    10    5   18 2  
    11   15    6 ar 
    12    6   16 ar 
    13   16    7 ar 
    14   17    7 ar 
    15   15    8 ar 
    16    8   17 ar 
    17   19    9 ar 
    18   11   10 2  
    19   11   12 2  
    20   14   15 1  
    21   18   19 1  
    22    2   20 1  
    23    3   21 1  
    24    6   22 1  
    25    7   23 1  
    26    8   24 1  
    27    9   25 1  
    28   13   26 1  
    29   14   27 1  
    30   14   28 1  
    31   16   29 1  
    32   17   30 1  
@<TRIPOS>SUBSTRUCTURE
     1 EJY         1

