### 
### Created by X-TOOL on Mon Aug  2 16:12:43 2021
### 

@<TRIPOS>MOLECULE
6c3l_ligand
   82    87     1     0     0
SMALL
GAST_HUCK


@<TRIPOS>ATOM
      1 N         -20.7010    3.7010    2.1500 N.pl3     1 EGP        -0.2634
      2 CA        -21.7120    4.5020    1.4540 C.3       1 EGP         0.1361
      3 C         -21.0100    5.8080    1.0720 C.2       1 EGP         0.2074
      4 O         -20.0090    6.1840    1.6800 O.2       1 EGP        -0.3940
      5 CAA       -14.7930    6.5360    6.4400 C.3       1 EGP        -0.0427
      6 CAD       -12.0360   -1.3820    1.7000 C.ar      1 EGP        -0.0768
      7 CAE       -11.8450   -1.1850    0.3410 C.ar      1 EGP        -0.0792
      8 CAF       -18.1510    0.7750    1.0810 C.ar      1 EGP        -0.0517
      9 CAG       -12.9380   -0.5650    2.3700 C.ar      1 EGP        -0.0443
     10 CAH       -12.5700   -0.1790   -0.2880 C.ar      1 EGP        -0.0747
     11 CAI       -18.2510    1.3220    2.3520 C.ar      1 EGP        -0.0811
     12 CAJ       -14.8860    2.0220    1.1090 C.2       1 EGP         0.0165
     13 CAK       -19.8770    2.2630    0.3770 C.ar      1 EGP        -0.0232
     14 CAL       -20.3880    3.8450    3.4350 C.2       1 EGP         0.0194
     15 CAM       -15.4040    1.3870   -2.1720 C.3       1 EGP         0.0411
     16 CAN       -20.8960    7.8920   -1.8570 C.3       1 EGP         0.0681
     17 CAO       -22.6390    6.3450   -2.1680 C.3       1 EGP         0.0681
     18 CAP       -14.3410    2.1510   -1.3670 C.3       1 EGP        -0.0144
     19 CAQ       -20.8640    7.7370   -0.3600 C.3       1 EGP         0.0574
     20 CAR       -22.7200    6.0020   -0.6870 C.3       1 EGP         0.0574
     21 CAS       -16.5110    4.9840    7.1140 C.3       1 EGP         0.0092
     22 CAT       -16.2850    5.5970    4.8080 C.3       1 EGP         0.0092
     23 CAU       -17.3210    3.7590    6.7120 C.3       1 EGP         0.0102
     24 CAV       -17.0740    4.3680    4.4020 C.3       1 EGP         0.0102
     25 CAX       -18.7610    2.7810    5.0450 C.3       1 EGP        -0.0156
     26 CBC       -17.7890    0.7760   -1.9020 C.2       1 EGP         0.1614
     27 CBE       -18.9680    1.2590    0.0660 C.ar      1 EGP         0.0592
     28 CBF       -14.2170    1.5790    0.0520 C.2       1 EGP        -0.0442
     29 CBG       -19.4270    2.9700    3.6830 C.2       1 EGP        -0.0100
     30 CBH       -13.6040    0.3870    1.7170 C.ar      1 EGP         0.0603
     31 CBI       -13.4210    0.5760    0.4070 C.ar      1 EGP        -0.0215
     32 CBJ       -19.1340    2.2890    2.5830 C.ar      1 EGP        -0.0271
     33 CBK       -19.9310    2.7530    1.6160 C.ar      1 EGP         0.0519
     34 NAY       -16.6670    1.3420   -1.4200 N.am      1 EGP        -0.2776
     35 NAZ       -18.9250    0.7520   -1.1740 N.am      1 EGP        -0.2371
     36 NBA       -14.5030    1.2770    2.1430 N.pl3     1 EGP        -0.2891
     37 NBL       -15.5520    5.3380    6.0550 N.4       1 EGP         0.2405
     38 NBM       -18.0390    4.0000    5.4490 N.4       1 EGP         0.2494
     39 NBN       -21.5220    6.4800    0.0390 N.am      1 EGP        -0.2667
     40 OBB       -22.2410    7.7160   -2.3350 O.3       1 EGP        -0.3758
     41 SAC       -17.8010    0.0860   -3.4600 S.2       1 EGP        -0.2976
     42 H1        -22.5654    4.7046    2.1178 H         1 EGP         0.0837
     43 H2        -22.0643    3.9777    0.5535 H         1 EGP         0.0837
     44 H3        -14.2456    6.3389    7.3735 H         1 EGP         0.0778
     45 H4        -15.4864    7.3763    6.5920 H         1 EGP         0.0778
     46 H5        -14.0788    6.7895    5.6427 H         1 EGP         0.0778
     47 H6        -11.4930   -2.1571    2.2286 H         1 EGP         0.0530
     48 H7        -11.1481   -1.7997   -0.2171 H         1 EGP         0.0510
     49 H8        -17.4432   -0.0214    0.8816 H         1 EGP         0.0445
     50 H9        -13.1015   -0.7030    3.4327 H         1 EGP         0.0541
     51 H10       -12.4424   -0.0075   -1.3507 H         1 EGP         0.0540
     52 H11       -17.6133    0.9633    3.1518 H         1 EGP         0.0525
     53 H12       -15.6082    2.8369    1.1268 H         1 EGP         0.0795
     54 H13       -20.5421    2.6478   -0.3876 H         1 EGP         0.0406
     55 H14       -20.8337    4.5435    4.1416 H         1 EGP         0.0741
     56 H15       -15.0533    0.3610   -2.3570 H         1 EGP         0.0557
     57 H16       -15.5698    1.8967   -3.1326 H         1 EGP         0.0557
     58 H17       -20.2429    7.1356   -2.3168 H         1 EGP         0.0580
     59 H18       -20.5405    8.8970   -2.1280 H         1 EGP         0.0580
     60 H19       -23.6250    6.1931   -2.6314 H         1 EGP         0.0580
     61 H20       -21.9008    5.6899   -2.6536 H         1 EGP         0.0580
     62 H21       -14.6285    3.2109   -1.3047 H         1 EGP         0.0371
     63 H22       -13.3704    2.0636   -1.8772 H         1 EGP         0.0371
     64 H23       -21.3897    8.5847    0.1038 H         1 EGP         0.0545
     65 H24       -19.8183    7.7231   -0.0190 H         1 EGP         0.0545
     66 H25       -22.7956    4.9103   -0.5750 H         1 EGP         0.0545
     67 H26       -23.6138    6.4775   -0.2568 H         1 EGP         0.0545
     68 H27       -15.9616    4.7663    8.0418 H         1 EGP         0.0868
     69 H28       -17.1935    5.8302    7.2819 H         1 EGP         0.0868
     70 H29       -16.9762    6.4390    4.9606 H         1 EGP         0.0868
     71 H30       -15.5697    5.8496    4.0114 H         1 EGP         0.0868
     72 H31       -18.0500    3.5325    7.5040 H         1 EGP         0.0868
     73 H32       -16.6417    2.9034    6.5833 H         1 EGP         0.0868
     74 H33       -16.3796    3.5303    4.2405 H         1 EGP         0.0868
     75 H34       -17.6169    4.5794    3.4690 H         1 EGP         0.0868
     76 H35       -18.0498    1.9439    4.9855 H         1 EGP         0.0898
     77 H36       -19.5327    2.5539    5.7952 H         1 EGP         0.0898
     78 H37       -16.6934    1.7511   -0.5079 H         1 EGP         0.1979
     79 H38       -19.7509    0.3480   -1.5674 H         1 EGP         0.2340
     80 H39       -14.8434    1.3714    3.1105 H         1 EGP         0.2216
     81 H40       -14.9127    4.5714    5.9145 H         1 EGP         0.2035
     82 H41       -18.6982    4.7518    5.5771 H         1 EGP         0.2046
@<TRIPOS>BOND
     1    1    2 1  
     2    1   14 1  
     3   33    1 1  
     4    2    3 1  
     5    3    4 2  
     6    3   39 am 
     7   37    5 1  
     8    7    6 ar 
     9    6    9 ar 
    10   10    7 ar 
    11    8   11 ar 
    12   27    8 ar 
    13    9   30 ar 
    14   31   10 ar 
    15   11   32 ar 
    16   28   12 2  
    17   12   36 1  
    18   27   13 ar 
    19   13   33 ar 
    20   14   29 2  
    21   18   15 1  
    22   15   34 1  
    23   19   16 1  
    24   16   40 1  
    25   20   17 1  
    26   17   40 1  
    27   28   18 1  
    28   39   19 1  
    29   39   20 1  
    30   23   21 1  
    31   21   37 1  
    32   24   22 1  
    33   22   37 1  
    34   38   23 1  
    35   38   24 1  
    36   29   25 1  
    37   25   38 1  
    38   34   26 am 
    39   26   35 am 
    40   26   41 2  
    41   35   27 1  
    42   28   31 1  
    43   29   32 1  
    44   30   31 ar 
    45   30   36 1  
    46   32   33 ar 
    47    2   42 1  
    48    2   43 1  
    49    5   44 1  
    50    5   45 1  
    51    5   46 1  
    52    6   47 1  
    53    7   48 1  
    54    8   49 1  
    55    9   50 1  
    56   10   51 1  
    57   11   52 1  
    58   12   53 1  
    59   13   54 1  
    60   14   55 1  
    61   15   56 1  
    62   15   57 1  
    63   16   58 1  
    64   16   59 1  
    65   17   60 1  
    66   17   61 1  
    67   18   62 1  
    68   18   63 1  
    69   19   64 1  
    70   19   65 1  
    71   20   66 1  
    72   20   67 1  
    73   21   68 1  
    74   21   69 1  
    75   22   70 1  
    76   22   71 1  
    77   23   72 1  
    78   23   73 1  
    79   24   74 1  
    80   24   75 1  
    81   25   76 1  
    82   25   77 1  
    83   34   78 1  
    84   35   79 1  
    85   36   80 1  
    86   37   81 1  
    87   38   82 1  
@<TRIPOS>SUBSTRUCTURE
     1 EGP         1

