### 
### Created by X-TOOL on Mon Aug  2 16:12:43 2021
### 

@<TRIPOS>MOLECULE
6c3n_ligand
   33    34     1     0     0
SMALL
GAST_HUCK


@<TRIPOS>ATOM
      1 CAB       -15.0380  -25.8530   21.8830 C.ar      1 EHY        -0.0687
      2 CAC       -14.4280  -25.0690   20.9070 C.ar      1 EHY        -0.0686
      3 CAD       -14.5820  -27.1420   22.1370 C.ar      1 EHY        -0.0686
      4 CAE       -11.1290  -23.5660   22.7430 C.ar      1 EHY        -0.0470
      5 CAF       -10.4520  -23.4850   23.9540 C.ar      1 EHY        -0.0042
      6 CAG       -13.3560  -25.5780   20.1820 C.ar      1 EHY        -0.0603
      7 CAH       -13.5110  -27.6490   21.4130 C.ar      1 EHY        -0.0603
      8 CAI       -10.4640  -23.9720   21.5850 C.ar      1 EHY        -0.0194
      9 CAJ        -8.4370  -24.2330   22.8350 C.ar      1 EHY         0.0334
     10 CAK       -10.5830  -27.0500   20.5490 C.3       1 EHY         0.0465
     11 CAL       -11.8290  -27.3720   19.7230 C.3       1 EHY         0.0029
     12 CAP        -8.5940  -25.7280   19.6400 C.2       1 EHY         0.1650
     13 CAQ       -12.9050  -26.8700   20.4320 C.ar      1 EHY        -0.0409
     14 CAR        -9.1200  -24.3450   21.6240 C.ar      1 EHY         0.1005
     15 NAM        -9.0960  -23.8200   24.0050 N.ar      1 EHY        -0.3117
     16 NAN        -9.4910  -26.7410   19.6320 N.am      1 EHY        -0.2762
     17 NAO        -8.4240  -24.6990   20.5260 N.am      1 EHY        -0.2249
     18 SAA        -7.5680  -25.7630   18.4530 S.2       1 EHY        -0.2949
     19 H1        -15.8735  -25.4561   22.4482 H         1 EHY         0.0559
     20 H2        -14.7877  -24.0650   20.7130 H         1 EHY         0.0599
     21 H3        -15.0607  -27.7486   22.8972 H         1 EHY         0.0599
     22 H4        -12.1818  -23.3119   22.6974 H         1 EHY         0.0669
     23 H5        -10.9707  -23.1651   24.8505 H         1 EHY         0.0697
     24 H6        -12.8737  -24.9703   19.4249 H         1 EHY         0.0557
     25 H7        -13.1474  -28.6506   21.6118 H         1 EHY         0.0557
     26 H8        -10.9989  -23.9979   20.6425 H         1 EHY         0.0630
     27 H9         -7.3796  -24.4687   22.8740 H         1 EHY         0.0720
     28 H10       -10.3135  -27.9178   21.1689 H         1 EHY         0.0565
     29 H11       -10.7804  -26.1835   21.1972 H         1 EHY         0.0565
     30 H12       -11.9310  -28.4598   19.5957 H         1 EHY         0.0447
     31 H13       -11.7660  -26.8915   18.7355 H         1 EHY         0.0447
     32 H14        -9.3887  -27.3836   18.8727 H         1 EHY         0.1982
     33 H15        -7.6458  -24.1049   20.3226 H         1 EHY         0.2381
@<TRIPOS>BOND
     1    2    1 ar 
     2    3    1 ar 
     3    6    2 ar 
     4    7    3 ar 
     5    4    5 ar 
     6    8    4 ar 
     7   15    5 ar 
     8   13    6 ar 
     9   13    7 ar 
    10   14    8 ar 
    11   14    9 ar 
    12    9   15 ar 
    13   10   11 1  
    14   16   10 1  
    15   11   13 1  
    16   12   16 am 
    17   17   12 am 
    18   12   18 2  
    19   14   17 1  
    20    1   19 1  
    21    2   20 1  
    22    3   21 1  
    23    4   22 1  
    24    5   23 1  
    25    6   24 1  
    26    7   25 1  
    27    8   26 1  
    28    9   27 1  
    29   10   28 1  
    30   10   29 1  
    31   11   30 1  
    32   11   31 1  
    33   16   32 1  
    34   17   33 1  
@<TRIPOS>SUBSTRUCTURE
     1 EHY         1

