### 
### Created by X-TOOL on Mon Aug  2 16:12:43 2021
### 

@<TRIPOS>MOLECULE
6c3u_ligand
   24    26     1     0     0
SMALL
GAST_HUCK


@<TRIPOS>ATOM
      1 O01        33.3800    0.4460   52.7280 O.2       1 NY2        -0.4847
      2 N02        33.3780   -0.8310   52.1420 N.2       1 NY2        -0.2015
      3 O03        32.3860   -1.4660   52.1100 O.2       1 NY2        -0.4847
      4 C04        34.6030   -1.3690   51.5740 C.2       1 NY2         0.1655
      5 C05        35.6200   -2.0290   52.2450 C.2       1 NY2         0.0889
      6 N06        36.5480   -2.3500   51.3590 N.2       1 NY2        -0.1474
      7 N07        36.1570   -1.9090   50.1280 N.pl3     1 NY2        -0.1616
      8 C08        34.9810   -1.3170   50.2420 C.2       1 NY2         0.2159
      9 C09        34.2430   -0.7270   49.2270 C.2       1 NY2         0.2106
     10 C10        34.6580    0.4820   48.6620 C.2       1 NY2         0.1311
     11 N11        33.9370    1.0340   47.6940 N.2       1 NY2        -0.1397
     12 C12        32.7970    0.4390   47.2630 C.2       1 NY2         0.3594
     13 C13        31.8720    0.8500   46.2560 C.2       1 NY2         0.2654
     14 BR         31.9900    2.4520   45.1690 Br        1 NY2         0.0826
     15 C15        30.8780   -0.1160   46.2100 C.2       1 NY2         0.3268
     16 O16        29.9420   -0.1130   45.4840 O.2       1 NY2        -0.3314
     17 N17        31.1680   -1.0390   47.1150 N.am      1 NY2        -0.0957
     18 N18        32.3660   -0.6850   47.7660 N.pl3     1 NY2         0.0049
     19 C19        33.0650   -1.3020   48.7550 C.2       1 NY2         0.2426
     20 H1         35.6498   -2.2449   53.3120 H         1 NY2         0.0882
     21 H2         36.6907   -2.0194   49.2540 H         1 NY2         0.2717
     22 H3         35.5669    0.9679   49.0136 H         1 NY2         0.1354
     23 H4         30.6237   -1.8560   47.3054 H         1 NY2         0.2368
     24 H5         32.7064   -2.2402   49.1759 H         1 NY2         0.2208
@<TRIPOS>BOND
     1    1    2 2  
     2    2    3 2  
     3    2    4 1  
     4    4    5 1  
     5    4    8 2  
     6    5    6 2  
     7    6    7 1  
     8    7    8 1  
     9    8    9 1  
    10    9   10 1  
    11    9   19 2  
    12   10   11 2  
    13   11   12 1  
    14   12   13 2  
    15   12   18 1  
    16   13   14 1  
    17   13   15 1  
    18   15   16 2  
    19   15   17 am 
    20   17   18 1  
    21   18   19 1  
    22    5   20 1  
    23    7   21 1  
    24   10   22 1  
    25   17   23 1  
    26   19   24 1  
@<TRIPOS>SUBSTRUCTURE
     1 NY2         1

