### 
### Created by X-TOOL on Mon Aug  2 16:12:44 2021
### 

@<TRIPOS>MOLECULE
6c42_ligand
   65    69     1     0     0
SMALL
GAST_HUCK


@<TRIPOS>ATOM
      1 CBD        -3.9380  -31.4870   19.0260 C.3       1 MOL        -0.0316
      2 CBE        -4.0300  -30.5730   18.1400 C.3       1 MOL        -0.0077
      3 CBF        -4.7920  -31.2110   17.0730 C.3       1 MOL        -0.0077
      4 CBG        -5.4150  -32.4630   17.7140 C.3       1 MOL        -0.0316
      5 NBC        -5.2720  -32.2850   18.8890 N.4       1 MOL         0.2371
      6 CBB        -5.2200  -33.3050   19.4050 C.3       1 MOL        -0.0037
      7 CBA        -5.3570  -33.2880   20.9510 C.3       1 MOL         0.1086
      8 OAZ        -4.0470  -33.1120   21.4200 O.3       1 MOL        -0.3172
      9 CAW        -3.8120  -32.6760   22.7500 C.ar      1 MOL         0.0843
     10 CAX        -4.5900  -33.0740   23.8390 C.ar      1 MOL        -0.0395
     11 CAY        -4.2890  -32.6260   25.1390 C.ar      1 MOL        -0.0658
     12 CAV        -2.7350  -31.8730   22.9750 C.ar      1 MOL        -0.0395
     13 CAU        -2.4300  -31.4410   24.2670 C.ar      1 MOL        -0.0658
     14 CAT        -3.2190  -31.7920   25.3760 C.ar      1 MOL        -0.0187
     15 CAI        -2.8960  -31.3150   26.8220 C.3       1 MOL         0.1207
     16 OAH        -3.6610  -30.2180   27.2580 O.3       1 MOL        -0.3081
     17 CAE        -3.1780  -28.9330   26.9840 C.ar      1 MOL         0.0881
     18 CAD        -4.0650  -27.9330   26.5540 C.ar      1 MOL        -0.0114
     19 CAC        -3.6120  -26.6710   26.2370 C.ar      1 MOL         0.0719
     20 OAG        -4.5500  -25.7250   25.8530 O.3       1 MOL        -0.3403
     21 CAB        -2.2410  -26.3810   26.3480 C.ar      1 MOL        -0.0511
     22 CAA        -1.3430  -27.3730   26.7320 C.ar      1 MOL        -0.0767
     23 CAF        -1.8360  -28.6770   27.0550 C.ar      1 MOL        -0.0192
     24 CAK        -0.9330  -29.8210   27.5510 C.3       1 MOL        -0.0016
     25 CAR         0.5080  -29.5490   27.3710 C.3       1 MOL        -0.0535
     26 CAJ        -1.3800  -31.1350   26.8950 C.3       1 MOL         0.0356
     27 CAL        -0.6790  -32.4340   27.1950 C.ar      1 MOL        -0.0443
     28 CAM        -0.9580  -33.2750   28.2460 C.ar      1 MOL        -0.0681
     29 CAN        -0.2510  -34.4480   28.3610 C.ar      1 MOL        -0.0398
     30 CAO         0.6990  -34.7750   27.3890 C.ar      1 MOL         0.0805
     31 OAS         1.4270  -35.9090   27.4730 O.3       1 MOL        -0.3376
     32 CAP         1.0030  -33.9420   26.3270 C.ar      1 MOL        -0.0398
     33 CAQ         0.2930  -32.7980   26.2310 C.ar      1 MOL        -0.0681
     34 H1         -3.8464  -31.0491   20.0309 H         1 MOL         0.0814
     35 H2         -3.0724  -32.1365   18.8287 H         1 MOL         0.0814
     36 H3         -3.0347  -30.2680   17.7845 H         1 MOL         0.0319
     37 H4         -4.5635  -29.6954   18.5339 H         1 MOL         0.0319
     38 H5         -4.1294  -31.4928   16.2414 H         1 MOL         0.0319
     39 H6         -5.5776  -30.5357   16.7033 H         1 MOL         0.0319
     40 H7         -4.8887  -33.3725   17.3889 H         1 MOL         0.0814
     41 H8         -6.4815  -32.5449   17.4573 H         1 MOL         0.0814
     42 H9         -6.0380  -31.7516   19.2696 H         1 MOL         0.2034
     43 H10        -4.2494  -33.7594   19.1573 H         1 MOL         0.0841
     44 H11        -6.0308  -33.9291   19.0013 H         1 MOL         0.0841
     45 H12        -5.7752  -34.2383   21.3143 H         1 MOL         0.0665
     46 H13        -6.0004  -32.4566   21.2748 H         1 MOL         0.0665
     47 H14        -5.4347  -33.7349   23.6816 H         1 MOL         0.0525
     48 H15        -4.9106  -32.9431   25.9685 H         1 MOL         0.0531
     49 H16        -2.1097  -31.5669   22.1441 H         1 MOL         0.0525
     50 H17        -1.5578  -30.8156   24.4196 H         1 MOL         0.0531
     51 H18        -3.1538  -32.1405   27.5017 H         1 MOL         0.0815
     52 H19        -5.1222  -28.1573   26.4702 H         1 MOL         0.0445
     53 H20        -4.1110  -24.9042   25.6634 H         1 MOL         0.2456
     54 H21        -1.8816  -25.3810   26.1337 H         1 MOL         0.0432
     55 H22        -0.2815  -27.1599   26.7858 H         1 MOL         0.0501
     56 H23        -1.0993  -29.9220   28.6336 H         1 MOL         0.0440
     57 H24         0.7657  -28.5984   27.8609 H         1 MOL         0.0251
     58 H25         0.7372  -29.4820   26.2972 H         1 MOL         0.0251
     59 H26         1.0940  -30.3640   27.8209 H         1 MOL         0.0251
     60 H27        -1.0962  -30.9619   25.8465 H         1 MOL         0.0510
     61 H28        -1.7218  -33.0177   28.9709 H         1 MOL         0.0530
     62 H29        -0.4285  -35.1136   29.1980 H         1 MOL         0.0525
     63 H30         0.8441  -36.6591   27.4704 H         1 MOL         0.2458
     64 H31         1.7732  -34.1955   25.6076 H         1 MOL         0.0525
     65 H32         0.4722  -32.1375   25.3903 H         1 MOL         0.0530
@<TRIPOS>BOND
     1    1    2 1  
     2    1    5 1  
     3    2    3 1  
     4    3    4 1  
     5    4    5 1  
     6    5    6 1  
     7    6    7 1  
     8    7    8 1  
     9    8    9 1  
    10    9   10 ar 
    11    9   12 ar 
    12   10   11 ar 
    13   11   14 ar 
    14   12   13 ar 
    15   13   14 ar 
    16   14   15 1  
    17   15   16 1  
    18   15   26 1  
    19   16   17 1  
    20   17   18 ar 
    21   17   23 ar 
    22   18   19 ar 
    23   19   20 1  
    24   19   21 ar 
    25   21   22 ar 
    26   22   23 ar 
    27   23   24 1  
    28   24   25 1  
    29   24   26 1  
    30   26   27 1  
    31   27   28 ar 
    32   27   33 ar 
    33   28   29 ar 
    34   29   30 ar 
    35   30   31 1  
    36   30   32 ar 
    37   32   33 ar 
    38    1   34 1  
    39    1   35 1  
    40    2   36 1  
    41    2   37 1  
    42    3   38 1  
    43    3   39 1  
    44    4   40 1  
    45    4   41 1  
    46    5   42 1  
    47    6   43 1  
    48    6   44 1  
    49    7   45 1  
    50    7   46 1  
    51   10   47 1  
    52   11   48 1  
    53   12   49 1  
    54   13   50 1  
    55   15   51 1  
    56   18   52 1  
    57   20   53 1  
    58   21   54 1  
    59   22   55 1  
    60   24   56 1  
    61   25   57 1  
    62   25   58 1  
    63   25   59 1  
    64   26   60 1  
    65   28   61 1  
    66   29   62 1  
    67   31   63 1  
    68   32   64 1  
    69   33   65 1  
@<TRIPOS>SUBSTRUCTURE
     1 MOL         1

