### 
### Created by X-TOOL on Wed Jan  1 15:39:38 2020
### 

@<TRIPOS>MOLECULE
6c4d_ligand
   53    57     1     0     0
SMALL
GAST_HUCK


@<TRIPOS>ATOM
      1 N1          3.1030   -6.9440    9.5610 N.1       1 EJP        -0.3421
      2 N3         12.4050    0.4220    7.7450 N.pl3     1 EJP        -0.1845
      3 C4         13.2680   -0.6060    3.4850 C.ar      1 EJP        -0.0685
      4 C5          4.4560   -4.3730   11.4730 C.ar      1 EJP        -0.0510
      5 C6         14.7720    0.2030    5.6400 C.ar      1 EJP        -0.0575
      6 C7         12.6840    0.1170    4.4990 C.ar      1 EJP        -0.0575
      7 C8          5.3810   -3.6020   12.1390 C.ar      1 EJP        -0.0357
      8 C10         4.8550   -5.5040   10.8040 C.ar      1 EJP         0.0696
      9 C13         6.7170   -3.9430   12.1540 C.ar      1 EJP         0.1109
     10 C15        11.1440   -0.8880    8.8020 C.2       1 EJP         0.1128
     11 C17        10.0200   -1.6970    9.1780 C.2       1 EJP         0.2130
     12 C20        11.5900   -2.7330   10.7680 C.3       1 EJP         0.0415
     13 C21         9.2900   -4.6790   10.6900 C.3       1 EJP         0.1082
     14 C22         9.1260   -3.1830   10.8820 C.3       1 EJP         0.1664
     15 C24        12.8220    1.3050    6.6770 C.3       1 EJP         0.1037
     16 C1          3.8920   -6.2980   10.1170 C.1       1 EJP         0.0801
     17 C2         14.6040   -0.9270    3.5470 C.ar      1 EJP        -0.0687
     18 C3         15.3550   -0.5220    4.6260 C.ar      1 EJP        -0.0685
     19 C9          6.1820   -5.8630   10.8040 C.ar      1 EJP        -0.0120
     20 C11        12.3190   -0.7730    9.5870 C.2       1 EJP         0.0046
     21 C12        13.4370    0.5220    5.5770 C.ar      1 EJP        -0.0108
     22 C14         7.0930   -5.0820   11.4740 C.ar      1 EJP         0.1246
     23 C16        13.1100    0.0870    8.8630 C.2       1 EJP         0.1543
     24 C18         8.8870   -2.7760   12.3080 C.2       1 EJP         0.2355
     25 C19        12.4580   -1.4980   10.8580 C.3       1 EJP        -0.0093
     26 C23         7.3750   -2.8600   14.2130 C.3       1 EJP         0.0454
     27 N2         11.2000   -0.1580    7.6830 N.2       1 EJP        -0.1926
     28 N4          7.6670   -3.1580   12.8300 N.am      1 EJP        -0.2165
     29 N5         10.2440   -2.4570   10.3080 N.am      1 EJP        -0.2470
     30 O1          8.9830   -1.6760    8.5280 O.2       1 EJP        -0.3870
     31 O2          9.7220   -2.1410   12.9350 O.2       1 EJP        -0.3813
     32 O3          8.4030   -5.5020   11.4330 O.3       1 EJP        -0.3171
     33 CL1        14.6820    0.7120    9.1610 Cl        1 EJP        -0.0440
     34 H1         12.6742   -0.9234    2.6354 H         1 EJP         0.0599
     35 H2          3.4104   -4.0871   11.4764 H         1 EJP         0.0593
     36 H3         15.3661    0.5225    6.4886 H         1 EJP         0.0558
     37 H4         11.6306    0.3677    4.4488 H         1 EJP         0.0558
     38 H5          5.0534   -2.7104   12.6613 H         1 EJP         0.0500
     39 H6         11.5304   -3.1910   11.7663 H         1 EJP         0.0539
     40 H7         12.0599   -3.4394   10.0679 H         1 EJP         0.0539
     41 H8         10.3176   -4.9449   10.9788 H         1 EJP         0.0658
     42 H9          9.1401   -4.9000    9.6229 H         1 EJP         0.0658
     43 H10         8.2277   -2.8911   10.3183 H         1 EJP         0.0835
     44 H11        13.5574    2.0245    7.0663 H         1 EJP         0.0805
     45 H12        11.9465    1.8479    6.2914 H         1 EJP         0.0805
     46 H13        15.0637   -1.4974    2.7480 H         1 EJP         0.0559
     47 H14        16.4079   -0.7744    4.6776 H         1 EJP         0.0599
     48 H15         6.5071   -6.7545   10.2800 H         1 EJP         0.0584
     49 H16        13.5080   -1.7863   11.0141 H         1 EJP         0.0383
     50 H17        12.1242   -0.8631   11.6920 H         1 EJP         0.0383
     51 H18         6.3699   -3.2303   14.4635 H         1 EJP         0.0553
     52 H19         7.4146   -1.7720   14.3699 H         1 EJP         0.0553
     53 H20         8.1180   -3.3509   14.8587 H         1 EJP         0.0553
@<TRIPOS>BOND
     1   16    1 3  
     2    2   15 1  
     3   23    2 1  
     4   27    2 1  
     5    6    3 ar 
     6    3   17 ar 
     7    7    4 ar 
     8    8    4 ar 
     9    5   18 ar 
    10   21    5 ar 
    11   21    6 ar 
    12    9    7 ar 
    13    8   16 1  
    14   19    8 ar 
    15   22    9 ar 
    16    9   28 1  
    17   11   10 1  
    18   10   20 1  
    19   10   27 2  
    20   29   11 am 
    21   11   30 2  
    22   12   25 1  
    23   29   12 1  
    24   13   14 1  
    25   32   13 1  
    26   14   24 1  
    27   14   29 1  
    28   15   21 1  
    29   18   17 ar 
    30   22   19 ar 
    31   20   23 2  
    32   25   20 1  
    33   22   32 1  
    34   23   33 1  
    35   24   28 am 
    36   24   31 2  
    37   28   26 1  
    38    3   34 1  
    39    4   35 1  
    40    5   36 1  
    41    6   37 1  
    42    7   38 1  
    43   12   39 1  
    44   12   40 1  
    45   13   41 1  
    46   13   42 1  
    47   14   43 1  
    48   15   44 1  
    49   15   45 1  
    50   17   46 1  
    51   18   47 1  
    52   19   48 1  
    53   25   49 1  
    54   25   50 1  
    55   26   51 1  
    56   26   52 1  
    57   26   53 1  
@<TRIPOS>SUBSTRUCTURE
     1 EJP         1

