### 
### Created by X-TOOL on Wed Jan  1 15:39:34 2020
### 

@<TRIPOS>MOLECULE
6c5f_ligand
   27    28     1     0     0
SMALL
GAST_HUCK


@<TRIPOS>ATOM
      1 OAH       -26.8240  -14.2250    5.4910 O.co2     1 7L9        -0.5606
      2 CAG       -26.4130  -15.4080    5.1000 C.2       1 7L9         0.0634
      3 OAI       -25.6720  -16.0470    5.9110 O.co2     1 7L9        -0.5606
      4 CAE       -26.6500  -15.8180    3.7570 C.ar      1 7L9         0.0130
      5 CAD       -27.5690  -15.1230    2.9800 C.ar      1 7L9        -0.0361
      6 CAF       -26.0520  -16.9500    3.2430 C.ar      1 7L9        -0.0457
      7 CAA       -26.2090  -17.3360    1.9190 C.ar      1 7L9        -0.0555
      8 CAB       -27.1200  -16.6090    1.1440 C.ar      1 7L9        -0.0479
      9 CAC       -27.7800  -15.4810    1.6540 C.ar      1 7L9        -0.0025
     10 CAJ       -28.7530  -14.7960    0.8070 C.ar      1 7L9         0.0182
     11 CAK       -30.0010  -14.4220    1.3770 C.ar      1 7L9        -0.0100
     12 CAL       -31.0220  -13.8720    0.6430 C.ar      1 7L9         0.0838
     13 CAS       -32.2550  -13.4440    1.2740 C.2       1 7L9         0.0819
     14 OAU       -32.3510  -13.2150    2.5030 O.co2     1 7L9        -0.5568
     15 OAT       -33.2100  -13.0580    0.5760 O.co2     1 7L9        -0.5568
     16 NAM       -30.8910  -13.7220   -0.7050 N.ar      1 7L9        -0.2806
     17 CAN       -29.7070  -14.0560   -1.3120 C.ar      1 7L9         0.0273
     18 CAO       -28.5960  -14.5660   -0.5560 C.ar      1 7L9         0.0462
     19 CAP       -27.4050  -14.7340   -1.2860 C.2       1 7L9         0.0713
     20 OAR       -26.3730  -14.2480   -0.7720 O.co2     1 7L9        -0.5586
     21 OAQ       -27.3130  -15.2290   -2.3900 O.co2     1 7L9        -0.5586
     22 H1        -28.1241  -14.2974    3.4105 H         1 7L9         0.0677
     23 H2        -25.4379  -17.5595    3.8961 H         1 7L9         0.0667
     24 H3        -25.6495  -18.1658    1.5026 H         1 7L9         0.0630
     25 H4        -27.3201  -16.9248    0.1265 H         1 7L9         0.0663
     26 H5        -30.1527  -14.5783    2.4389 H         1 7L9         0.0752
     27 H6        -29.6072  -13.9327   -2.3843 H         1 7L9         0.0861
@<TRIPOS>BOND
     1    1    2 ar 
     2    2    3 ar 
     3    2    4 1  
     4    4    5 ar 
     5    4    6 ar 
     6    5    9 ar 
     7    6    7 ar 
     8    7    8 ar 
     9    8    9 ar 
    10    9   10 1  
    11   10   11 ar 
    12   10   18 ar 
    13   11   12 ar 
    14   12   13 1  
    15   12   16 ar 
    16   13   14 ar 
    17   13   15 ar 
    18   16   17 ar 
    19   17   18 ar 
    20   18   19 1  
    21   19   20 ar 
    22   19   21 ar 
    23    5   22 1  
    24    6   23 1  
    25    7   24 1  
    26    8   25 1  
    27   11   26 1  
    28   17   27 1  
@<TRIPOS>SUBSTRUCTURE
     1 7L9         1

