### 
### Created by X-TOOL on Wed Jan  1 15:39:38 2020
### 

@<TRIPOS>MOLECULE
6c5q_ligand
   79    82     1     0     0
SMALL
GAST_HUCK


@<TRIPOS>ATOM
      1 C10        19.4980  -25.6530   17.4270 C.3       1 EKS        -0.0541
      2 C13        25.0780  -24.1820   16.7660 C.ar      1 EKS        -0.0237
      3 C15        24.9260  -22.0040   17.7480 C.ar      1 EKS        -0.0771
      4 C17        26.8980  -22.6020   16.4830 C.ar      1 EKS         0.0843
      5 C20        28.9630  -22.9610   15.0350 C.3       1 EKS         0.1298
      6 C21        29.3090  -24.3740   15.5350 C.2       1 EKS         0.0806
      7 C24        21.6980  -28.5060   21.9500 C.2       1 EKS         0.1978
      8 C28        22.4620  -29.2860   25.2160 C.ar      1 EKS         0.0135
      9 C01        22.1820  -27.7780   20.6440 C.ar      1 EKS         0.0291
     10 C02        23.5430  -27.7350   20.3200 C.ar      1 EKS        -0.0609
     11 C03        23.9750  -27.0960   19.1490 C.ar      1 EKS        -0.0431
     12 C04        23.0180  -26.5070   18.3020 C.ar      1 EKS         0.0647
     13 C05        21.6810  -26.5580   18.6140 C.ar      1 EKS        -0.0252
     14 C06        21.2400  -27.1980   19.7920 C.ar      1 EKS        -0.0586
     15 C08        22.0080  -25.4610   16.6710 C.2       1 EKS         0.0407
     16 C09        21.0120  -25.8830   17.5650 C.2       1 EKS        -0.0495
     17 C11        21.7630  -24.6840   15.3760 C.3       1 EKS        -0.0118
     18 C12        24.4990  -25.6020   16.4760 C.3       1 EKS         0.0812
     19 C14        24.3730  -23.2550   17.5150 C.ar      1 EKS        -0.0689
     20 C16        26.1820  -21.6870   17.2340 C.ar      1 EKS        -0.0402
     21 C18        26.3320  -23.8580   16.2570 C.ar      1 EKS        -0.0299
     22 C27        22.1680  -30.0480   23.9290 C.3       1 EKS         0.0871
     23 C29        23.1270  -28.0700   25.2040 C.ar      1 EKS        -0.0263
     24 C30        23.3750  -27.4100   26.4070 C.ar      1 EKS        -0.0449
     25 C31        22.9570  -27.9700   27.6100 C.ar      1 EKS        -0.0568
     26 C32        22.2950  -29.1860   27.6160 C.ar      1 EKS        -0.0449
     27 C33        22.0470  -29.8430   26.4230 C.ar      1 EKS        -0.0263
     28 C34        22.8540  -31.4150   24.0000 C.3       1 EKS        -0.0270
     29 C35        23.2270  -27.2460   28.9490 C.3       1 EKS        -0.0520
     30 C36        24.7490  -27.3220   29.2940 C.3       1 EKS        -0.0877
     31 C37        22.4190  -27.9150   30.0640 C.3       1 EKS        -0.0877
     32 C38        22.8040  -25.7840   28.8260 C.3       1 EKS        -0.0877
     33 C39        30.2940  -22.2100   14.8290 C.3       1 EKS        -0.0269
     34 C40        28.2590  -23.0250   13.6550 C.3       1 EKS        -0.0269
     35 N07        23.1920  -25.8430   17.1360 N.pl3     1 EKS        -0.2544
     36 N26        22.6410  -29.3520   22.7320 N.am      1 EKS        -0.2687
     37 O19        28.1930  -22.2010   15.9890 O.3       1 EKS        -0.3097
     38 O22        29.3140  -24.6240   16.7690 O.co2     1 EKS        -0.5447
     39 O23        29.5950  -25.2890   14.7130 O.co2     1 EKS        -0.5447
     40 O25        20.5700  -28.3990   22.3070 O.2       1 EKS        -0.3893
     41 H1         18.9791  -26.1022   18.2866 H         1 EKS         0.0287
     42 H2         19.1394  -26.1196   16.4976 H         1 EKS         0.0287
     43 H3         19.2923  -24.5728   17.3981 H         1 EKS         0.0287
     44 H4         24.3798  -21.2715   18.3312 H         1 EKS         0.0572
     45 H5         24.2681  -28.1989   20.9789 H         1 EKS         0.0545
     46 H6         25.0293  -27.0564   18.9002 H         1 EKS         0.0541
     47 H7         20.1837  -27.2388   20.0322 H         1 EKS         0.0576
     48 H8         20.6840  -24.5100   15.2514 H         1 EKS         0.0408
     49 H9         22.1417  -25.2653   14.5224 H         1 EKS         0.0408
     50 H10        22.2871  -23.7180   15.4232 H         1 EKS         0.0408
     51 H11        25.2171  -26.3533   16.8364 H         1 EKS         0.0757
     52 H12        24.3680  -25.7116   15.3894 H         1 EKS         0.0757
     53 H13        23.3973  -23.5046   17.9159 H         1 EKS         0.0465
     54 H14        26.6048  -20.7075   17.4258 H         1 EKS         0.0485
     55 H15        26.8779  -24.5924   15.6759 H         1 EKS         0.0479
     56 H16        21.0801  -30.1881   23.8460 H         1 EKS         0.0791
     57 H17        23.4521  -27.6350   24.2658 H         1 EKS         0.0653
     58 H18        23.8946  -26.4586   26.4049 H         1 EKS         0.0833
     59 H19        21.9713  -29.6230   28.5537 H         1 EKS         0.0833
     60 H20        21.5278  -30.7946   26.4284 H         1 EKS         0.0653
     61 H21        22.6497  -31.9761   23.0762 H         1 EKS         0.0283
     62 H22        22.4657  -31.9757   24.8630 H         1 EKS         0.0283
     63 H23        23.9393  -31.2753   24.1117 H         1 EKS         0.0283
     64 H24        24.9351  -26.8055   30.2472 H         1 EKS         0.0126
     65 H25        25.3306  -26.8384   28.4953 H         1 EKS         0.0126
     66 H26        25.0528  -28.3755   29.3825 H         1 EKS         0.0126
     67 H27        21.3472  -27.8622   29.8224 H         1 EKS         0.0126
     68 H28        22.6064  -27.3952   31.0152 H         1 EKS         0.0126
     69 H29        22.7227  -28.9683   30.1556 H         1 EKS         0.0126
     70 H30        23.3832  -25.3009   28.0253 H         1 EKS         0.0126
     71 H31        22.9923  -25.2664   29.7782 H         1 EKS         0.0126
     72 H32        21.7318  -25.7314   28.5858 H         1 EKS         0.0126
     73 H33        30.0881  -21.1908   14.4701 H         1 EKS         0.0253
     74 H34        30.9051  -22.7438   14.0863 H         1 EKS         0.0253
     75 H35        30.8382  -22.1596   15.7836 H         1 EKS         0.0253
     76 H36        27.3006  -23.5553   13.7566 H         1 EKS         0.0253
     77 H37        28.9008  -23.5612   12.9405 H         1 EKS         0.0253
     78 H38        28.0761  -22.0040   13.2890 H         1 EKS         0.0253
     79 H39        23.5931  -29.4441   22.4406 H         1 EKS         0.1882
@<TRIPOS>BOND
     1   16    1 1  
     2   18    2 1  
     3    2   19 ar 
     4    2   21 ar 
     5   19    3 ar 
     6    3   20 ar 
     7    4   20 ar 
     8   21    4 ar 
     9    4   37 1  
    10    5    6 1  
    11    5   33 1  
    12    5   34 1  
    13   37    5 1  
    14    6   38 ar 
    15    6   39 ar 
    16    7    9 1  
    17   36    7 am 
    18    7   40 2  
    19   22    8 1  
    20    8   23 ar 
    21    8   27 ar 
    22    9   10 ar 
    23    9   14 ar 
    24   10   11 ar 
    25   11   12 ar 
    26   13   12 ar 
    27   12   35 1  
    28   14   13 ar 
    29   13   16 1  
    30   16   15 2  
    31   15   17 1  
    32   15   35 1  
    33   35   18 1  
    34   22   28 1  
    35   22   36 1  
    36   23   24 ar 
    37   24   25 ar 
    38   25   26 ar 
    39   25   29 1  
    40   26   27 ar 
    41   29   30 1  
    42   29   31 1  
    43   29   32 1  
    44    1   41 1  
    45    1   42 1  
    46    1   43 1  
    47    3   44 1  
    48   10   45 1  
    49   11   46 1  
    50   14   47 1  
    51   17   48 1  
    52   17   49 1  
    53   17   50 1  
    54   18   51 1  
    55   18   52 1  
    56   19   53 1  
    57   20   54 1  
    58   21   55 1  
    59   22   56 1  
    60   23   57 1  
    61   24   58 1  
    62   26   59 1  
    63   27   60 1  
    64   28   61 1  
    65   28   62 1  
    66   28   63 1  
    67   30   64 1  
    68   30   65 1  
    69   30   66 1  
    70   31   67 1  
    71   31   68 1  
    72   31   69 1  
    73   32   70 1  
    74   32   71 1  
    75   32   72 1  
    76   33   73 1  
    77   33   74 1  
    78   33   75 1  
    79   34   76 1  
    80   34   77 1  
    81   34   78 1  
    82   36   79 1  
@<TRIPOS>SUBSTRUCTURE
     1 EKS         1

