### 
### Created by X-TOOL on Wed Jan  1 15:39:38 2020
### 

@<TRIPOS>MOLECULE
6c5t_ligand
   73    77     1     0     0
SMALL
GAST_HUCK


@<TRIPOS>ATOM
      1 C10        21.1430  -28.8550   24.7770 C.3       1 EKP         0.0705
      2 C13        20.1300  -27.5760   22.7940 C.2       1 EKP         0.1971
      3 C17        21.7670  -26.8180   19.4230 C.ar      1 EKP        -0.0430
      4 C20        19.3270  -26.3620   20.6980 C.ar      1 EKP        -0.0586
      5 C22        19.5290  -25.0150   17.2930 C.2       1 EKP         0.0416
      6 C24        17.2980  -24.6590   18.6130 C.3       1 EKP        -0.0541
      7 C26        21.7690  -25.6390   16.5460 C.3       1 EKP         0.0988
      8 C28        24.1290  -24.9510   16.1790 C.ar      1 EKP        -0.0257
      9 C01        19.2310  -26.7670   27.3460 C.ar      1 EKP        -0.0467
     10 C02        20.2740  -26.1360   28.0190 C.ar      1 EKP        -0.0670
     11 C03        21.5900  -26.3850   27.6420 C.ar      1 EKP        -0.0751
     12 C04        21.8640  -27.2600   26.5950 C.ar      1 EKP        -0.0651
     13 C05        20.8240  -27.8850   25.9100 C.ar      1 EKP        -0.0251
     14 C06        19.5070  -27.6460   26.2990 C.ar      1 EKP        -0.0568
     15 C07        17.7790  -26.4950   27.7620 C.3       1 EKP        -0.0087
     16 C08        17.5620  -25.3000   28.6790 C.3       1 EKP        -0.0385
     17 C09        17.4600  -26.7130   29.2340 C.3       1 EKP        -0.0385
     18 C12        20.1390  -29.9940   24.7870 C.3       1 EKP        -0.0321
     19 C14        20.3460  -27.0490   21.3700 C.ar      1 EKP         0.0290
     20 C16        21.5640  -27.2810   20.7230 C.ar      1 EKP        -0.0609
     21 C18        20.7440  -26.1210   18.7490 C.ar      1 EKP         0.0656
     22 C19        19.5320  -25.8930   19.3850 C.ar      1 EKP        -0.0252
     23 C23        18.7310  -25.1670   18.4330 C.2       1 EKP        -0.0494
     24 C25        19.1120  -24.3050   16.0060 C.3       1 EKP        -0.0118
     25 C27        22.8490  -24.5470   16.5430 C.ar      1 EKP         0.0175
     26 C29        25.1680  -24.0340   16.1350 C.ar      1 EKP        -0.0446
     27 C30        24.9200  -22.7030   16.4420 C.ar      1 EKP        -0.0506
     28 C31        23.6360  -22.2870   16.8030 C.ar      1 EKP        -0.0446
     29 C32        22.5880  -23.2110   16.8490 C.ar      1 EKP        -0.0257
     30 C33        26.1030  -21.7140   16.3820 C.3       1 EKP        -0.0045
     31 C34        27.0300  -22.0130   17.5690 C.3       1 EKP        -0.0819
     32 C35        25.5830  -20.2680   16.4560 C.3       1 EKP        -0.0819
     33 C36        26.8840  -21.9250   15.0820 C.2       1 EKP         0.0117
     34 N11        21.2080  -28.2770   23.4610 N.am      1 EKP        -0.2739
     35 N21        20.7090  -25.5710   17.5170 N.pl3     1 EKP        -0.2491
     36 O15        19.0470  -27.4220   23.3290 O.2       1 EKP        -0.3894
     37 O37        26.6090  -21.2430   14.0540 O.co2     1 EKP        -0.5636
     38 O38        27.8100  -22.7830   15.0350 O.co2     1 EKP        -0.5636
     39 H1         22.1371  -29.2758   24.9885 H         1 EKP         0.0715
     40 H2         22.7155  -26.9950   18.9290 H         1 EKP         0.0541
     41 H3         18.3765  -26.1903   21.1901 H         1 EKP         0.0576
     42 H4         16.9743  -24.1426   17.6973 H         1 EKP         0.0287
     43 H5         17.2607  -23.9594   19.4610 H         1 EKP         0.0287
     44 H6         16.6293  -25.5099   18.8099 H         1 EKP         0.0287
     45 H7         22.2829  -26.5998   16.6970 H         1 EKP         0.0836
     46 H8         21.2969  -25.6278   15.5526 H         1 EKP         0.0836
     47 H9         24.3155  -25.9890   15.9282 H         1 EKP         0.0654
     48 H10        20.0615  -25.4532   28.8337 H         1 EKP         0.0500
     49 H11        22.4039  -25.8962   28.1651 H         1 EKP         0.0582
     50 H12        22.8916  -27.4563   26.3110 H         1 EKP         0.0500
     51 H13        18.6936  -28.1456   25.7854 H         1 EKP         0.0495
     52 H14        17.0667  -26.7557   26.9653 H         1 EKP         0.0460
     53 H15        16.6570  -24.6836   28.5743 H         1 EKP         0.0291
     54 H16        18.4116  -24.6595   28.9581 H         1 EKP         0.0291
     55 H17        18.2359  -27.0940   29.9143 H         1 EKP         0.0291
     56 H18        16.4812  -27.1181   29.5305 H         1 EKP         0.0291
     57 H19        20.3696  -30.6932   23.9697 H         1 EKP         0.0274
     58 H20        19.1251  -29.5903   24.6490 H         1 EKP         0.0274
     59 H21        20.1950  -30.5237   25.7494 H         1 EKP         0.0274
     60 H22        22.3525  -27.8222   21.2333 H         1 EKP         0.0545
     61 H23        18.0779  -23.9434   16.1053 H         1 EKP         0.0408
     62 H24        19.1752  -25.0080   15.1624 H         1 EKP         0.0408
     63 H25        19.7826  -23.4523   15.8238 H         1 EKP         0.0408
     64 H26        26.1672  -24.3542   15.8627 H         1 EKP         0.0832
     65 H27        23.4523  -21.2470   17.0476 H         1 EKP         0.0832
     66 H28        21.5870  -22.8941   17.1185 H         1 EKP         0.0654
     67 H29        26.4800  -21.8649   18.5101 H         1 EKP         0.0123
     68 H30        27.8949  -21.3340   17.5390 H         1 EKP         0.0123
     69 H31        27.3791  -23.0544   17.5084 H         1 EKP         0.0123
     70 H32        24.9216  -20.0719   15.5992 H         1 EKP         0.0123
     71 H33        26.4334  -19.5707   16.4299 H         1 EKP         0.0123
     72 H34        25.0221  -20.1274   17.3918 H         1 EKP         0.0123
     73 H35        22.0713  -28.3669   22.9643 H         1 EKP         0.1872
@<TRIPOS>BOND
     1    1   13 1  
     2    1   18 1  
     3   34    1 1  
     4   19    2 1  
     5    2   34 am 
     6    2   36 2  
     7    3   20 ar 
     8   21    3 ar 
     9    4   19 ar 
    10   22    4 ar 
    11    5   23 2  
    12    5   24 1  
    13   35    5 1  
    14   23    6 1  
    15    7   25 1  
    16   35    7 1  
    17   25    8 ar 
    18    8   26 ar 
    19    9   10 ar 
    20   14    9 ar 
    21    9   15 1  
    22   11   10 ar 
    23   12   11 ar 
    24   13   12 ar 
    25   13   14 ar 
    26   15   16 1  
    27   15   17 1  
    28   17   16 1  
    29   20   19 ar 
    30   21   22 ar 
    31   21   35 1  
    32   22   23 1  
    33   25   29 ar 
    34   26   27 ar 
    35   27   28 ar 
    36   27   30 1  
    37   28   29 ar 
    38   30   31 1  
    39   30   32 1  
    40   30   33 1  
    41   33   37 ar 
    42   33   38 ar 
    43    1   39 1  
    44    3   40 1  
    45    4   41 1  
    46    6   42 1  
    47    6   43 1  
    48    6   44 1  
    49    7   45 1  
    50    7   46 1  
    51    8   47 1  
    52   10   48 1  
    53   11   49 1  
    54   12   50 1  
    55   14   51 1  
    56   15   52 1  
    57   16   53 1  
    58   16   54 1  
    59   17   55 1  
    60   17   56 1  
    61   18   57 1  
    62   18   58 1  
    63   18   59 1  
    64   20   60 1  
    65   24   61 1  
    66   24   62 1  
    67   24   63 1  
    68   26   64 1  
    69   28   65 1  
    70   29   66 1  
    71   31   67 1  
    72   31   68 1  
    73   31   69 1  
    74   32   70 1  
    75   32   71 1  
    76   32   72 1  
    77   34   73 1  
@<TRIPOS>SUBSTRUCTURE
     1 EKP         1

