### 
### Created by X-TOOL on Mon Aug  2 16:12:45 2021
### 

@<TRIPOS>MOLECULE
6c67_ligand
   33    35     1     0     0
SMALL
GAST_HUCK


@<TRIPOS>ATOM
      1 O5'       -15.9010  -20.8720   13.5340 O.3       1 MOL        -0.3924
      2 C5'       -14.7220  -20.6160   12.7740 C.3       1 MOL         0.0730
      3 C4'       -14.3950  -21.7770   11.8690 C.3       1 MOL         0.1135
      4 O4'       -15.5130  -22.0260   11.0020 O.3       1 MOL        -0.3370
      5 C1'       -15.0620  -22.5890    9.7970 C.3       1 MOL         0.1971
      6 N9        -16.0490  -22.2140    8.7860 N.pl3     1 MOL        -0.2190
      7 C8        -16.2210  -20.9750    8.3030 C.2       1 MOL         0.0441
      8 C7        -17.3160  -21.0140    7.4130 C.2       1 MOL         0.0169
      9 C5        -17.8250  -22.3530    7.4020 C.ar      1 MOL         0.0529
     10 C6        -18.8920  -23.0470    6.7340 C.ar      1 MOL         0.1166
     11 N1        -19.0830  -24.3430    6.9760 N.ar      1 MOL        -0.2731
     12 C2        -18.2790  -25.0020    7.8340 C.ar      1 MOL         0.0503
     13 N3        -17.2740  -24.3990    8.4770 N.ar      1 MOL        -0.2765
     14 C4        -17.0270  -23.0760    8.2750 C.ar      1 MOL         0.1421
     15 N6        -19.7510  -22.3390    5.8090 N.pl3     1 MOL        -0.3158
     16 C2'       -13.6400  -22.0670    9.5660 C.3       1 MOL         0.1383
     17 O2'       -12.8240  -23.0650    8.9910 O.3       1 MOL        -0.3836
     18 C3'       -13.1730  -21.6070   10.9670 C.3       1 MOL         0.1146
     19 O3'       -12.1200  -22.4510   11.4410 O.3       1 MOL        -0.3864
     20 IAE       -18.0700  -19.3700    6.3140 I         1 MOL        -0.0795
     21 H1        -15.7700  -21.6465   14.0684 H         1 MOL         0.2095
     22 H2        -13.8803  -20.4493   13.4623 H         1 MOL         0.0584
     23 H3        -14.8783  -19.7161   12.1611 H         1 MOL         0.0584
     24 H4        -14.2250  -22.6561   12.5079 H         1 MOL         0.0647
     25 H5        -15.0268  -23.6860    9.8699 H         1 MOL         0.0994
     26 H6        -15.6247  -20.0985    8.5519 H         1 MOL         0.0985
     27 H7        -18.4534  -26.0575    8.0087 H         1 MOL         0.0976
     28 H8        -20.5151  -22.8376    5.3311 H         1 MOL         0.1825
     29 H9        -19.5982  -21.3365    5.6286 H         1 MOL         0.1825
     30 H10       -13.6598  -21.2042    8.8839 H         1 MOL         0.0676
     31 H11       -11.9493  -22.7192    8.8574 H         1 MOL         0.2101
     32 H12       -12.8378  -20.5596   10.9452 H         1 MOL         0.0648
     33 H13       -11.3862  -22.4081   10.8393 H         1 MOL         0.2100
@<TRIPOS>BOND
     1    1    2 1  
     2    2    3 1  
     3    3    4 1  
     4    3   18 1  
     5    4    5 1  
     6    5    6 1  
     7    5   16 1  
     8    6    7 1  
     9    6   14 1  
    10    7    8 2  
    11    8    9 1  
    12    8   20 1  
    13    9   10 ar 
    14    9   14 ar 
    15   10   11 ar 
    16   10   15 1  
    17   11   12 ar 
    18   12   13 ar 
    19   13   14 ar 
    20   16   17 1  
    21   16   18 1  
    22   18   19 1  
    23    1   21 1  
    24    2   22 1  
    25    2   23 1  
    26    3   24 1  
    27    5   25 1  
    28    7   26 1  
    29   12   27 1  
    30   15   28 1  
    31   15   29 1  
    32   16   30 1  
    33   17   31 1  
    34   18   32 1  
    35   19   33 1  
@<TRIPOS>SUBSTRUCTURE
     1 MOL         1

