### 
### Created by X-TOOL on Wed Jan  1 15:39:38 2020
### 

@<TRIPOS>MOLECULE
6c6o_ligand
   24    24     1     0     0
SMALL
GAST_HUCK


@<TRIPOS>ATOM
      1 C10        35.0310   77.4020   64.2350 C.ar      1 ENG        -0.0490
      2 C15        33.2880   77.9710   62.7410 C.ar      1 ENG         0.0233
      3 C02        37.5750   81.0970   64.9680 C.2       1 ENG         0.0656
      4 C04        36.3710   81.4030   64.0260 C.3       1 ENG         0.1220
      5 C06        35.3160   80.5780   64.0010 C.3       1 ENG         0.0590
      6 C07        35.2280   79.5770   63.0170 C.2       1 ENG         0.1306
      7 C09        34.4910   78.3160   63.3320 C.ar      1 ENG         0.0307
      8 C11        34.3870   76.2060   64.5260 C.ar      1 ENG        -0.0241
      9 C12        33.1670   75.9170   63.9110 C.ar      1 ENG         0.0961
     10 C14        32.5980   76.7990   63.0020 C.ar      1 ENG        -0.0173
     11 O01        37.3160   81.2440   66.1680 O.co2     1 ENG        -0.5662
     12 O03        38.6460   80.7100   64.4600 O.co2     1 ENG        -0.5662
     13 O05        36.5670   82.1730   62.9200 O.3       1 ENG        -0.3754
     14 O08        35.7790   79.6780   61.9290 O.2       1 ENG        -0.3823
     15 O13        32.5240   74.7600   64.1900 O.3       1 ENG        -0.3287
     16 BR16       32.4620   79.1880   61.4770 Br        1 ENG        -0.0469
     17 H1         35.9733   77.6291   64.7204 H         1 ENG         0.0651
     18 H2         35.9167   82.1824   64.6554 H         1 ENG         0.0788
     19 H3         34.4219   81.2094   63.8921 H         1 ENG         0.0527
     20 H4         35.2885   80.0683   64.9754 H         1 ENG         0.0527
     21 H5         34.8275   75.5034   65.2241 H         1 ENG         0.0580
     22 H6         31.6536   76.5795   62.5172 H         1 ENG         0.0585
     23 H7         36.6932   81.6124   62.1635 H         1 ENG         0.2126
     24 H8         33.0288   74.2632   64.8231 H         1 ENG         0.2502
@<TRIPOS>BOND
     1    7    1 ar 
     2    1    8 ar 
     3    7    2 ar 
     4    2   10 ar 
     5    2   16 1  
     6    4    3 1  
     7    3   11 ar 
     8    3   12 ar 
     9    5    4 1  
    10    4   13 1  
    11    6    5 1  
    12    6    7 1  
    13    6   14 2  
    14    8    9 ar 
    15    9   10 ar 
    16    9   15 1  
    17    1   17 1  
    18    4   18 1  
    19    5   19 1  
    20    5   20 1  
    21    8   21 1  
    22   10   22 1  
    23   13   23 1  
    24   15   24 1  
@<TRIPOS>SUBSTRUCTURE
     1 ENG         1

