### 
### Created by X-TOOL on Wed Jan  1 15:39:36 2020
### 

@<TRIPOS>MOLECULE
6c7b_ligand
   31    32     1     0     0
SMALL
GAST_HUCK


@<TRIPOS>ATOM
      1 C10        33.7700   77.2990   61.9980 C.ar      1 ENY         0.0228
      2 C13        36.4800   79.9570   63.1110 C.2       1 ENY         0.1441
      3 C15        37.7330   80.1430   63.9140 C.2       1 ENY         0.1127
      4 C20        30.7700   74.2200   61.7460 C.ar      1 ENY        -0.0272
      5 C01        27.8860   73.2070   59.6260 C.3       1 ENY         0.0602
      6 C03        29.7890   74.2240   60.7650 C.ar      1 ENY         0.0937
      7 C04        29.7920   75.2840   59.8120 C.ar      1 ENY        -0.0257
      8 C05        30.7450   76.2930   59.8690 C.ar      1 ENY        -0.0538
      9 C06        31.7740   76.3060   60.8740 C.ar      1 ENY        -0.0184
     10 C07        31.7720   75.2370   61.8120 C.ar      1 ENY        -0.0258
     11 C08        32.7850   75.2260   62.8270 C.ar      1 ENY        -0.0569
     12 C09        33.7590   76.2050   62.9330 C.ar      1 ENY        -0.0496
     13 C11        34.8600   78.3640   62.0740 C.2       1 ENY         0.1261
     14 C12        35.6660   78.8660   63.2380 C.2       1 ENY         0.0187
     15 C19        32.8020   77.3180   60.9920 C.ar      1 ENY        -0.0396
     16 O02        28.8360   73.2180   60.7030 O.3       1 ENY        -0.3194
     17 O14        36.6430   80.6110   61.9040 O.3       1 ENY        -0.3106
     18 O16        37.6590   79.6660   65.1970 O.co2     1 ENY        -0.5511
     19 O17        38.8560   80.1460   63.4330 O.co2     1 ENY        -0.5511
     20 O18        35.1150   78.9080   60.9850 O.2       1 ENY        -0.3925
     21 H1         30.7767   73.4243   62.4821 H         1 ENY         0.0501
     22 H2         27.2135   72.3439   59.7391 H         1 ENY         0.0579
     23 H3         28.4197   73.1328   58.6670 H         1 ENY         0.0579
     24 H4         27.2971   74.1358   59.6470 H         1 ENY         0.0579
     25 H5         29.0398   75.3030   59.0316 H         1 ENY         0.0594
     26 H6         30.7124   77.0917   59.1368 H         1 ENY         0.0631
     27 H7         32.7886   74.4136   63.5447 H         1 ENY         0.0594
     28 H8         34.5078   76.1476   63.7147 H         1 ENY         0.0639
     29 H9         35.6010   78.3535   64.1967 H         1 ENY         0.0443
     30 H10        32.8212   78.1250   60.2685 H         1 ENY         0.0686
     31 H11        36.9957   80.0058   61.2622 H         1 ENY         0.2607
@<TRIPOS>BOND
     1    1   12 ar 
     2   13    1 1  
     3    1   15 ar 
     4    2    3 1  
     5   14    2 2  
     6    2   17 1  
     7    3   18 ar 
     8    3   19 ar 
     9    4    6 ar 
    10   10    4 ar 
    11   16    5 1  
    12    7    6 ar 
    13    6   16 1  
    14    8    7 ar 
    15    9    8 ar 
    16    9   10 ar 
    17   15    9 ar 
    18   11   10 ar 
    19   12   11 ar 
    20   13   14 1  
    21   13   20 2  
    22    4   21 1  
    23    5   22 1  
    24    5   23 1  
    25    5   24 1  
    26    7   25 1  
    27    8   26 1  
    28   11   27 1  
    29   12   28 1  
    30   14   29 1  
    31   15   30 1  
    32   17   31 1  
@<TRIPOS>SUBSTRUCTURE
     1 ENY         1

