### 
### Created by X-TOOL on Wed Jan  1 15:39:36 2020
### 

@<TRIPOS>MOLECULE
6c7d_ligand
   60    66     1     0     0
SMALL
GAST_HUCK


@<TRIPOS>ATOM
      1 C4          9.0290    9.6640    0.6030 C.3       1 EOJ        -0.0242
      2 C5         10.1450    9.4720    1.6070 C.3       1 EOJ         0.0533
      3 C6         12.1240   11.2150    0.4120 C.3       1 EOJ        -0.0472
      4 C7         10.9270   11.7780    1.1310 C.3       1 EOJ        -0.0382
      5 C8          9.7870   11.9620    0.1530 C.3       1 EOJ        -0.0472
      6 C13         7.9040    5.5010    5.8700 C.ar      1 EOJ         0.0709
      7 C15         7.9880    5.7210    3.4710 C.ar      1 EOJ        -0.0041
      8 C17         9.4810    7.0030    4.8660 C.ar      1 EOJ        -0.0491
      9 C20         5.8970    3.6980    5.6770 C.2       1 EOJ         0.2087
     10 C22         9.5430    7.2400    2.4260 C.2       1 EOJ         0.2023
     11 C26         5.9630    3.6740    2.0550 C.ar      1 EOJ         0.0491
     12 C28         5.1710    4.1080   -0.1690 C.ar      1 EOJ        -0.0590
     13 C29         6.3610    3.6570   -0.6960 C.ar      1 EOJ        -0.0596
     14 C27         4.9740    4.1070    1.1960 C.ar      1 EOJ        -0.0465
     15 C12         8.9240    6.4250    5.9850 C.ar      1 EOJ        -0.0426
     16 C30         7.3520    3.2070    0.1460 C.ar      1 EOJ        -0.0452
     17 C16         9.0000    6.6330    3.6300 C.ar      1 EOJ         0.0448
     18 C14         7.4550    5.1630    4.6090 C.ar      1 EOJ         0.1325
     19 C31         7.1470    3.2200    1.5110 C.ar      1 EOJ         0.0555
     20 C25         5.7400    3.6280    3.4970 C.2       1 EOJ         0.1818
     21 C19         6.4110    4.0900    6.9500 C.2       1 EOJ         0.0934
     22 C9         10.6450   10.0660   -1.1770 C.3       1 EOJ        -0.0472
     23 C11        10.5030   10.8090    2.2090 C.3       1 EOJ        -0.0242
     24 C1         11.3540    8.9250    0.8980 C.3       1 EOJ        -0.0242
     25 C2         11.7790    9.8790   -0.1950 C.3       1 EOJ        -0.0382
     26 C3          9.4330   10.6350   -0.4780 C.3       1 EOJ        -0.0382
     27 C34         5.8060    3.4670    8.1710 C.3       1 EOJ         0.0011
     28 N24         4.8370    2.8150    4.0180 N.2       1 EOJ        -0.2395
     29 N23         4.9250    2.8640    5.3880 N.2       1 EOJ        -0.2370
     30 N18         7.3720    4.9500    7.0460 N.2       1 EOJ        -0.2827
     31 N21         6.4260    4.2190    4.5270 N.pl3     1 EOJ        -0.1589
     32 N10         9.6710    8.5890    2.6380 N.am      1 EOJ        -0.2806
     33 O33         9.7480    6.6150    1.3950 O.2       1 EOJ        -0.3859
     34 CL3         8.4640    2.6360    2.4880 Cl        1 EOJ        -0.0671
     35 H1          8.1413   10.0537    1.1226 H         1 EOJ         0.0293
     36 H2          8.7884    8.6941    0.1432 H         1 EOJ         0.0293
     37 H3         12.9513   11.0881    1.1257 H         1 EOJ         0.0271
     38 H4         12.4301   11.9089   -0.3847 H         1 EOJ         0.0271
     39 H5         11.1873   12.7468    1.5823 H         1 EOJ         0.0302
     40 H6         10.0904   12.6701   -0.6322 H         1 EOJ         0.0271
     41 H7          8.9098   12.3585    0.6853 H         1 EOJ         0.0271
     42 H8          7.6227    5.4507    2.4868 H         1 EOJ         0.0640
     43 H9         10.2787    7.7315    4.9560 H         1 EOJ         0.0613
     44 H10         4.3879    4.4644   -0.8284 H         1 EOJ         0.0623
     45 H11         6.5161    3.6566   -1.7689 H         1 EOJ         0.0632
     46 H12         4.0287    4.4513    1.5997 H         1 EOJ         0.0643
     47 H13         9.2905    6.6985    6.9678 H         1 EOJ         0.0599
     48 H14         8.2890    2.8441   -0.2606 H         1 EOJ         0.0628
     49 H15        10.3848    9.0934   -1.6200 H         1 EOJ         0.0271
     50 H16        10.9633   10.7573   -1.9712 H         1 EOJ         0.0271
     51 H17        11.3304   10.6754    2.9214 H         1 EOJ         0.0293
     52 H18         9.6271   11.2148    2.7363 H         1 EOJ         0.0293
     53 H19        11.1077    7.9485    0.4555 H         1 EOJ         0.0293
     54 H20        12.1767    8.8043    1.6181 H         1 EOJ         0.0293
     55 H21        12.6570    9.4716   -0.7176 H         1 EOJ         0.0302
     56 H22         8.6102   10.7700   -1.1955 H         1 EOJ         0.0302
     57 H23         6.3014    3.8644    9.0691 H         1 EOJ         0.0472
     58 H24         5.9401    2.3760    8.1307 H         1 EOJ         0.0472
     59 H25         4.7324    3.7033    8.2096 H         1 EOJ         0.0472
     60 H26         9.4288    8.9676    3.5313 H         1 EOJ         0.1850
@<TRIPOS>BOND
     1    2    1 1  
     2    1   26 1  
     3    2   23 1  
     4    2   24 1  
     5   32    2 1  
     6    4    3 1  
     7    3   25 1  
     8    4    5 1  
     9   23    4 1  
    10   26    5 1  
    11    6   15 ar 
    12   18    6 ar 
    13    6   30 1  
    14    7   17 ar 
    15   18    7 ar 
    16   15    8 ar 
    17   17    8 ar 
    18    9   21 1  
    19    9   29 2  
    20   31    9 1  
    21   17   10 1  
    22   10   32 am 
    23   10   33 2  
    24   11   14 ar 
    25   11   19 ar 
    26   20   11 1  
    27   12   13 ar 
    28   14   12 ar 
    29   16   13 ar 
    30   19   16 ar 
    31   31   18 1  
    32   19   34 1  
    33   20   28 2  
    34   20   31 1  
    35   21   27 1  
    36   21   30 2  
    37   25   22 1  
    38   22   26 1  
    39   24   25 1  
    40   28   29 1  
    41    1   35 1  
    42    1   36 1  
    43    3   37 1  
    44    3   38 1  
    45    4   39 1  
    46    5   40 1  
    47    5   41 1  
    48    7   42 1  
    49    8   43 1  
    50   12   44 1  
    51   13   45 1  
    52   14   46 1  
    53   15   47 1  
    54   16   48 1  
    55   22   49 1  
    56   22   50 1  
    57   23   51 1  
    58   23   52 1  
    59   24   53 1  
    60   24   54 1  
    61   25   55 1  
    62   26   56 1  
    63   27   57 1  
    64   27   58 1  
    65   27   59 1  
    66   32   60 1  
@<TRIPOS>SUBSTRUCTURE
     1 EOJ         1

