### 
### Created by X-TOOL on Wed Jan  1 15:39:35 2020
### 

@<TRIPOS>MOLECULE
6c7e_ligand
   39    42     1     0     0
SMALL
GAST_HUCK


@<TRIPOS>ATOM
      1 C4          9.3750    6.4100    6.8720 C.ar      1 EOG         0.0709
      2 C5          8.9940    6.0680    5.5930 C.ar      1 EOG         0.1325
      3 C6          9.6320    6.5730    4.4850 C.ar      1 EOG        -0.0041
      4 C7         11.3580    7.9750    3.4990 C.2       1 EOG         0.2016
      5 C17         7.5220    4.5910    3.0290 C.ar      1 EOG         0.0491
      6 C20         8.0010    4.4950    0.3080 C.ar      1 EOG        -0.0596
      7 C21         8.9350    3.9910    1.1810 C.ar      1 EOG        -0.0452
      8 C22         8.6860    4.0340    2.5320 C.ar      1 EOG         0.0555
      9 C24        12.6650    9.8330    2.6560 C.3       1 EOG         0.0190
     10 C19         6.8400    5.0450    0.7900 C.ar      1 EOG        -0.0590
     11 C18         6.5890    5.0820    2.1450 C.ar      1 EOG        -0.0465
     12 C2         11.1020    7.8010    5.9400 C.ar      1 EOG        -0.0491
     13 C3         10.4420    7.2780    7.0290 C.ar      1 EOG        -0.0426
     14 C1         10.6800    7.4400    4.6770 C.ar      1 EOG         0.0448
     15 C16         7.2420    4.5850    4.4440 C.2       1 EOG         0.1818
     16 C12         7.2910    4.7180    6.6040 C.2       1 EOG         0.2087
     17 C11         7.7490    5.1060    7.8930 C.2       1 EOG         0.0934
     18 C25         7.0330    4.5390    9.0800 C.3       1 EOG         0.0011
     19 N15         6.2740    3.8360    4.9280 N.2       1 EOG        -0.2395
     20 N14         6.2930    3.9200    6.2920 N.2       1 EOG        -0.2370
     21 N10         8.7500    5.9140    8.0180 N.2       1 EOG        -0.2827
     22 N13         7.9220    5.1730    5.4870 N.pl3     1 EOG        -0.1589
     23 N8         11.9630    9.1860    3.7300 N.am      1 EOG        -0.2897
     24 O9         11.3260    7.3690    2.4390 O.2       1 EOG        -0.3859
     25 CL3         9.9070    3.3900    3.5660 Cl        1 EOG        -0.0671
     26 H1          9.3164    6.2944    3.4861 H         1 EOG         0.0640
     27 H2          8.1813    4.4581   -0.7603 H         1 EOG         0.0632
     28 H3          9.8588    3.5638    0.8079 H         1 EOG         0.0628
     29 H4         13.0849   10.7848    3.0133 H         1 EOG         0.0483
     30 H5         11.9683   10.0278    1.8273 H         1 EOG         0.0483
     31 H6         13.4792    9.1818    2.3052 H         1 EOG         0.0483
     32 H7          6.1128    5.4546    0.0983 H         1 EOG         0.0623
     33 H8          5.6580    5.4973    2.5135 H         1 EOG         0.0643
     34 H9         11.9352    8.4817    6.0719 H         1 EOG         0.0613
     35 H10        10.7636    7.5508    8.0276 H         1 EOG         0.0599
     36 H11         7.4919    4.9232   10.0029 H         1 EOG         0.0472
     37 H12         7.1069    3.4416    9.0631 H         1 EOG         0.0472
     38 H13         5.9744    4.8358    9.0459 H         1 EOG         0.0472
     39 H14        11.9157    9.6119    4.6335 H         1 EOG         0.1840
@<TRIPOS>BOND
     1    2    1 ar 
     2    1   13 ar 
     3    1   21 1  
     4    2    3 ar 
     5   22    2 1  
     6    3   14 ar 
     7   14    4 1  
     8    4   23 am 
     9    4   24 2  
    10    5    8 ar 
    11    5   11 ar 
    12   15    5 1  
    13    7    6 ar 
    14   10    6 ar 
    15    8    7 ar 
    16    8   25 1  
    17   23    9 1  
    18   11   10 ar 
    19   13   12 ar 
    20   14   12 ar 
    21   15   19 2  
    22   22   15 1  
    23   16   17 1  
    24   16   20 2  
    25   16   22 1  
    26   17   18 1  
    27   17   21 2  
    28   19   20 1  
    29    3   26 1  
    30    6   27 1  
    31    7   28 1  
    32    9   29 1  
    33    9   30 1  
    34    9   31 1  
    35   10   32 1  
    36   11   33 1  
    37   12   34 1  
    38   13   35 1  
    39   18   36 1  
    40   18   37 1  
    41   18   38 1  
    42   23   39 1  
@<TRIPOS>SUBSTRUCTURE
     1 EOG         1

