### 
### Created by X-TOOL on Wed Jan  1 15:39:37 2020
### 

@<TRIPOS>MOLECULE
6c7f_ligand
   52    55     1     0     0
SMALL
GAST_HUCK


@<TRIPOS>ATOM
      1 C4         55.9970    3.9720   23.5140 C.ar      1 EOS        -0.0041
      2 C5         57.0970    4.7540   23.7680 C.ar      1 EOS         0.0448
      3 C6         57.5780    4.9690   25.0420 C.ar      1 EOS        -0.0491
      4 C8         54.1480    2.2630   26.8160 C.2       1 EOS         0.0934
      5 C17        53.8480    2.3250   21.9370 C.ar      1 EOS         0.0401
      6 C20        54.5240    2.5780   19.2680 C.ar      1 EOS        -0.0304
      7 C21        55.3350    1.8540   20.0980 C.ar      1 EOS        -0.0535
      8 C22        54.9910    1.7310   21.4190 C.ar      1 EOS         0.0438
      9 C26        50.7550    5.2590   18.9430 C.3       1 EOS        -0.0188
     10 C28        49.4240    5.4420   19.6310 C.3       1 EOS        -0.0602
     11 C1         56.9250    4.3730   26.0970 C.ar      1 EOS        -0.0426
     12 C18        53.0230    3.0470   21.0910 C.ar      1 EOS        -0.0183
     13 C2         55.8190    3.5810   25.8840 C.ar      1 EOS         0.0709
     14 C3         55.3750    3.3910   24.5910 C.ar      1 EOS         0.1325
     15 C19        53.3870    3.1630   19.7630 C.ar      1 EOS         0.0938
     16 C16        53.5370    2.1470   23.3340 C.2       1 EOS         0.1792
     17 C9         53.6310    2.0330   25.5040 C.2       1 EOS         0.2088
     18 C11        57.7560    5.3900   22.6280 C.2       1 EOS         0.2016
     19 C12        53.4570    1.6300   27.9820 C.3       1 EOS         0.0011
     20 C27        51.7150    6.3310   19.3920 C.3       1 EOS        -0.0602
     21 C30        58.9500    7.3970   21.9580 C.3       1 EOS         0.0190
     22 C25        51.3100    3.9050   19.2950 C.3       1 EOS         0.0728
     23 N15        52.5360    1.4030   23.7500 N.2       1 EOS        -0.2395
     24 N14        52.5860    1.3350   25.1130 N.2       1 EOS        -0.2370
     25 N7         55.1900    3.0050   26.9940 N.2       1 EOS        -0.2827
     26 N10        54.2520    2.5790   24.4260 N.pl3     1 EOS        -0.1590
     27 N29        58.3260    6.5840   22.9730 N.am      1 EOS        -0.2897
     28 O13        57.6970    4.9190   21.5030 O.2       1 EOS        -0.3859
     29 O24        52.6440    3.8730   18.8340 O.3       1 EOS        -0.3172
     30 CL3        56.0690    0.7930   22.3700 Cl        1 EOS        -0.0771
     31 H1         55.6345    3.8197   22.5038 H         1 EOS         0.0640
     32 H2         58.4491    5.5922   25.2088 H         1 EOS         0.0613
     33 H3         54.7798    2.6891   18.2205 H         1 EOS         0.0560
     34 H4         56.2351    1.3851   19.7172 H         1 EOS         0.0602
     35 H5         50.6165    5.3269   17.8539 H         1 EOS         0.0321
     36 H6         49.0131    6.4304   19.3775 H         1 EOS         0.0233
     37 H7         49.5612    5.3704   20.7200 H         1 EOS         0.0233
     38 H8         48.7277    4.6587   19.2968 H         1 EOS         0.0233
     39 H9         57.2857    4.5290   27.1073 H         1 EOS         0.0599
     40 H10        52.1150    3.5093   21.4610 H         1 EOS         0.0563
     41 H11        53.9780    1.9056   28.9108 H         1 EOS         0.0472
     42 H12        53.4689    0.5362   27.8657 H         1 EOS         0.0472
     43 H13        52.4161    1.9827   28.0270 H         1 EOS         0.0472
     44 H14        52.6823    6.1918   18.8871 H         1 EOS         0.0233
     45 H15        51.8567    6.2637   20.4808 H         1 EOS         0.0233
     46 H16        51.3066    7.3197   19.1357 H         1 EOS         0.0233
     47 H17        59.3506    8.3129   22.4169 H         1 EOS         0.0483
     48 H18        58.2055    7.6651   21.1939 H         1 EOS         0.0483
     49 H19        59.7698    6.8330   21.4892 H         1 EOS         0.0483
     50 H20        50.7216    3.1162   18.8036 H         1 EOS         0.0616
     51 H21        51.2833    3.7575   20.3847 H         1 EOS         0.0616
     52 H22        58.3103    6.8921   23.9242 H         1 EOS         0.1840
@<TRIPOS>BOND
     1    1    2 ar 
     2   14    1 ar 
     3    2    3 ar 
     4    2   18 1  
     5   11    3 ar 
     6   17    4 1  
     7    4   19 1  
     8    4   25 2  
     9    5    8 ar 
    10   12    5 ar 
    11    5   16 1  
    12    6    7 ar 
    13   15    6 ar 
    14    7    8 ar 
    15    8   30 1  
    16    9   10 1  
    17    9   20 1  
    18   22    9 1  
    19   13   11 ar 
    20   15   12 ar 
    21   14   13 ar 
    22   13   25 1  
    23   26   14 1  
    24   29   15 1  
    25   16   23 2  
    26   16   26 1  
    27   17   24 2  
    28   26   17 1  
    29   18   27 am 
    30   18   28 2  
    31   27   21 1  
    32   22   29 1  
    33   23   24 1  
    34    1   31 1  
    35    3   32 1  
    36    6   33 1  
    37    7   34 1  
    38    9   35 1  
    39   10   36 1  
    40   10   37 1  
    41   10   38 1  
    42   11   39 1  
    43   12   40 1  
    44   19   41 1  
    45   19   42 1  
    46   19   43 1  
    47   20   44 1  
    48   20   45 1  
    49   20   46 1  
    50   21   47 1  
    51   21   48 1  
    52   21   49 1  
    53   22   50 1  
    54   22   51 1  
    55   27   52 1  
@<TRIPOS>SUBSTRUCTURE
     1 EOS         1

