### 
### Created by X-TOOL on Wed Jan  1 15:39:37 2020
### 

@<TRIPOS>MOLECULE
6c7g_ligand
   73    79     1     0     0
SMALL
GAST_HUCK


@<TRIPOS>ATOM
      1 C4          7.4110    5.3680    3.6300 C.ar      1 EOY        -0.0041
      2 C5          8.4820    6.1920    3.8760 C.ar      1 EOY         0.0448
      3 C6          8.8790    6.5470    5.1450 C.ar      1 EOY        -0.0491
      4 C8          5.3900    3.9690    6.9570 C.2       1 EOY         0.0934
      5 C17         5.3150    3.4500    2.0240 C.ar      1 EOY         0.0401
      6 C20         5.9100    3.3480   -0.7040 C.ar      1 EOY        -0.0304
      7 C21         6.7730    2.8030    0.2160 C.ar      1 EOY        -0.0535
      8 C22         6.4740    2.8480    1.5600 C.ar      1 EOY         0.0438
      9 C26         2.4490    6.2140   -1.7100 C.3       1 EOY        -0.0188
     10 C28         1.7530    7.4590   -1.2160 C.3       1 EOY        -0.0602
     11 C1          8.1610    6.0370    6.2000 C.ar      1 EOY        -0.0426
     12 C18         4.4520    3.9940    1.0920 C.ar      1 EOY        -0.0183
     13 C2          7.0830    5.2040    5.9980 C.ar      1 EOY         0.0709
     14 C3          6.7250    4.8730    4.7080 C.ar      1 EOY         0.1325
     15 C19         4.7590    3.9470   -0.2550 C.ar      1 EOY         0.0938
     16 C16         4.9840    3.4610    3.4500 C.2       1 EOY         0.1792
     17 C9          4.9650    3.5900    5.6420 C.2       1 EOY         0.2088
     18 C11         9.1920    6.7200    2.7120 C.2       1 EOY         0.2023
     19 C33        12.1020   10.9240    1.2610 C.3       1 EOY        -0.0472
     20 C35        10.2600   10.5750   -0.3300 C.3       1 EOY        -0.0472
     21 C38        12.1330    8.9850   -0.2510 C.3       1 EOY        -0.0472
     22 C39         9.8840   10.2450    2.0740 C.3       1 EOY        -0.0242
     23 C31        11.7510    8.6600    2.1540 C.3       1 EOY        -0.0242
     24 C37         9.9120    8.3100    0.5630 C.3       1 EOY        -0.0242
     25 C34        10.6160   11.0720    1.0480 C.3       1 EOY        -0.0382
     26 C32        12.4980    9.4750    1.1280 C.3       1 EOY        -0.0382
     27 C36        10.6470    9.1250   -0.4720 C.3       1 EOY        -0.0382
     28 C30        10.2630    8.7900    1.9480 C.3       1 EOY         0.0533
     29 C12         4.6420    3.4430    8.1420 C.3       1 EOY         0.0011
     30 C27         1.4530    5.1020   -1.9070 C.3       1 EOY        -0.0602
     31 C25         3.4870    5.7370   -0.7240 C.3       1 EOY         0.0728
     32 N15         3.9690    2.7520    3.9150 N.2       1 EOY        -0.2395
     33 N14         3.9500    2.8410    5.2840 N.2       1 EOY        -0.2370
     34 N7          6.4110    4.7360    7.1290 N.2       1 EOY        -0.2827
     35 N10         5.6270    4.0230    4.5290 N.pl3     1 EOY        -0.1590
     36 N29         9.5620    8.0200    2.9430 N.am      1 EOY        -0.2806
     37 O13         9.3160    6.0770    1.6770 O.2       1 EOY        -0.3859
     38 O24         3.9150    4.4720   -1.2170 O.3       1 EOY        -0.3172
     39 CL3         7.6410    2.1240    2.6180 Cl        1 EOY        -0.0771
     40 H1          7.1182    5.1176    2.6168 H         1 EOY         0.0640
     41 H2          9.7260    7.2040    5.3063 H         1 EOY         0.0613
     42 H3          6.1336    3.3058   -1.7639 H         1 EOY         0.0560
     43 H4          7.6927    2.3358   -0.1171 H         1 EOY         0.0602
     44 H5          2.9384    6.4402   -2.6688 H         1 EOY         0.0321
     45 H6          1.0049    7.7790   -1.9562 H         1 EOY         0.0233
     46 H7          2.4929    8.2602   -1.0725 H         1 EOY         0.0233
     47 H8          1.2539    7.2450   -0.2594 H         1 EOY         0.0233
     48 H9          8.4492    6.2958    7.2124 H         1 EOY         0.0599
     49 H10         3.5295    4.4600    1.4188 H         1 EOY         0.0563
     50 H11        12.3637   11.2826    2.2674 H         1 EOY         0.0271
     51 H12        12.6394   11.5195    0.5083 H         1 EOY         0.0271
     52 H13        10.7979   11.1707   -1.0822 H         1 EOY         0.0271
     53 H14         9.1762   10.6795   -0.4860 H         1 EOY         0.0271
     54 H15        12.4177    7.9270   -0.3488 H         1 EOY         0.0271
     55 H16        12.6708    9.5805   -1.0034 H         1 EOY         0.0271
     56 H17         8.8003   10.3515    1.9185 H         1 EOY         0.0293
     57 H18        10.1468   10.6016    3.0808 H         1 EOY         0.0293
     58 H19        12.0101    9.0195    3.1608 H         1 EOY         0.0293
     59 H20        12.0392    7.6029    2.0567 H         1 EOY         0.0293
     60 H21        10.1966    7.2523    0.4620 H         1 EOY         0.0293
     61 H22         8.8284    8.4148    0.4058 H         1 EOY         0.0293
     62 H23        10.3293   12.1292    1.1482 H         1 EOY         0.0302
     63 H24        13.5815    9.3697    1.2859 H         1 EOY         0.0302
     64 H25        10.3860    8.7680   -1.4792 H         1 EOY         0.0302
     65 H26         5.0983    3.8302    9.0650 H         1 EOY         0.0472
     66 H27         4.6854    2.3439    8.1447 H         1 EOY         0.0472
     67 H28         3.5927    3.7684    8.0873 H         1 EOY         0.0472
     68 H29         1.9741    4.2025   -2.2667 H         1 EOY         0.0233
     69 H30         0.7006    5.4106   -2.6477 H         1 EOY         0.0233
     70 H31         0.9568    4.8805   -0.9506 H         1 EOY         0.0233
     71 H32         3.0472    5.6317    0.2787 H         1 EOY         0.0616
     72 H33         4.3315    6.4406   -0.6820 H         1 EOY         0.0616
     73 H34         9.3402    8.4428    3.8217 H         1 EOY         0.1850
@<TRIPOS>BOND
     1    1    2 ar 
     2   14    1 ar 
     3    2    3 ar 
     4    2   18 1  
     5   11    3 ar 
     6   17    4 1  
     7    4   29 1  
     8    4   34 2  
     9    5    8 ar 
    10   12    5 ar 
    11    5   16 1  
    12    6    7 ar 
    13   15    6 ar 
    14    7    8 ar 
    15    8   39 1  
    16    9   10 1  
    17    9   30 1  
    18   31    9 1  
    19   13   11 ar 
    20   15   12 ar 
    21   14   13 ar 
    22   13   34 1  
    23   35   14 1  
    24   38   15 1  
    25   16   32 2  
    26   16   35 1  
    27   17   33 2  
    28   35   17 1  
    29   18   36 am 
    30   18   37 2  
    31   25   19 1  
    32   26   19 1  
    33   25   20 1  
    34   27   20 1  
    35   26   21 1  
    36   27   21 1  
    37   22   25 1  
    38   28   22 1  
    39   23   26 1  
    40   28   23 1  
    41   24   27 1  
    42   28   24 1  
    43   36   28 1  
    44   31   38 1  
    45   32   33 1  
    46    1   40 1  
    47    3   41 1  
    48    6   42 1  
    49    7   43 1  
    50    9   44 1  
    51   10   45 1  
    52   10   46 1  
    53   10   47 1  
    54   11   48 1  
    55   12   49 1  
    56   19   50 1  
    57   19   51 1  
    58   20   52 1  
    59   20   53 1  
    60   21   54 1  
    61   21   55 1  
    62   22   56 1  
    63   22   57 1  
    64   23   58 1  
    65   23   59 1  
    66   24   60 1  
    67   24   61 1  
    68   25   62 1  
    69   26   63 1  
    70   27   64 1  
    71   29   65 1  
    72   29   66 1  
    73   29   67 1  
    74   30   68 1  
    75   30   69 1  
    76   30   70 1  
    77   31   71 1  
    78   31   72 1  
    79   36   73 1  
@<TRIPOS>SUBSTRUCTURE
     1 EOY         1

