### 
### Created by X-TOOL on Wed Jan  1 15:39:35 2020
### 

@<TRIPOS>MOLECULE
6c7i_ligand
   52    55     1     0     0
SMALL
GAST_HUCK


@<TRIPOS>ATOM
      1 C4          8.5830    5.8680    4.9360 C.ar      1 EP7        -0.0041
      2 C5          9.6340    6.7400    5.0750 C.ar      1 EP7         0.0448
      3 C6         10.0560    7.1570    6.3160 C.ar      1 EP7        -0.0491
      4 C8          6.7170    4.5490    8.3980 C.2       1 EP7         0.0934
      5 N12         5.2690    3.3080    6.8070 N.2       1 EP7        -0.2370
      6 C15         6.5980    3.8360    3.5420 C.ar      1 EP7         0.0401
      7 C17         6.1770    4.2180    1.2400 C.ar      1 EP7         0.0934
      8 C20         7.7820    3.2130    3.1830 C.ar      1 EP7         0.0438
      9 C24        11.3960    9.1610    2.8910 C.3       1 EP7         0.0326
     10 C26         4.1480    5.0030    0.7530 C.3       1 EP7         0.0594
     11 C28        10.5880   10.3400    2.4080 C.3       1 EP7        -0.0266
     12 C1          9.4050    6.6850    7.4330 C.ar      1 EP7        -0.0426
     13 C18         7.3580    3.6100    0.8930 C.ar      1 EP7        -0.0305
     14 C19         8.1740    3.1050    1.8700 C.ar      1 EP7        -0.0535
     15 C16         5.7730    4.3420    2.5530 C.ar      1 EP7        -0.0183
     16 C2          8.3490    5.8080    7.3350 C.ar      1 EP7         0.0709
     17 C3          7.9560    5.4160    6.0690 C.ar      1 EP7         0.1325
     18 C14         6.2450    3.8960    4.9480 C.2       1 EP7         0.1792
     19 C9          6.2650    4.1090    7.1160 C.2       1 EP7         0.2088
     20 C11        10.2970    7.2310    3.8640 C.2       1 EP7         0.2018
     21 C27         5.9880    4.0180    9.5920 C.3       1 EP7         0.0011
     22 C29         9.4930   10.6410    3.4010 C.3       1 EP7        -0.0608
     23 C30        11.4890   11.5450    2.2790 C.3       1 EP7        -0.0608
     24 N13         5.2690    3.1700    5.4450 N.2       1 EP7        -0.2395
     25 N7          7.7190    5.3610    8.5070 N.2       1 EP7        -0.2827
     26 N10         6.8910    4.5240    5.9850 N.pl3     1 EP7        -0.1590
     27 N23        10.7260    8.5280    3.9950 N.am      1 EP7        -0.2864
     28 O22        10.3880    6.5410    2.8580 O.2       1 EP7        -0.3859
     29 O25         5.4180    4.6950    0.1960 O.3       1 EP7        -0.3207
     30 CL1         8.8780    2.5410    4.3520 Cl        1 EP7        -0.0771
     31 H1          8.2564    5.5444    3.9543 H         1 EP7         0.0640
     32 H2         10.8874    7.8459    6.4126 H         1 EP7         0.0613
     33 H3         12.3880    9.5074    3.2165 H         1 EP7         0.0522
     34 H4         11.5113    8.4372    2.0708 H         1 EP7         0.0522
     35 H5          3.4868    5.3927   -0.0350 H         1 EP7         0.0577
     36 H6          4.2671    5.7620    1.5402 H         1 EP7         0.0577
     37 H7          3.7066    4.0928    1.1850 H         1 EP7         0.0577
     38 H8         10.1435   10.1055    1.4295 H         1 EP7         0.0315
     39 H9          9.7319    7.0119    8.4135 H         1 EP7         0.0599
     40 H10         7.6433    3.5300   -0.1497 H         1 EP7         0.0560
     41 H11         9.1128    2.6283    1.6123 H         1 EP7         0.0602
     42 H12         4.8344    4.8230    2.8034 H         1 EP7         0.0563
     43 H13         6.4337    4.4328   10.5081 H         1 EP7         0.0472
     44 H14         6.0654    2.9209    9.6109 H         1 EP7         0.0472
     45 H15         4.9290    4.3100    9.5348 H         1 EP7         0.0472
     46 H16         8.9043   11.5007    3.0482 H         1 EP7         0.0233
     47 H17         9.9391   10.8783    4.3781 H         1 EP7         0.0233
     48 H18         8.8371    9.7636    3.5007 H         1 EP7         0.0233
     49 H19        12.2889   11.3289    1.5554 H         1 EP7         0.0233
     50 H20        11.9332   11.7772    3.2581 H         1 EP7         0.0233
     51 H21        10.9013   12.4066    1.9294 H         1 EP7         0.0233
     52 H22        10.5745    9.0271    4.8482 H         1 EP7         0.1844
@<TRIPOS>BOND
     1    2    1 ar 
     2    1   17 ar 
     3    2    3 ar 
     4   20    2 1  
     5    3   12 ar 
     6   19    4 1  
     7    4   21 1  
     8   25    4 2  
     9   19    5 2  
    10    5   24 1  
    11    6    8 ar 
    12    6   15 ar 
    13   18    6 1  
    14    7   13 ar 
    15   15    7 ar 
    16    7   29 1  
    17    8   14 ar 
    18    8   30 1  
    19    9   11 1  
    20   27    9 1  
    21   29   10 1  
    22   11   22 1  
    23   11   23 1  
    24   12   16 ar 
    25   14   13 ar 
    26   17   16 ar 
    27   16   25 1  
    28   17   26 1  
    29   18   24 2  
    30   26   18 1  
    31   26   19 1  
    32   20   27 am 
    33   20   28 2  
    34    1   31 1  
    35    3   32 1  
    36    9   33 1  
    37    9   34 1  
    38   10   35 1  
    39   10   36 1  
    40   10   37 1  
    41   11   38 1  
    42   12   39 1  
    43   13   40 1  
    44   14   41 1  
    45   15   42 1  
    46   21   43 1  
    47   21   44 1  
    48   21   45 1  
    49   22   46 1  
    50   22   47 1  
    51   22   48 1  
    52   23   49 1  
    53   23   50 1  
    54   23   51 1  
    55   27   52 1  
@<TRIPOS>SUBSTRUCTURE
     1 EP7         1

