### 
### Created by X-TOOL on Wed Jan  1 15:39:36 2020
### 

@<TRIPOS>MOLECULE
6c7j_ligand
   61    64     1     0     0
SMALL
GAST_HUCK


@<TRIPOS>ATOM
      1 C4          8.8740    6.5700    4.4750 C.ar      1 EPV        -0.0041
      2 C5          9.9290    7.4050    4.7630 C.ar      1 EPV         0.0448
      3 C6         10.4710    7.4890    6.0250 C.ar      1 EPV        -0.0491
      4 C8          7.3500    4.2790    7.6230 C.2       1 EPV         0.0934
      5 C17         6.5170    4.5640    4.1990 C.2       1 EPV         0.1792
      6 C20         5.8800    6.4360    1.0520 C.ar      1 EPV         0.0945
      7 C21         6.4570    5.6240    0.0970 C.ar      1 EPV        -0.0304
      8 C22         7.0770    4.4620    0.5020 C.ar      1 EPV        -0.0535
      9 C26        12.7190   10.5740    3.0790 C.3       1 EPV        -0.0266
     10 C28        13.1710   11.2150    4.3700 C.3       1 EPV        -0.0608
     11 C1          9.9330    6.7020    7.0290 C.ar      1 EPV        -0.0426
     12 C19         5.9140    6.1010    2.3920 C.ar      1 EPV        -0.0183
     13 C18         6.5450    4.9440    2.7980 C.ar      1 EPV         0.0401
     14 C2          8.8680    5.8550    6.7790 C.ar      1 EPV         0.0709
     15 C3          8.3560    5.8010    5.4920 C.ar      1 EPV         0.1325
     16 C23         7.1300    4.1310    1.8470 C.ar      1 EPV         0.0438
     17 C9          6.7880    4.1780    6.3210 C.2       1 EPV         0.2088
     18 C11        10.4430    8.2320    3.6700 C.2       1 EPV         0.2018
     19 C12         6.7440    3.4280    8.7000 C.3       1 EPV         0.0011
     20 C27        13.0940   11.4750    1.9270 C.3       1 EPV        -0.0608
     21 C31         3.3760    6.1280    0.2260 C.3       1 EPV        -0.0319
     22 C32         3.1030    8.5380    0.6380 C.3       1 EPV        -0.0319
     23 C33         4.1450    7.7950   -1.4190 C.3       1 EPV        -0.0319
     24 C25        11.2110   10.4390    3.0850 C.3       1 EPV         0.0326
     25 C30         3.9930    7.4880    0.0450 C.3       1 EPV         0.0836
     26 N16         5.6380    3.6720    4.5950 N.2       1 EPV        -0.2395
     27 N15         5.7860    3.4210    5.9270 N.2       1 EPV        -0.2370
     28 N7          8.3460    5.0810    7.8310 N.2       1 EPV        -0.2827
     29 N10         7.2810    4.9210    5.2800 N.pl3     1 EPV        -0.1590
     30 N13        10.7320    9.5060    4.0720 N.am      1 EPV        -0.2864
     31 O14        10.5480    7.8220    2.5260 O.2       1 EPV        -0.3859
     32 O29         5.2690    7.6240    0.6880 O.3       1 EPV        -0.3119
     33 CL4         7.9220    2.6670    2.3390 Cl        1 EPV        -0.0771
     34 H1          8.4618    6.5192    3.4737 H         1 EPV         0.0640
     35 H2         11.3006    8.1564    6.2285 H         1 EPV         0.0613
     36 H3          6.4231    5.8952   -0.9520 H         1 EPV         0.0560
     37 H4          7.5250    3.8042   -0.2340 H         1 EPV         0.0602
     38 H5         13.1901    9.5868    2.9629 H         1 EPV         0.0315
     39 H6         14.2666   11.3135    4.3665 H         1 EPV         0.0233
     40 H7         12.8620   10.5874    5.2189 H         1 EPV         0.0233
     41 H8         12.7137   12.2109    4.4647 H         1 EPV         0.0233
     42 H9         10.3530    6.7502    8.0272 H         1 EPV         0.0599
     43 H10         5.4446    6.7478    3.1243 H         1 EPV         0.0563
     44 H11         7.2724    3.6055    9.6483 H         1 EPV         0.0472
     45 H12         6.8338    2.3672    8.4232 H         1 EPV         0.0472
     46 H13         5.6816    3.6875    8.8181 H         1 EPV         0.0472
     47 H14        12.7686   11.0162    0.9817 H         1 EPV         0.0233
     48 H15        14.1850   11.6143    1.9105 H         1 EPV         0.0233
     49 H16        12.6016   12.4510    2.0494 H         1 EPV         0.0233
     50 H17         2.4050    6.0943   -0.2898 H         1 EPV         0.0261
     51 H18         3.2285    5.9320    1.2983 H         1 EPV         0.0261
     52 H19         4.0432    5.3632   -0.1982 H         1 EPV         0.0261
     53 H20         3.5623    9.5281    0.5008 H         1 EPV         0.0261
     54 H21         2.9693    8.3415    1.7120 H         1 EPV         0.0261
     55 H22         2.1243    8.5152    0.1364 H         1 EPV         0.0261
     56 H23         4.7949    7.0405   -1.8863 H         1 EPV         0.0261
     57 H24         4.5945    8.7916   -1.5399 H         1 EPV         0.0261
     58 H25         3.1568    7.7774   -1.9019 H         1 EPV         0.0261
     59 H26        10.8861   10.0956    2.0918 H         1 EPV         0.0522
     60 H27        10.7718   11.4257    3.2936 H         1 EPV         0.0522
     61 H28        10.6140    9.7828    5.0257 H         1 EPV         0.1844
@<TRIPOS>BOND
     1    1    2 ar 
     2   15    1 ar 
     3    2    3 ar 
     4    2   18 1  
     5   11    3 ar 
     6   17    4 1  
     7    4   19 1  
     8    4   28 2  
     9   13    5 1  
    10    5   26 2  
    11    5   29 1  
    12    6    7 ar 
    13    6   12 ar 
    14   32    6 1  
    15    7    8 ar 
    16    8   16 ar 
    17    9   10 1  
    18    9   20 1  
    19   24    9 1  
    20   14   11 ar 
    21   12   13 ar 
    22   13   16 ar 
    23   15   14 ar 
    24   14   28 1  
    25   29   15 1  
    26   16   33 1  
    27   17   27 2  
    28   29   17 1  
    29   18   30 am 
    30   18   31 2  
    31   25   21 1  
    32   25   22 1  
    33   25   23 1  
    34   30   24 1  
    35   25   32 1  
    36   26   27 1  
    37    1   34 1  
    38    3   35 1  
    39    7   36 1  
    40    8   37 1  
    41    9   38 1  
    42   10   39 1  
    43   10   40 1  
    44   10   41 1  
    45   11   42 1  
    46   12   43 1  
    47   19   44 1  
    48   19   45 1  
    49   19   46 1  
    50   20   47 1  
    51   20   48 1  
    52   20   49 1  
    53   21   50 1  
    54   21   51 1  
    55   21   52 1  
    56   22   53 1  
    57   22   54 1  
    58   22   55 1  
    59   23   56 1  
    60   23   57 1  
    61   23   58 1  
    62   24   59 1  
    63   24   60 1  
    64   30   61 1  
@<TRIPOS>SUBSTRUCTURE
     1 EPV         1

