### 
### Created by X-TOOL on Wed Jan  1 15:39:36 2020
### 

@<TRIPOS>MOLECULE
6c7q_ligand
   57    62     1     0     0
SMALL
GAST_HUCK


@<TRIPOS>ATOM
      1 C1         14.5790   -4.8450    5.8200 C.2       1 EO1         0.1421
      2 C2         15.5450   -5.6920    6.2620 C.2       1 EO1         0.0141
      3 C3         16.7660   -5.3250    7.0370 C.ar      1 EO1        -0.0179
      4 C4         17.0600   -5.9010    8.2970 C.ar      1 EO1         0.0771
      5 C5         16.5840   -7.6870    9.8270 C.3       1 EO1         0.0564
      6 C6         18.1800   -5.5110    9.0250 C.ar      1 EO1        -0.0456
      7 C15        18.6090   -4.7940   12.1690 C.ar      1 EO1         0.0399
      8 C17        16.8160   -3.1940   12.3510 C.ar      1 EO1        -0.0726
      9 C18        16.0500   -4.1110   13.0540 C.ar      1 EO1        -0.0711
     10 C22        17.6530   -4.3590    6.5310 C.ar      1 EO1        -0.0493
     11 C23        15.0860   -6.9900    5.8590 C.2       1 EO1         0.0210
     12 C24        15.8160   -8.2910    5.9170 C.3       1 EO1        -0.0274
     13 N6         13.9200   -6.9250    5.2910 N.2       1 EO1        -0.1687
     14 O1         13.5810   -5.5500    5.2480 O.3       1 EO1        -0.1763
     15 C          14.4450   -3.3710    5.7890 C.3       1 EO1         0.0112
     16 C8         18.7590   -3.9690    7.2670 C.ar      1 EO1         0.0522
     17 N          19.7580   -3.0740    6.9340 N.pl3     1 EO1        -0.2668
     18 C9         20.7040   -3.0410    7.9360 C.ar      1 EO1         0.1279
     19 N5         21.8560   -2.3460    7.9270 N.ar      1 EO1        -0.2739
     20 C20        22.6400   -2.5530    8.9920 C.ar      1 EO1         0.0666
     21 C21        23.9350   -1.8070    9.0430 C.3       1 EO1        -0.0044
     22 N4         22.3630   -3.3690   10.0170 N.ar      1 EO1        -0.2680
     23 C11        21.2140   -4.0670   10.0530 C.ar      1 EO1         0.1328
     24 C10        20.2910   -3.9380    8.9730 C.ar      1 EO1         0.0558
     25 C7         19.0390   -4.5340    8.5260 C.ar      1 EO1        -0.0130
     26 O          16.1800   -6.8510    8.7420 O.3       1 EO1        -0.3306
     27 N1         20.9740   -4.8510   11.1880 N.pl3     1 EO1        -0.2498
     28 C12        19.9460   -5.3610   11.9100 C.2       1 EO1         0.1405
     29 C16        18.0850   -3.5310   11.9010 C.ar      1 EO1        -0.0618
     30 C19        16.5320   -5.3860   13.3100 C.ar      1 EO1        -0.0368
     31 C14        17.8090   -5.7180   12.8640 C.ar      1 EO1         0.0856
     32 N3         18.6420   -6.8330   12.9870 N.pl3     1 EO1        -0.2185
     33 N2         19.9060   -6.6260   12.4470 N.2       1 EO1        -0.2014
     34 C13        18.2680   -8.1160   13.5700 C.3       1 EO1         0.0495
     35 H1         15.7753   -8.3930   10.0667 H         1 EO1         0.0573
     36 H2         16.8009   -7.0651   10.7080 H         1 EO1         0.0573
     37 H3         17.4870   -8.2468    9.5421 H         1 EO1         0.0573
     38 H4         18.3853   -5.9698    9.9855 H         1 EO1         0.0459
     39 H5         16.4203   -2.2048   12.1509 H         1 EO1         0.0523
     40 H6         15.0647   -3.8287   13.4070 H         1 EO1         0.0580
     41 H7         17.4700   -3.9166    5.5584 H         1 EO1         0.0449
     42 H8         15.1699   -9.0916    5.5276 H         1 EO1         0.0378
     43 H9         16.0871   -8.5132    6.9596 H         1 EO1         0.0378
     44 H10        16.7288   -8.2269    5.3065 H         1 EO1         0.0378
     45 H11        13.4805   -3.1000    5.3348 H         1 EO1         0.0462
     46 H12        15.2641   -2.9408    5.1941 H         1 EO1         0.0462
     47 H13        14.4907   -2.9770    6.8150 H         1 EO1         0.0462
     48 H14        19.7907   -2.5164    6.0686 H         1 EO1         0.2190
     49 H15        24.0322   -1.1794    8.1448 H         1 EO1         0.0455
     50 H16        24.7693   -2.5228    9.0821 H         1 EO1         0.0455
     51 H17        23.9561   -1.1699    9.9395 H         1 EO1         0.0455
     52 H18        21.8696   -5.1315   11.6124 H         1 EO1         0.2161
     53 H19        18.6694   -2.8105   11.3402 H         1 EO1         0.0598
     54 H20        15.9276   -6.1089   13.8459 H         1 EO1         0.0552
     55 H21        19.1276   -8.8012   13.5304 H         1 EO1         0.0566
     56 H22        17.4297   -8.5463   13.0024 H         1 EO1         0.0566
     57 H23        17.9646   -7.9685   14.6170 H         1 EO1         0.0566
@<TRIPOS>BOND
     1    2    1 2  
     2    1   14 1  
     3    1   15 1  
     4    3    2 1  
     5    2   11 1  
     6    4    3 ar 
     7   10    3 ar 
     8    6    4 ar 
     9    4   26 1  
    10   26    5 1  
    11   25    6 ar 
    12   28    7 1  
    13    7   29 ar 
    14    7   31 ar 
    15    8    9 ar 
    16   29    8 ar 
    17    9   30 ar 
    18   16   10 ar 
    19   11   12 1  
    20   11   13 2  
    21   13   14 1  
    22   16   17 1  
    23   25   16 ar 
    24   18   17 1  
    25   18   19 ar 
    26   24   18 ar 
    27   20   19 ar 
    28   20   21 1  
    29   22   20 ar 
    30   23   22 ar 
    31   23   24 ar 
    32   27   23 1  
    33   24   25 1  
    34   27   28 1  
    35   28   33 2  
    36   30   31 ar 
    37   31   32 1  
    38   32   33 1  
    39   32   34 1  
    40    5   35 1  
    41    5   36 1  
    42    5   37 1  
    43    6   38 1  
    44    8   39 1  
    45    9   40 1  
    46   10   41 1  
    47   12   42 1  
    48   12   43 1  
    49   12   44 1  
    50   15   45 1  
    51   15   46 1  
    52   15   47 1  
    53   17   48 1  
    54   21   49 1  
    55   21   50 1  
    56   21   51 1  
    57   27   52 1  
    58   29   53 1  
    59   30   54 1  
    60   34   55 1  
    61   34   56 1  
    62   34   57 1  
@<TRIPOS>SUBSTRUCTURE
     1 EO1         1

