### 
### Created by X-TOOL on Wed Jan  1 15:39:37 2020
### 

@<TRIPOS>MOLECULE
6c7r_ligand
   56    61     1     0     0
SMALL
GAST_HUCK


@<TRIPOS>ATOM
      1 C2         -1.9080    3.0250   19.6880 C.2       1 EO4         0.0141
      2 C3         -1.1710    3.8500   20.6740 C.ar      1 EO4        -0.0179
      3 C4         -1.7930    4.9160   21.3660 C.ar      1 EO4         0.0772
      4 C5         -3.8430    6.1060   21.7970 C.3       1 EO4         0.0564
      5 N1          0.2710    7.6460   24.9050 N.pl3     1 EO4        -0.2296
      6 C1         -1.6020    2.7850   18.3850 C.2       1 EO4         0.1421
      7 C6         -1.1020    5.6330   22.3400 C.ar      1 EO4        -0.0456
      8 C7          0.2230    5.3240   22.6280 C.ar      1 EO4        -0.0128
      9 C8          0.8480    4.2870   21.9140 C.ar      1 EO4         0.0523
     10 O1         -2.5450    1.9980   17.8280 O.3       1 EO4        -0.1763
     11 N2         -2.4680    9.2210   23.2670 N.2       1 EO4        -0.2543
     12 C9          2.3620    4.9930   23.3940 C.ar      1 EO4         0.1283
     13 N3         -1.8530    8.5780   24.3000 N.pl3     1 EO4        -0.2022
     14 C23        -3.9530    2.1340   21.1410 C.3       1 EO4        -0.0274
     15 C22        -3.1490    2.2930   19.8940 C.2       1 EO4         0.0211
     16 N6         -3.5280    1.6980   18.8020 N.2       1 EO4        -0.1687
     17 C          -0.4980    3.2120   17.4920 C.3       1 EO4         0.0112
     18 C21         0.1650    3.5530   20.9670 C.ar      1 EO4        -0.0493
     19 N           2.1400    4.1280   22.3750 N.pl3     1 EO4        -0.2667
     20 N5          3.4480    5.0550   24.1750 N.ar      1 EO4        -0.2735
     21 C19         3.3660    5.9120   25.1990 C.ar      1 EO4         0.0671
     22 C20         4.5250    5.9760   26.1360 C.3       1 EO4        -0.0043
     23 N4          2.3210    6.7000   25.4660 N.ar      1 EO4        -0.2671
     24 C11         1.2340    6.6650   24.6860 C.ar      1 EO4         0.1378
     25 C10         1.1860    5.7840   23.5940 C.ar      1 EO4         0.0567
     26 O          -3.0950    5.1660   21.0160 O.3       1 EO4        -0.3306
     27 C12        -0.4840    8.3680   24.0240 C.2       1 EO4         0.1746
     28 C18        -2.6420    8.1480   25.4480 C.3       1 EO4         0.0546
     29 C14        -1.5440    9.4110   22.3290 C.2       1 EO4        -0.0035
     30 C13        -0.2910    8.8720   22.7720 C.2       1 EO4        -0.0273
     31 C15        -1.7240   10.0710   21.0060 C.3       1 EO4         0.0298
     32 C17        -2.7000   11.2000   20.8240 C.2       1 EO4        -0.0648
     33 C16        -3.0000    9.8830   20.2370 C.2       1 EO4        -0.0648
     34 H1         -4.8611    6.1931   21.3897 H         1 EO4         0.0573
     35 H2         -3.3486    7.0880   21.7614 H         1 EO4         0.0573
     36 H3         -3.8937    5.7585   22.8394 H         1 EO4         0.0573
     37 H4          0.0987    7.8641   25.8968 H         1 EO4         0.2232
     38 H5         -1.5986    6.4343   22.8751 H         1 EO4         0.0459
     39 H6         -4.8359    1.5123   20.9312 H         1 EO4         0.0378
     40 H7         -4.2772    3.1230   21.4969 H         1 EO4         0.0378
     41 H8         -3.3387    1.6493   21.9141 H         1 EO4         0.0378
     42 H9         -0.6449    2.7757   16.4930 H         1 EO4         0.0462
     43 H10         0.4617    2.8678   17.9049 H         1 EO4         0.0462
     44 H11        -0.4918    4.3093   17.4155 H         1 EO4         0.0462
     45 H12         0.6647    2.7432   20.4478 H         1 EO4         0.0449
     46 H13         2.8271    3.4571   22.0026 H         1 EO4         0.2191
     47 H14         5.3081    5.2810   25.7986 H         1 EO4         0.0455
     48 H15         4.1953    5.6940   27.1468 H         1 EO4         0.0455
     49 H16         4.9263    7.0000   26.1535 H         1 EO4         0.0455
     50 H17        -1.9863    7.6509   26.1780 H         1 EO4         0.0581
     51 H18        -3.4200    7.4450   25.1156 H         1 EO4         0.0581
     52 H19        -3.1149    9.0236   25.9166 H         1 EO4         0.0581
     53 H20         0.6427    8.8663   22.2115 H         1 EO4         0.0172
     54 H21        -0.7590   10.0922   20.4784 H         1 EO4         0.0555
     55 H22        -2.9809   12.2375   20.9990 H         1 EO4         0.0616
     56 H23        -3.6647    9.2397   19.6623 H         1 EO4         0.0616
@<TRIPOS>BOND
     1    2    1 1  
     2    1    6 2  
     3    1   15 1  
     4    3    2 ar 
     5   18    2 ar 
     6    7    3 ar 
     7    3   26 1  
     8   26    4 1  
     9   24    5 1  
    10    5   27 1  
    11    6   10 1  
    12    6   17 1  
    13    8    7 ar 
    14    8    9 ar 
    15   25    8 1  
    16    9   18 ar 
    17   19    9 1  
    18   16   10 1  
    19   13   11 1  
    20   11   29 2  
    21   12   19 1  
    22   20   12 ar 
    23   12   25 ar 
    24   27   13 1  
    25   13   28 1  
    26   15   14 1  
    27   15   16 2  
    28   21   20 ar 
    29   21   22 1  
    30   23   21 ar 
    31   23   24 ar 
    32   24   25 ar 
    33   27   30 2  
    34   29   30 1  
    35   29   31 1  
    36   31   32 1  
    37   31   33 1  
    38   32   33 2  
    39    4   34 1  
    40    4   35 1  
    41    4   36 1  
    42    5   37 1  
    43    7   38 1  
    44   14   39 1  
    45   14   40 1  
    46   14   41 1  
    47   17   42 1  
    48   17   43 1  
    49   17   44 1  
    50   18   45 1  
    51   19   46 1  
    52   22   47 1  
    53   22   48 1  
    54   22   49 1  
    55   28   50 1  
    56   28   51 1  
    57   28   52 1  
    58   30   53 1  
    59   31   54 1  
    60   32   55 1  
    61   33   56 1  
@<TRIPOS>SUBSTRUCTURE
     1 EO4         1

