### 
### Created by X-TOOL on Wed Jan  1 15:39:34 2020
### 

@<TRIPOS>MOLECULE
6c7w_ligand
   37    39     1     0     0
SMALL
GAST_HUCK


@<TRIPOS>ATOM
      1 N9         -2.7230    6.3490   13.6850 N.pl3     1 LMS        -0.1919
      2 C8         -1.8660    5.7570   12.8100 C.2       1 LMS         0.1123
      3 N7         -0.7820    6.4440   12.5980 N.2       1 LMS        -0.2958
      4 C5         -0.9250    7.5600   13.4110 C.ar      1 LMS         0.1045
      5 C6         -0.1290    8.6680   13.6850 C.ar      1 LMS         0.1298
      6 N6          1.0920    8.8410   13.0810 N.pl3     1 LMS        -0.3152
      7 N1         -0.5370    9.5710   14.5560 N.ar      1 LMS        -0.2698
      8 C2         -1.7240    9.3850   15.1360 C.ar      1 LMS         0.0533
      9 N3         -2.5880    8.3860   14.9790 N.ar      1 LMS        -0.2714
     10 C4         -2.1190    7.5100   14.0890 C.ar      1 LMS         0.1613
     11 N          -5.2670   -0.1970   16.2610 N.am      1 LMS        -0.2415
     12 S          -5.5440    1.2180   16.8770 S.o2      1 LMS         0.1598
     13 O1P        -5.3280    1.2630   18.2760 O.2       1 LMS        -0.1270
     14 O2P        -6.7480    1.7370   16.3490 O.2       1 LMS        -0.1270
     15 O5'        -4.3330    2.1480   16.3910 O.3       1 LMS        -0.2201
     16 C5'        -4.1760    2.3760   14.9810 C.3       1 LMS         0.1069
     17 C4'        -4.7580    3.7160   14.5640 C.3       1 LMS         0.1161
     18 O4'        -3.8630    4.7360   14.9670 O.3       1 LMS        -0.3367
     19 C3'        -4.8530    3.8940   13.0790 C.3       1 LMS         0.1146
     20 O3'        -5.9970    3.2370   12.5050 O.3       1 LMS        -0.3864
     21 C2'        -4.9630    5.3950   12.9640 C.3       1 LMS         0.1385
     22 O2'        -6.3040    5.8180   13.1910 O.3       1 LMS        -0.3836
     23 C1'        -4.0420    5.8540   14.1020 C.3       1 LMS         0.2010
     24 H1         -2.0682    4.7993   12.3326 H         1 LMS         0.1349
     25 H2          1.6625    9.6700   13.3008 H         1 LMS         0.1820
     26 H3          1.4374    8.1418   12.4082 H         1 LMS         0.1820
     27 H4         -2.0271   10.1572   15.8338 H         1 LMS         0.0996
     28 H5         -5.9017   -0.9503   16.4333 H         1 LMS         0.1654
     29 H6         -4.4556   -0.3462   15.6958 H         1 LMS         0.1654
     30 H7         -4.6918    1.5757   14.4301 H         1 LMS         0.0611
     31 H8         -3.1043    2.3596   14.7337 H         1 LMS         0.0611
     32 H9         -5.7473    3.8443   15.0274 H         1 LMS         0.0648
     33 H10        -3.9441    3.5237   12.5822 H         1 LMS         0.0648
     34 H11        -6.0065    3.3827   11.5663 H         1 LMS         0.2100
     35 H12        -4.6151    5.7577   11.9856 H         1 LMS         0.0676
     36 H13        -6.3538    6.7636   13.1147 H         1 LMS         0.2101
     37 H14        -4.5481    6.6638   14.6479 H         1 LMS         0.0996
@<TRIPOS>BOND
     1    1    2 1  
     2    1   10 1  
     3   23    1 1  
     4    2    3 2  
     5    4    3 1  
     6    4    5 ar 
     7   10    4 ar 
     8    5    6 1  
     9    5    7 ar 
    10    8    7 ar 
    11    9    8 ar 
    12   10    9 ar 
    13   12   11 am 
    14   12   13 2  
    15   12   14 2  
    16   15   12 1  
    17   16   15 1  
    18   17   16 1  
    19   18   17 1  
    20   17   19 1  
    21   18   23 1  
    22   19   20 1  
    23   19   21 1  
    24   21   22 1  
    25   21   23 1  
    26    2   24 1  
    27    6   25 1  
    28    6   26 1  
    29    8   27 1  
    30   11   28 1  
    31   11   29 1  
    32   16   30 1  
    33   16   31 1  
    34   17   32 1  
    35   19   33 1  
    36   20   34 1  
    37   21   35 1  
    38   22   36 1  
    39   23   37 1  
@<TRIPOS>SUBSTRUCTURE
     1 LMS         1

