### 
### Created by X-TOOL on Wed Jan  1 15:39:35 2020
### 

@<TRIPOS>MOLECULE
6c7x_ligand
   37    39     1     0     0
SMALL
GAST_HUCK


@<TRIPOS>ATOM
      1 C19        -1.7740    5.4330   12.6740 C.2       1 EO7         0.1111
      2 C22        -0.7110    7.2380   12.9360 C.ar      1 EO7         0.1015
      3 C21        -1.9030    7.3760   13.5970 C.ar      1 EO7         0.1577
      4 C23         0.2190    8.2550   12.9210 C.ar      1 EO7         0.1274
      5 C26        -1.2950    9.3740   14.1630 C.ar      1 EO7         0.1619
      6 C4         -4.8080    3.7940   12.9950 C.3       1 EO7         0.1146
      7 C2         -4.8780    5.3270   12.8520 C.3       1 EO7         0.1385
      8 C7         -4.8430    3.7190   14.4710 C.3       1 EO7         0.1161
      9 C16        -3.9470    5.8100   13.8890 C.3       1 EO7         0.2007
     10 C9         -4.2210    2.4340   14.9440 C.3       1 EO7         0.1069
     11 N20        -0.6450    6.0100   12.3600 N.2       1 EO7        -0.2977
     12 N28        -2.2710    8.4620   14.2480 N.ar      1 EO7        -0.2584
     13 N25        -0.0940    9.3740   13.5840 N.ar      1 EO7        -0.2551
     14 N18        -2.6120    6.2150   13.4100 N.pl3     1 EO7        -0.1932
     15 N24         1.4330    8.0870   12.2500 N.pl3     1 EO7        -0.3157
     16 N13        -5.3550   -0.1940   16.3290 N.am      1 EO7        -0.2415
     17 O12        -5.3180    1.4370   18.2180 O.2       1 EO7        -0.1270
     18 O14        -6.8220    1.8380   16.3340 O.2       1 EO7        -0.1270
     19 O15        -3.9110    4.7580   14.8290 O.3       1 EO7        -0.3367
     20 O6         -5.9140    3.1550   12.4230 O.3       1 EO7        -0.3864
     21 O1         -6.1810    5.8570   13.2330 O.3       1 EO7        -0.3836
     22 O10        -4.4020    2.1430   16.2740 O.3       1 EO7        -0.2201
     23 S11        -5.6260    1.2880   16.8420 S.o2      1 EO7         0.1598
     24 CL         -1.6330   10.8340   14.9600 Cl        1 EO7        -0.0217
     25 H1         -2.0233    4.4163   12.3738 H         1 EO7         0.1340
     26 H2         -3.8808    3.3775   12.5744 H         1 EO7         0.0648
     27 H3         -4.5982    5.6509   11.8387 H         1 EO7         0.0676
     28 H4         -5.8524    3.8649   14.8831 H         1 EO7         0.0648
     29 H5         -4.3901    6.6965   14.3662 H         1 EO7         0.0995
     30 H6         -3.1391    2.4913   14.7541 H         1 EO7         0.0611
     31 H7         -4.6536    1.6115   14.3554 H         1 EO7         0.0611
     32 H8          2.1260    8.8490   12.2406 H         1 EO7         0.1820
     33 H9          1.6349    7.2012   11.7647 H         1 EO7         0.1820
     34 H10        -5.9944   -0.9276   16.5592 H         1 EO7         0.1654
     35 H11        -4.5453   -0.3916   15.7764 H         1 EO7         0.1654
     36 H12        -5.8619    3.2208   11.4767 H         1 EO7         0.2100
     37 H13        -6.8321    5.5795   12.5993 H         1 EO7         0.2101
@<TRIPOS>BOND
     1    1   11 2  
     2   14    1 1  
     3    3    2 ar 
     4    2    4 ar 
     5    2   11 1  
     6    3   12 ar 
     7   14    3 1  
     8    4   13 ar 
     9    4   15 1  
    10   12    5 ar 
    11    5   13 ar 
    12    5   24 1  
    13    6    7 1  
    14    8    6 1  
    15    6   20 1  
    16    9    7 1  
    17    7   21 1  
    18   10    8 1  
    19    8   19 1  
    20    9   14 1  
    21   19    9 1  
    22   22   10 1  
    23   23   16 am 
    24   23   17 2  
    25   23   18 2  
    26   22   23 1  
    27    1   25 1  
    28    6   26 1  
    29    7   27 1  
    30    8   28 1  
    31    9   29 1  
    32   10   30 1  
    33   10   31 1  
    34   15   32 1  
    35   15   33 1  
    36   16   34 1  
    37   16   35 1  
    38   20   36 1  
    39   21   37 1  
@<TRIPOS>SUBSTRUCTURE
     1 EO7         1

