### 
### Created by X-TOOL on Mon Aug  2 16:12:45 2021
### 

@<TRIPOS>MOLECULE
6c8c_ligand
   46    48     1     0     0
SMALL
GAST_HUCK


@<TRIPOS>ATOM
      1 C10         0.4860  -15.3080  -10.3860 C.2       1 EQ7         0.2744
      2 C13        -1.0500  -15.7690   -8.4630 C.3       1 EQ7        -0.0293
      3 C15        -0.0500  -15.1960   -7.4570 C.3       1 EQ7        -0.0606
      4 C20         4.7140  -15.8440  -11.2400 C.ar      1 EQ7         0.1516
      5 C21         5.4890  -16.9740  -11.4390 C.ar      1 EQ7        -0.0009
      6 C22         6.8270  -16.8700  -11.8000 C.ar      1 EQ7        -0.0306
      7 C26         5.2680  -14.6010  -11.4820 C.ar      1 EQ7         0.1022
      8 C02         2.6100  -20.4540  -12.2690 C.ar      1 EQ7         0.1027
      9 C03         1.8360  -21.5880  -12.4950 C.ar      1 EQ7        -0.0265
     10 C04         0.4450  -21.4830  -12.2700 C.ar      1 EQ7        -0.0170
     11 C05        -0.1580  -20.2950  -11.8260 C.ar      1 EQ7         0.1128
     12 C06         0.6270  -19.1440  -11.5960 C.ar      1 EQ7         0.1479
     13 C07         0.0370  -17.8200  -11.1170 C.2       1 EQ7         0.3251
     14 C09         0.9460  -16.6720  -10.9020 C.2       1 EQ7         0.3347
     15 C12        -0.9090  -15.0750   -9.8190 C.3       1 EQ7         0.0529
     16 C14        -2.4690  -15.5440   -7.9460 C.3       1 EQ7        -0.0606
     17 C16         2.3940  -16.8710  -11.1470 C.2       1 EQ7         0.4066
     18 C18         2.0060  -19.2840  -11.8250 C.ar      1 EQ7         0.1651
     19 C23         7.3530  -15.6040  -11.9920 C.ar      1 EQ7         0.0565
     20 C25         6.5900  -14.4810  -11.8400 C.ar      1 EQ7        -0.0161
     21 N17         2.9170  -18.1250  -11.5970 N.pl3     1 EQ7        -0.1457
     22 N19         3.3050  -15.7790  -10.9300 N.pl3     1 EQ7        -0.1432
     23 N28        -1.5920  -20.2970  -11.6190 N.2       1 EQ7        -0.2103
     24 O08        -1.1270  -17.7140  -10.9310 O.2       1 EQ7        -0.2550
     25 O11         1.2510  -14.4020  -10.3470 O.2       1 EQ7        -0.2914
     26 O29        -2.0310  -20.7680  -10.6410 O.2       1 EQ7        -0.4864
     27 O30        -2.3060  -19.8430  -12.4390 O.2       1 EQ7        -0.4864
     28 CL01        4.3580  -20.4800  -12.5500 Cl        1 EQ7        -0.0550
     29 CL24        9.0410  -15.3790  -12.4700 Cl        1 EQ7        -0.0554
     30 CL27        4.2920  -13.1470  -11.2960 Cl        1 EQ7        -0.0563
     31 H1         -0.8664  -16.8468   -8.5835 H         1 EQ7         0.0320
     32 H2         -0.1680  -15.7079   -6.4906 H         1 EQ7         0.0234
     33 H3         -0.2365  -14.1198   -7.3270 H         1 EQ7         0.0234
     34 H4          0.9735  -15.3484   -7.8300 H         1 EQ7         0.0234
     35 H5          5.0453  -17.9548  -11.3113 H         1 EQ7         0.0715
     36 H6          7.4408  -17.7544  -11.9275 H         1 EQ7         0.0674
     37 H7          2.2831  -22.5166  -12.8309 H         1 EQ7         0.0685
     38 H8         -0.1795  -22.3512  -12.4466 H         1 EQ7         0.0746
     39 H9         -1.6570  -15.4822  -10.5152 H         1 EQ7         0.0510
     40 H10        -1.0746  -13.9948   -9.6934 H         1 EQ7         0.0510
     41 H11        -2.5863  -16.0378   -6.9701 H         1 EQ7         0.0234
     42 H12        -3.1908  -15.9671   -8.6601 H         1 EQ7         0.0234
     43 H13        -2.6522  -14.4650   -7.8353 H         1 EQ7         0.0234
     44 H14         7.0244  -13.5009  -12.0007 H         1 EQ7         0.0673
     45 H15         3.9281  -18.2277  -11.7644 H         1 EQ7         0.2817
     46 H16         2.9327  -14.9047  -10.5326 H         1 EQ7         0.2890
@<TRIPOS>BOND
     1   14    1 1  
     2    1   15 1  
     3    1   25 2  
     4    2    3 1  
     5   15    2 1  
     6    2   16 1  
     7    4    5 ar 
     8    4    7 ar 
     9   22    4 1  
    10    5    6 ar 
    11    6   19 ar 
    12    7   20 ar 
    13    7   30 1  
    14    8    9 ar 
    15   18    8 ar 
    16    8   28 1  
    17   10    9 ar 
    18   11   10 ar 
    19   12   11 ar 
    20   11   23 1  
    21   13   12 1  
    22   12   18 ar 
    23   14   13 1  
    24   13   24 2  
    25   17   14 2  
    26   17   21 1  
    27   17   22 1  
    28   18   21 1  
    29   19   20 ar 
    30   19   29 1  
    31   23   26 2  
    32   23   27 2  
    33    2   31 1  
    34    3   32 1  
    35    3   33 1  
    36    3   34 1  
    37    5   35 1  
    38    6   36 1  
    39    9   37 1  
    40   10   38 1  
    41   15   39 1  
    42   15   40 1  
    43   16   41 1  
    44   16   42 1  
    45   16   43 1  
    46   20   44 1  
    47   21   45 1  
    48   22   46 1  
@<TRIPOS>SUBSTRUCTURE
     1 EQ7         1

