### 
### Created by X-TOOL on Wed Jan  1 15:39:36 2020
### 

@<TRIPOS>MOLECULE
6c8p_ligand
   21    21     1     0     0
SMALL
GAST_HUCK


@<TRIPOS>ATOM
      1 C10        34.7430   76.2630   63.3030 C.ar      1 EQA        -0.0458
      2 C13        32.3570   75.9370   61.8530 C.ar      1 EQA        -0.0220
      3 C02        38.0330   80.1530   63.9290 C.2       1 EQA         0.1143
      4 C04        36.8670   80.2350   62.9420 C.2       1 EQA         0.1586
      5 C06        35.6530   79.3430   63.1540 C.2       1 EQA         0.0130
      6 C07        35.1950   78.5130   62.2020 C.2       1 EQA         0.1119
      7 C09        34.3520   77.2790   62.4210 C.ar      1 EQA         0.0611
      8 C11        33.9530   75.1140   63.4680 C.ar      1 EQA        -0.0603
      9 C12        32.7690   74.9490   62.7460 C.ar      1 EQA        -0.0593
     10 C14        33.1530   77.0960   61.6910 C.ar      1 EQA         0.1520
     11 F15        32.7480   78.0080   60.8470 F         1 EQA        -0.1765
     12 O01        39.1180   80.2080   63.3490 O.co2     1 EQA        -0.5483
     13 O03        37.7830   80.0150   65.1710 O.co2     1 EQA        -0.5483
     14 O05        36.9170   80.9510   61.9440 O.2       1 EQA        -0.3763
     15 O08        35.6100   78.6490   60.8810 O.3       1 EQA        -0.3196
     16 H1         35.6650   76.3651   63.8638 H         1 EQA         0.0655
     17 H2         31.4384   75.8191   61.2897 H         1 EQA         0.0615
     18 H3         35.1365   79.3785   64.1121 H         1 EQA         0.0371
     19 H4         34.2662   74.3450   64.1649 H         1 EQA         0.0596
     20 H5         32.1715   74.0544   62.8797 H         1 EQA         0.0643
     21 H6         36.1289   77.8926   60.6338 H         1 EQA         0.2575
@<TRIPOS>BOND
     1    7    1 ar 
     2    1    8 ar 
     3    2    9 ar 
     4   10    2 ar 
     5    4    3 1  
     6    3   12 ar 
     7    3   13 ar 
     8    5    4 1  
     9    4   14 2  
    10    6    5 2  
    11    7    6 1  
    12    6   15 1  
    13    7   10 ar 
    14    8    9 ar 
    15   10   11 1  
    16    1   16 1  
    17    2   17 1  
    18    5   18 1  
    19    8   19 1  
    20    9   20 1  
    21   15   21 1  
@<TRIPOS>SUBSTRUCTURE
     1 EQA         1

