### 
### Created by X-TOOL on Wed Jan  1 15:39:37 2020
### 

@<TRIPOS>MOLECULE
6c91_ligand
   40    42     1     0     0
SMALL
GAST_HUCK


@<TRIPOS>ATOM
      1 CAB        18.5960   -9.3440   19.3810 C.ar      1 EQD         0.0572
      2 CAC        19.7910   -8.9680   20.0100 C.ar      1 EQD        -0.0295
      3 CAD        20.3560   -9.8250   20.9930 C.3       1 EQD        -0.0071
      4 CAE        20.0450   -9.4390   22.4260 C.3       1 EQD         0.0331
      5 CAF        21.0460  -10.0800   23.4190 C.2       1 EQD         0.1179
      6 CAH        22.6280  -10.2430   24.8470 C.2       1 EQD        -0.0364
      7 CAI        22.1230  -11.4720   24.6680 C.2       1 EQD         0.0301
      8 CAK        20.3470  -12.5320   23.3390 C.3       1 EQD         0.0909
      9 CAL        20.9200  -13.3280   22.3500 C.ar      1 EQD        -0.0128
     10 CAM        22.2900  -13.4950   22.2320 C.ar      1 EQD        -0.0577
     11 CAN        22.7900  -14.3200   21.2230 C.ar      1 EQD        -0.0685
     12 CAO        21.9460  -14.9880   20.3400 C.ar      1 EQD        -0.0687
     13 CAP        20.5760  -14.8210   20.4610 C.ar      1 EQD        -0.0685
     14 CAQ        20.0790  -14.0000   21.4650 C.ar      1 EQD        -0.0577
     15 CAR        20.4180   -7.7750   19.5970 C.ar      1 EQD         0.0572
     16 CAT        19.8300   -7.0050   18.6070 C.ar      1 EQD         0.0874
     17 CAV        18.6450   -7.3650   18.0070 C.ar      1 EQD        -0.0110
     18 CAW        18.0460   -8.5410   18.3970 C.ar      1 EQD         0.0874
     19 NAG        21.9620   -9.3690   24.0850 N.2       1 EQD        -0.3387
     20 NAJ        21.1470  -11.3790   23.7650 N.pl3     1 EQD        -0.2388
     21 OAU        20.4750   -5.8630   18.2720 O.3       1 EQD        -0.3363
     22 OAX        16.8820   -8.9570   17.8440 O.3       1 EQD        -0.3363
     23 CLB        17.7710  -10.8030   19.8220 Cl        1 EQD        -0.0952
     24 CLR        21.9380   -7.1790   20.3020 Cl        1 EQD        -0.0952
     25 H1         21.4486   -9.8182   20.8660 H         1 EQD         0.0454
     26 H2         19.9732  -10.8419   20.8216 H         1 EQD         0.0454
     27 H3         19.0287   -9.7784   22.6746 H         1 EQD         0.0520
     28 H4         20.0995   -8.3445   22.5208 H         1 EQD         0.0520
     29 H5         23.4543   -9.9945   25.5114 H         1 EQD         0.0408
     30 H6         22.4508  -12.3814   25.1695 H         1 EQD         0.0797
     31 H7         20.1677  -13.1643   24.2211 H         1 EQD         0.0782
     32 H8         19.3869  -12.1553   22.9566 H         1 EQD         0.0782
     33 H9         22.9652  -12.9915   22.9144 H         1 EQD         0.0558
     34 H10        23.8624  -14.4436   21.1245 H         1 EQD         0.0599
     35 H11        22.3552  -15.6300   19.5683 H         1 EQD         0.0559
     36 H12        19.8999  -15.3252   19.7800 H         1 EQD         0.0599
     37 H13        19.0063  -13.8785   21.5630 H         1 EQD         0.0558
     38 H14        18.1946   -6.7379   17.2461 H         1 EQD         0.0410
     39 H15        20.6976   -5.8855   17.3487 H         1 EQD         0.2484
     40 H16        16.6239   -9.7830   18.2359 H         1 EQD         0.2484
@<TRIPOS>BOND
     1    2    1 ar 
     2    1   18 ar 
     3    1   23 1  
     4    3    2 1  
     5    2   15 ar 
     6    4    3 1  
     7    5    4 1  
     8    5   19 2  
     9   20    5 1  
    10    7    6 2  
    11    6   19 1  
    12   20    7 1  
    13    8    9 1  
    14    8   20 1  
    15    9   10 ar 
    16    9   14 ar 
    17   10   11 ar 
    18   11   12 ar 
    19   12   13 ar 
    20   13   14 ar 
    21   15   16 ar 
    22   15   24 1  
    23   16   17 ar 
    24   16   21 1  
    25   17   18 ar 
    26   18   22 1  
    27    3   25 1  
    28    3   26 1  
    29    4   27 1  
    30    4   28 1  
    31    6   29 1  
    32    7   30 1  
    33    8   31 1  
    34    8   32 1  
    35   10   33 1  
    36   11   34 1  
    37   12   35 1  
    38   13   36 1  
    39   14   37 1  
    40   17   38 1  
    41   21   39 1  
    42   22   40 1  
@<TRIPOS>SUBSTRUCTURE
     1 EQD         1

