### 
### Created by X-TOOL on Wed Jan  1 15:39:35 2020
### 

@<TRIPOS>MOLECULE
6c98_ligand
   33    35     1     0     0
SMALL
GAST_HUCK


@<TRIPOS>ATOM
      1 N1         20.4730   12.0650   22.9950 N.2       1 ER7        -0.2927
      2 C2         16.6490   12.6270   18.9040 C.ar      1 ER7        -0.0703
      3 N2         19.8210   10.4780   21.6350 N.2       1 ER7        -0.1981
      4 N3         18.7020   11.0110   22.2860 N.pl3     1 ER7        -0.1543
      5 C4         16.9350   10.9980   20.6990 C.ar      1 ER7        -0.0045
      6 C6         16.3650   11.4410   22.9920 C.3       1 ER7         0.1421
      7 C7         14.8950   11.0710   22.8660 C.2       1 ER7         0.1332
      8 C9         16.9430   12.5110   23.8820 C.2       1 ER7         0.0613
      9 N          18.2780   12.7090   23.8800 N.2       1 ER7        -0.2578
     10 C          16.2690   10.2920   18.4620 C.ar      1 ER7         0.1260
     11 O          14.6500   10.0300   22.2750 O.2       1 ER7        -0.3856
     12 C1         16.3020   11.6080   18.0180 C.ar      1 ER7        -0.0352
     13 C10        16.1070   13.3820   24.7990 C.3       1 ER7         0.0092
     14 C11        19.1280   11.9910   23.1080 C.2       1 ER7         0.1963
     15 C12        20.8990   11.1440   22.0990 C.2       1 ER7         0.0501
     16 C13        16.5860    9.9790   19.7980 C.ar      1 ER7        -0.0236
     17 C3         16.9650   12.3240   20.2410 C.ar      1 ER7        -0.0610
     18 C5         17.2930   10.7000   22.1540 C.3       1 ER7         0.1533
     19 C8         13.7790   11.9100   23.4300 C.3       1 ER7         0.0136
     20 F          15.9370    9.3170   17.6060 F         1 ER7        -0.1853
     21 H1         16.6754   13.6553   18.5619 H         1 ER7         0.0589
     22 H2         16.4732   10.7133   23.8097 H         1 ER7         0.0888
     23 H3         16.0591   11.8414   16.9877 H         1 ER7         0.0546
     24 H4         16.7627   14.0808   25.3392 H         1 ER7         0.0540
     25 H5         15.5732   12.7472   25.5215 H         1 ER7         0.0540
     26 H6         15.3787   13.9501   24.2017 H         1 ER7         0.0540
     27 H7         21.9328   10.9706   21.8038 H         1 ER7         0.0841
     28 H8         16.5605    8.9480   20.1319 H         1 ER7         0.0543
     29 H9         17.2341   13.1221   20.9235 H         1 ER7         0.0524
     30 H10        17.1572    9.6293   22.3663 H         1 ER7         0.0899
     31 H11        12.8132   11.4321   23.2089 H         1 ER7         0.0461
     32 H12        13.8059   12.9106   22.9738 H         1 ER7         0.0461
     33 H13        13.9025   12.0002   24.5193 H         1 ER7         0.0461
@<TRIPOS>BOND
     1   14    1 2  
     2    1   15 1  
     3    2   12 ar 
     4   17    2 ar 
     5    4    3 1  
     6    3   15 2  
     7    4   14 1  
     8   18    4 1  
     9    5   16 ar 
    10    5   17 ar 
    11   18    5 1  
    12    6    7 1  
    13    6    8 1  
    14    6   18 1  
    15    7   11 2  
    16    7   19 1  
    17    8    9 2  
    18    8   13 1  
    19    9   14 1  
    20   12   10 ar 
    21   10   16 ar 
    22   10   20 1  
    23    2   21 1  
    24    6   22 1  
    25   12   23 1  
    26   13   24 1  
    27   13   25 1  
    28   13   26 1  
    29   15   27 1  
    30   16   28 1  
    31   17   29 1  
    32   18   30 1  
    33   19   31 1  
    34   19   32 1  
    35   19   33 1  
@<TRIPOS>SUBSTRUCTURE
     1 ER7         1

