### 
### Created by X-TOOL on Wed Jan  1 15:39:36 2020
### 

@<TRIPOS>MOLECULE
6c99_ligand
   40    43     1     0     0
SMALL
GAST_HUCK


@<TRIPOS>ATOM
      1 C10        -8.1550  -11.8330  161.7760 C.2       1 EQY         0.0407
      2 C13        -4.5370  -11.6120  161.7020 C.3       1 EQY         0.1492
      3 C23        -3.5980  -13.7000  165.7910 C.ar      1 EQY        -0.0331
      4 C27        -3.0610  -15.4840  164.2380 C.ar      1 EQY         0.0209
      5 C25        -2.4110  -15.6740  166.4530 C.ar      1 EQY         0.0101
      6 C24        -2.9680  -14.4450  166.7740 C.ar      1 EQY        -0.0345
      7 C01        -0.0780  -12.6950  163.3410 C.3       1 EQY         0.0635
      8 C03        -2.3480  -12.1800  162.7170 C.2       1 EQY         0.2450
      9 C05        -3.7430  -12.4420  162.6880 C.2       1 EQY         0.1008
     10 C06        -4.3140  -13.4640  163.4080 C.2       1 EQY         0.1000
     11 C08        -6.4960  -12.7890  162.7270 C.2       1 EQY         0.2609
     12 C14        -4.1910  -11.9810  160.2550 C.ar      1 EQY        -0.0050
     13 C15        -4.2700  -13.2980  159.8280 C.ar      1 EQY        -0.0267
     14 C16        -3.9690  -13.6220  158.5010 C.ar      1 EQY         0.1244
     15 C18        -3.5910  -12.6340  157.6140 C.ar      1 EQY        -0.0019
     16 C19        -3.5130  -11.3280  158.0340 C.ar      1 EQY         0.1244
     17 C21        -3.8110  -11.0030  159.3570 C.ar      1 EQY        -0.0267
     18 C22        -3.6310  -14.2230  164.4770 C.ar      1 EQY         0.0356
     19 F17        -4.0330  -14.8960  158.0510 F         1 EQY        -0.1863
     20 F20        -3.1370  -10.3750  157.1570 F         1 EQY        -0.1863
     21 N07        -5.6890  -13.5870  163.5020 N.pl3     1 EQY        -0.2240
     22 N09        -7.7990  -12.7690  162.6510 N.2       1 EQY        -0.2849
     23 N11        -7.0740  -11.2770  161.2770 N.2       1 EQY        -0.2047
     24 N12        -5.9750  -11.8570  161.8910 N.pl3     1 EQY        -0.1376
     25 N26        -2.4720  -16.1570  165.2150 N.ar      1 EQY        -0.2967
     26 O02        -1.4750  -13.0250  163.2940 O.3       1 EQY        -0.2864
     27 O04        -1.9320  -11.1670  162.1780 O.2       1 EQY        -0.3749
     28 H1         -9.1788  -11.5694  161.5147 H         1 EQY         0.0812
     29 H2         -4.3161  -10.5477  161.8707 H         1 EQY         0.0945
     30 H3         -4.0528  -12.7435  166.0219 H         1 EQY         0.0739
     31 H4         -3.1035  -15.9114  163.2427 H         1 EQY         0.0832
     32 H5         -1.9166  -16.2519  167.2255 H         1 EQY         0.0813
     33 H6         -2.9105  -14.0694  167.7892 H         1 EQY         0.0705
     34 H7          0.4724  -13.5016  163.8474 H         1 EQY         0.0573
     35 H8          0.0582  -11.7544  163.8948 H         1 EQY         0.0573
     36 H9          0.3054  -12.5764  162.3168 H         1 EQY         0.0573
     37 H10        -4.5650  -14.0763  160.5225 H         1 EQY         0.0512
     38 H11        -3.3559  -12.8883  156.5868 H         1 EQY         0.0533
     39 H12        -3.7437   -9.9717  159.6840 H         1 EQY         0.0512
     40 H13        -6.1051  -14.2723  164.1487 H         1 EQY         0.2217
@<TRIPOS>BOND
     1   22    1 1  
     2    1   23 2  
     3    9    2 1  
     4    2   12 1  
     5    2   24 1  
     6    3    6 ar 
     7   18    3 ar 
     8   18    4 ar 
     9    4   25 ar 
    10    6    5 ar 
    11   25    5 ar 
    12   26    7 1  
    13    9    8 1  
    14    8   26 1  
    15    8   27 2  
    16   10    9 2  
    17   10   18 1  
    18   21   10 1  
    19   11   21 1  
    20   11   22 2  
    21   11   24 1  
    22   12   13 ar 
    23   12   17 ar 
    24   13   14 ar 
    25   14   15 ar 
    26   14   19 1  
    27   15   16 ar 
    28   16   17 ar 
    29   16   20 1  
    30   23   24 1  
    31    1   28 1  
    32    2   29 1  
    33    3   30 1  
    34    4   31 1  
    35    5   32 1  
    36    6   33 1  
    37    7   34 1  
    38    7   35 1  
    39    7   36 1  
    40   13   37 1  
    41   15   38 1  
    42   17   39 1  
    43   21   40 1  
@<TRIPOS>SUBSTRUCTURE
     1 EQY         1

