### 
### Created by X-TOOL on Mon Aug  2 16:10:38 2021
### 

@<TRIPOS>MOLECULE
6c9n_ligand
   37    39     1     0     0
SMALL
GAST_HUCK


@<TRIPOS>ATOM
      1 N1          5.0820    0.3010    6.7620 N.ar      1 SGV        -0.2725
      2 C2          5.9140   -0.3450    7.5870 C.ar      1 SGV         0.0509
      3 N3          6.9410    0.2540    8.1870 N.ar      1 SGV        -0.2753
      4 C4          7.1790    1.5850    7.9080 C.ar      1 SGV         0.1457
      5 C5          6.3590    2.2760    7.0470 C.ar      1 SGV         0.0626
      6 C6          5.2910    1.5680    6.4440 C.ar      1 SGV         0.1181
      7 N6          4.4140    2.2280    5.5120 N.pl3     1 SGV        -0.3158
      8 C7          6.8670    3.5810    7.0140 C.2       1 SGV         0.0597
      9 C8          7.9670    3.6510    7.8350 C.2       1 SGV         0.0581
     10 N9          8.1720    2.4510    8.3510 N.pl3     1 SGV        -0.2133
     11 C1'         9.1500    2.1060    9.3910 C.3       1 SGV         0.1986
     12 C10         6.3240    4.7810    6.2640 C.2       1 SGV         0.1783
     13 N11         6.6650    6.0560    6.8620 N.am      1 SGV        -0.3053
     14 O12         5.5920    4.7170    5.3470 O.2       1 SGV        -0.4013
     15 C2'        10.5850    2.5870    9.1910 C.3       1 SGV         0.1386
     16 O2'        11.3860    1.5270    8.7430 O.3       1 SGV        -0.3836
     17 C3'        10.9920    3.1400   10.6030 C.3       1 SGV         0.1146
     18 O3'        12.1040    2.4130   11.1470 O.3       1 SGV        -0.3864
     19 C4'         9.7800    2.8890   11.4820 C.3       1 SGV         0.1136
     20 O4'         8.6830    2.7450   10.5710 O.3       1 SGV        -0.3368
     21 C5'         9.4870    4.0010   12.4810 C.3       1 SGV         0.0730
     22 O5'         8.3380    3.7020   13.2540 O.3       1 SGV        -0.3924
     23 H1          5.7452   -1.3992    7.7747 H         1 SGV         0.0979
     24 H2          4.5752    3.2144    5.2632 H         1 SGV         0.1823
     25 H3          3.6255    1.7137    5.0941 H         1 SGV         0.1823
     26 H4          8.5656    4.5402    8.0271 H         1 SGV         0.1055
     27 H5          9.1621    1.0129    9.5136 H         1 SGV         0.0998
     28 H6          6.3517    6.9063    6.4392 H         1 SGV         0.1797
     29 H7          7.2136    6.0856    7.6975 H         1 SGV         0.1797
     30 H8         10.6238    3.3964    8.4472 H         1 SGV         0.0676
     31 H9         12.2767    1.8342    8.6210 H         1 SGV         0.2101
     32 H10        11.2323    4.2120   10.5479 H         1 SGV         0.0648
     33 H11        12.8495    2.4938   10.5637 H         1 SGV         0.2100
     34 H12         9.9288    1.9546   12.0430 H         1 SGV         0.0647
     35 H13         9.3175    4.9401   11.9339 H         1 SGV         0.0584
     36 H14        10.3508    4.1182   13.1519 H         1 SGV         0.0584
     37 H15         8.4807    2.8933   13.7317 H         1 SGV         0.2095
@<TRIPOS>BOND
     1    1    2 ar 
     2    1    6 ar 
     3    2    3 ar 
     4    3    4 ar 
     5    4    5 ar 
     6    4   10 1  
     7    5    6 ar 
     8    5    8 1  
     9    6    7 1  
    10    8    9 2  
    11    8   12 1  
    12    9   10 1  
    13   10   11 1  
    14   11   15 1  
    15   11   20 1  
    16   12   13 am 
    17   12   14 2  
    18   15   16 1  
    19   15   17 1  
    20   17   18 1  
    21   17   19 1  
    22   19   20 1  
    23   19   21 1  
    24   21   22 1  
    25    2   23 1  
    26    7   24 1  
    27    7   25 1  
    28    9   26 1  
    29   11   27 1  
    30   13   28 1  
    31   13   29 1  
    32   15   30 1  
    33   16   31 1  
    34   17   32 1  
    35   18   33 1  
    36   19   34 1  
    37   21   35 1  
    38   21   36 1  
    39   22   37 1  
@<TRIPOS>SUBSTRUCTURE
     1 SGV         1

