### 
### Created by X-TOOL on Mon Aug  2 16:10:39 2021
### 

@<TRIPOS>MOLECULE
6c9p_ligand
   34    36     1     0     0
SMALL
GAST_HUCK


@<TRIPOS>ATOM
      1 O5'        17.7670   20.0280   -4.5290 O.3       1 MTP        -0.3924
      2 C5'        16.5960   19.7010   -5.2710 C.3       1 MTP         0.0730
      3 C4'        16.2260   20.8090   -6.2290 C.3       1 MTP         0.1135
      4 O4'        17.3150   21.0320   -7.1420 O.3       1 MTP        -0.3368
      5 C1'        16.8160   21.5380   -8.3570 C.3       1 MTP         0.2015
      6 N9         17.7230   21.1050   -9.4220 N.pl3     1 MTP        -0.1883
      7 C8         17.7500   19.8890   -9.9800 C.2       1 MTP         0.1151
      8 N7         18.7300   19.8650  -10.9050 N.2       1 MTP        -0.2924
      9 C5         19.3390   21.0900  -10.9250 C.ar      1 MTP         0.0987
     10 C6         20.4130   21.6810  -11.6660 C.ar      1 MTP         0.1066
     11 S6         21.3000   20.7080  -12.9290 S.3       1 MTP        -0.0765
     12 CS         22.3220   21.8500  -13.9210 C.3       1 MTP         0.0001
     13 N1         20.7680   22.9410  -11.4320 N.ar      1 MTP        -0.2708
     14 C2         20.1330   23.6640  -10.5140 C.ar      1 MTP         0.0629
     15 N3         19.1320   23.1480   -9.8100 N.ar      1 MTP        -0.2607
     16 C4         18.7070   21.8600   -9.9900 C.ar      1 MTP         0.1692
     17 C2'        15.3780   21.0190   -8.5050 C.3       1 MTP         0.1386
     18 O2'        14.5250   22.0060   -9.0430 O.3       1 MTP        -0.3836
     19 C3'        14.9870   20.5570   -7.0860 C.3       1 MTP         0.1146
     20 O3'        13.9070   21.3560   -6.6030 O.3       1 MTP        -0.3864
     21 H1         17.6128   20.8212   -4.0295 H         1 MTP         0.2095
     22 H2         15.7624   19.5386   -4.5719 H         1 MTP         0.0584
     23 H3         16.7798   18.7795   -5.8428 H         1 MTP         0.0584
     24 H4         16.0531   21.7187   -5.6353 H         1 MTP         0.0647
     25 H5         16.7972   22.6376   -8.3325 H         1 MTP         0.0996
     26 H6         17.0913   19.0589   -9.7291 H         1 MTP         0.1373
     27 H7         22.8659   21.2815  -14.6897 H         1 MTP         0.0373
     28 H8         23.0419   22.3615  -13.2652 H         1 MTP         0.0373
     29 H9         21.6740   22.5950  -14.4058 H         1 MTP         0.0373
     30 H10        20.4369   24.6895  -10.3378 H         1 MTP         0.1019
     31 H11        15.3633   20.1539   -9.1842 H         1 MTP         0.0676
     32 H12        13.6459   21.6546   -9.1216 H         1 MTP         0.2101
     33 H13        14.7077   19.4931   -7.0780 H         1 MTP         0.0648
     34 H14        13.1607   21.2617   -7.1832 H         1 MTP         0.2100
@<TRIPOS>BOND
     1    1    2 1  
     2    2    3 1  
     3    3    4 1  
     4    3   19 1  
     5    4    5 1  
     6    5    6 1  
     7    5   17 1  
     8    6    7 1  
     9    6   16 1  
    10    7    8 2  
    11    8    9 1  
    12    9   10 ar 
    13    9   16 ar 
    14   10   11 1  
    15   10   13 ar 
    16   11   12 1  
    17   13   14 ar 
    18   14   15 ar 
    19   15   16 ar 
    20   17   18 1  
    21   17   19 1  
    22   19   20 1  
    23    1   21 1  
    24    2   22 1  
    25    2   23 1  
    26    3   24 1  
    27    5   25 1  
    28    7   26 1  
    29   12   27 1  
    30   12   28 1  
    31   12   29 1  
    32   14   30 1  
    33   17   31 1  
    34   18   32 1  
    35   19   33 1  
    36   20   34 1  
@<TRIPOS>SUBSTRUCTURE
     1 MTP         1

