### 
### Created by X-TOOL on Mon Aug  2 16:12:46 2021
### 

@<TRIPOS>MOLECULE
6c9q_ligand
   34    36     1     0     0
SMALL
GAST_HUCK


@<TRIPOS>ATOM
      1 O2'       -15.9480   20.7010    6.7130 O.3       1 MOL        -0.3836
      2 C2'       -14.9270   19.7470    6.6440 C.3       1 MOL         0.1386
      3 C3'       -13.9030   20.0310    5.6220 C.3       1 MOL         0.1174
      4 O3'       -14.1880   21.2390    4.8870 O.3       1 MOL        -0.3863
      5 C4'       -13.9160   18.8140    4.6760 C.3       1 MOL         0.1299
      6 C5'       -12.5200   18.3360    4.2540 C.3       1 MOL        -0.0058
      7 N5'       -12.6070   17.0920    3.4760 N.4       1 MOL         0.2204
      8 O4'       -14.5400   17.7680    5.4170 O.3       1 MOL        -0.3338
      9 C1'       -15.5420   18.3950    6.2570 C.3       1 MOL         0.2011
     10 N9        -15.7420   17.3740    7.2630 N.pl3     1 MOL        -0.1919
     11 C8        -14.8210   17.0080    8.1460 C.2       1 MOL         0.1123
     12 N7        -15.3380   16.0690    8.9720 N.2       1 MOL        -0.2958
     13 C5        -16.6350   15.8450    8.5770 C.ar      1 MOL         0.1045
     14 C4        -16.9050   16.6590    7.5170 C.ar      1 MOL         0.1613
     15 N3        -18.1470   16.6230    6.9200 N.ar      1 MOL        -0.2714
     16 C2        -19.0610   15.7890    7.4000 C.ar      1 MOL         0.0533
     17 N1        -18.8670   14.9840    8.4150 N.ar      1 MOL        -0.2698
     18 C6        -17.6790   14.9560    9.0280 C.ar      1 MOL         0.1298
     19 N6        -17.4690   14.0730   10.1110 N.pl3     1 MOL        -0.3152
     20 H1        -15.5738   21.5492    6.9205 H         1 MOL         0.2101
     21 H2        -14.4438   19.6780    7.6298 H         1 MOL         0.0676
     22 H3        -12.9171   20.1297    6.0998 H         1 MOL         0.0649
     23 H4        -14.2182   21.9743    5.4878 H         1 MOL         0.2100
     24 H5        -14.4993   19.0545    3.7750 H         1 MOL         0.0678
     25 H6        -11.9129   18.1569    5.1537 H         1 MOL         0.0840
     26 H7        -12.0434   19.1134    3.6388 H         1 MOL         0.0840
     27 H8        -11.6807   16.7967    3.2098 H         1 MOL         0.1995
     28 H9        -13.1597   17.2513    2.6482 H         1 MOL         0.1995
     29 H10       -13.0402   16.3748    4.0364 H         1 MOL         0.1995
     30 H11       -16.4886   18.5754    5.7266 H         1 MOL         0.0996
     31 H12       -13.8071   17.4021    8.1977 H         1 MOL         0.1349
     32 H13       -20.0329   15.7729    6.9201 H         1 MOL         0.0996
     33 H14       -18.2261   13.4460   10.4185 H         1 MOL         0.1820
     34 H15       -16.5588   14.0564   10.5929 H         1 MOL         0.1820
@<TRIPOS>BOND
     1    1    2 1  
     2    2    3 1  
     3    2    9 1  
     4    3    4 1  
     5    3    5 1  
     6    5    6 1  
     7    5    8 1  
     8    6    7 1  
     9    8    9 1  
    10    9   10 1  
    11   10   11 1  
    12   10   14 1  
    13   11   12 2  
    14   12   13 1  
    15   13   14 ar 
    16   13   18 ar 
    17   14   15 ar 
    18   15   16 ar 
    19   16   17 ar 
    20   17   18 ar 
    21   18   19 1  
    22    1   20 1  
    23    2   21 1  
    24    3   22 1  
    25    4   23 1  
    26    5   24 1  
    27    6   25 1  
    28    6   26 1  
    29    7   27 1  
    30    7   28 1  
    31    7   29 1  
    32    9   30 1  
    33   11   31 1  
    34   16   32 1  
    35   19   33 1  
    36   19   34 1  
@<TRIPOS>SUBSTRUCTURE
     1 MOL         1

