### 
### Created by X-TOOL on Mon Aug  2 16:10:39 2021
### 

@<TRIPOS>MOLECULE
6c9r_ligand
   37    40     1     0     0
SMALL
GAST_HUCK


@<TRIPOS>ATOM
      1 N1        -11.6360   15.6280   17.9500 N.ar      1 ERJ        -0.2856
      2 N3        -11.2790   14.2160   16.1640 N.ar      1 ERJ        -0.2581
      3 C4        -12.5980   13.9680   16.0490 C.ar      1 ERJ         0.1700
      4 C5        -13.4870   14.5730   16.9050 C.ar      1 ERJ         0.0853
      5 C6        -12.9470   15.4370   17.9120 C.ar      1 ERJ         0.0538
      6 C8        -14.6250   13.3220   15.5390 C.2       1 ERJ         0.1161
      7 C20       -13.2030   16.9450   19.7800 C.2       1 ERJ         0.0158
      8 C22       -15.7980   16.5810   20.0270 C.2       1 ERJ        -0.0035
      9 C1'       -12.8060   12.4190   14.1030 C.3       1 ERJ         0.2017
     10 C19       -13.7540   16.0720   18.8510 C.2       1 ERJ        -0.0060
     11 C2        -10.8180   15.0230   17.1110 C.ar      1 ERJ         0.0634
     12 C2'       -13.4530   11.0370   13.9120 C.3       1 ERJ         0.1386
     13 C23       -15.1490   15.8710   18.9780 C.2       1 ERJ        -0.0645
     14 C3'       -13.6670   10.9350   12.3770 C.3       1 ERJ         0.1146
     15 C4'       -13.0910   12.2280   11.8190 C.3       1 ERJ         0.1135
     16 C5'       -13.8650   12.8310   10.6640 C.3       1 ERJ         0.0730
     17 N7        -14.7360   14.1470   16.5540 N.2       1 ERJ        -0.2921
     18 N9        -13.3350   13.2000   15.2170 N.pl3     1 ERJ        -0.1875
     19 O2'       -12.6430   10.0020   14.4260 O.3       1 ERJ        -0.3836
     20 O3'       -12.9290    9.8330   11.8410 O.3       1 ERJ        -0.3864
     21 O4'       -13.0970   13.1480   12.9260 O.3       1 ERJ        -0.3367
     22 O5'       -13.3560   14.1220   10.3500 O.3       1 ERJ        -0.3924
     23 S21       -14.5800   17.4940   20.7260 S.3       1 ERJ        -0.0328
     24 H1        -15.4517   12.8184   15.0401 H         1 ERJ         0.1380
     25 H2        -12.1572   17.2255   19.8961 H         1 ERJ         0.0854
     26 H3        -16.8485   16.5400   20.3109 H         1 ERJ         0.0726
     27 H4        -11.7205   12.2965   14.2323 H         1 ERJ         0.0997
     28 H5         -9.7500   15.1879   17.1965 H         1 ERJ         0.1025
     29 H6        -14.4245   11.0014   14.4267 H         1 ERJ         0.0676
     30 H7        -15.6965   15.2087   18.3091 H         1 ERJ         0.0420
     31 H8        -14.7347   10.8329   12.1328 H         1 ERJ         0.0648
     32 H9        -12.0598   12.0449   11.4829 H         1 ERJ         0.0647
     33 H10       -14.9255   12.9170   10.9432 H         1 ERJ         0.0584
     34 H11       -13.7694   12.1791    9.7832 H         1 ERJ         0.0584
     35 H12       -13.0510    9.1631   14.2461 H         1 ERJ         0.2101
     36 H13       -13.2817    9.0203   12.1840 H         1 ERJ         0.2100
     37 H14       -13.4394   14.6873   11.1090 H         1 ERJ         0.2095
@<TRIPOS>BOND
     1    5    1 ar 
     2   11    1 ar 
     3    3    2 ar 
     4    2   11 ar 
     5    3    4 ar 
     6   18    3 1  
     7    4    5 ar 
     8   17    4 1  
     9    5   10 1  
    10    6   17 2  
    11   18    6 1  
    12   10    7 2  
    13    7   23 1  
    14    8   13 2  
    15   23    8 1  
    16    9   12 1  
    17    9   18 1  
    18    9   21 1  
    19   10   13 1  
    20   12   14 1  
    21   12   19 1  
    22   14   15 1  
    23   14   20 1  
    24   15   16 1  
    25   15   21 1  
    26   16   22 1  
    27    6   24 1  
    28    7   25 1  
    29    8   26 1  
    30    9   27 1  
    31   11   28 1  
    32   12   29 1  
    33   13   30 1  
    34   14   31 1  
    35   15   32 1  
    36   16   33 1  
    37   16   34 1  
    38   19   35 1  
    39   20   36 1  
    40   22   37 1  
@<TRIPOS>SUBSTRUCTURE
     1 ERJ         1

