### 
### Created by X-TOOL on Mon Aug  2 16:12:46 2021
### 

@<TRIPOS>MOLECULE
6c9s_ligand
   52    56     1     0     0
SMALL
GAST_HUCK


@<TRIPOS>ATOM
      1 N1          1.8540    3.8910   11.2080 N.ar      1 ERP        -0.2695
      2 N3          1.6860    5.6650    9.7880 N.ar      1 ERP        -0.2525
      3 C4          2.9440    6.0160   10.0100 C.ar      1 ERP         0.1756
      4 C5          3.6930    5.2790   10.8430 C.ar      1 ERP         0.0990
      5 C6          3.0920    4.1510   11.4560 C.ar      1 ERP         0.1117
      6 C8          4.8630    6.8690   10.0910 C.2       1 ERP         0.1177
      7 C20         4.5550    2.6040   13.1540 C.1       1 ERP        -0.0499
      8 C21         5.3920    1.7210   14.1220 C.ar      1 ERP         0.0307
      9 C22         4.8600    0.5240   14.6140 C.ar      1 ERP        -0.0439
     10 C24         6.8760    0.1220   15.8630 C.ar      1 ERP        -0.0168
     11 C26         6.6480    2.1160   14.4940 C.ar      1 ERP        -0.0439
     12 C28         7.6690   -0.5130   18.1800 C.ar      1 ERP        -0.0537
     13 C1'         3.3220    7.9340    8.5970 C.3       1 ERP         0.2020
     14 C19         3.9370    3.2560   12.4380 C.1       1 ERP        -0.0351
     15 C2          1.1560    4.6290   10.3980 C.ar      1 ERP         0.0699
     16 C2'         3.9520    9.4180    8.6170 C.3       1 ERP         0.1386
     17 C23         5.6170   -0.2740   15.4900 C.ar      1 ERP        -0.0517
     18 C25         7.4070    1.3140   15.3750 C.ar      1 ERP        -0.0517
     19 C27         7.7050   -0.7550   16.8260 C.ar      1 ERP        -0.0172
     20 C29         8.4040   -1.2890   19.0330 C.ar      1 ERP        -0.0610
     21 C3'         4.3740    9.6690    7.4470 C.3       1 ERP         0.1146
     22 C30         9.1980   -2.3400   18.5240 C.ar      1 ERP        -0.0615
     23 C31         9.2330   -2.5830   17.1670 C.ar      1 ERP        -0.0610
     24 C32         8.5010   -1.8070   16.3160 C.ar      1 ERP        -0.0537
     25 C4'         4.0600    8.4390    6.5860 C.3       1 ERP         0.1135
     26 C5'         5.1270    8.1880    5.7280 C.3       1 ERP         0.0730
     27 N7          4.8670    5.8340   10.8630 N.2       1 ERP        -0.2888
     28 N9          3.6970    7.0080    9.5780 N.pl3     1 ERP        -0.1856
     29 O2'         2.8470   10.1510    9.0890 O.3       1 ERP        -0.3836
     30 O3'         3.8230   10.7860    6.6790 O.3       1 ERP        -0.3864
     31 O4'         3.9060    7.4160    7.6280 O.3       1 ERP        -0.3367
     32 O5'         4.7450    7.2980    4.7190 O.3       1 ERP        -0.3924
     33 H1          5.7155    7.5206    9.9053 H         1 ERP         0.1393
     34 H2          3.8644    0.2119   14.3199 H         1 ERP         0.0640
     35 H3          7.0602    3.0434   14.1131 H         1 ERP         0.0640
     36 H4          7.0580    0.2928   18.5705 H         1 ERP         0.0625
     37 H5          2.2273    7.9858    8.5025 H         1 ERP         0.0997
     38 H6          0.1146    4.3849   10.2218 H         1 ERP         0.1038
     39 H7          4.7921    9.5055    9.3216 H         1 ERP         0.0676
     40 H8          5.2056   -1.2020   15.8704 H         1 ERP         0.0627
     41 H9          8.4020    1.6258   15.6712 H         1 ERP         0.0627
     42 H10         8.3771   -1.0974   20.0996 H         1 ERP         0.0618
     43 H11         5.4611    9.8198    7.5211 H         1 ERP         0.0648
     44 H12         9.7801   -2.9558   19.2000 H         1 ERP         0.0619
     45 H13         9.8419   -3.3903   16.7764 H         1 ERP         0.0618
     46 H14         8.5296   -1.9969   15.2491 H         1 ERP         0.0625
     47 H15         3.1355    8.5631    6.0031 H         1 ERP         0.0647
     48 H16         5.9575    7.7504    6.3014 H         1 ERP         0.0584
     49 H17         5.4548    9.1336    5.2716 H         1 ERP         0.0584
     50 H18         3.0616   11.0764    9.0953 H         1 ERP         0.2101
     51 H19         3.9767   11.5977    7.1481 H         1 ERP         0.2100
     52 H20         4.0293    7.6745    4.2205 H         1 ERP         0.2095
@<TRIPOS>BOND
     1    5    1 ar 
     2   15    1 ar 
     3    3    2 ar 
     4    2   15 ar 
     5    3    4 ar 
     6   28    3 1  
     7    4    5 ar 
     8   27    4 1  
     9    5   14 1  
    10    6   27 2  
    11   28    6 1  
    12    7    8 1  
    13   14    7 3  
    14    8    9 ar 
    15    8   11 ar 
    16    9   17 ar 
    17   17   10 ar 
    18   18   10 ar 
    19   10   19 1  
    20   11   18 ar 
    21   19   12 ar 
    22   12   20 ar 
    23   13   16 1  
    24   13   28 1  
    25   13   31 1  
    26   16   21 1  
    27   16   29 1  
    28   19   24 ar 
    29   20   22 ar 
    30   21   25 1  
    31   21   30 1  
    32   22   23 ar 
    33   23   24 ar 
    34   25   26 1  
    35   25   31 1  
    36   26   32 1  
    37    6   33 1  
    38    9   34 1  
    39   11   35 1  
    40   12   36 1  
    41   13   37 1  
    42   15   38 1  
    43   16   39 1  
    44   17   40 1  
    45   18   41 1  
    46   20   42 1  
    47   21   43 1  
    48   22   44 1  
    49   23   45 1  
    50   24   46 1  
    51   25   47 1  
    52   26   48 1  
    53   26   49 1  
    54   29   50 1  
    55   30   51 1  
    56   32   52 1  
@<TRIPOS>SUBSTRUCTURE
     1 ERP         1

