### 
### Created by X-TOOL on Mon Aug  2 16:12:47 2021
### 

@<TRIPOS>MOLECULE
6c9v_ligand
   54    58     1     0     0
SMALL
GAST_HUCK


@<TRIPOS>ATOM
      1 N1          2.9420   -2.4880   11.3390 N.ar      1 ERS        -0.2695
      2 N3          4.7270   -2.3290    9.8370 N.ar      1 ERS        -0.2713
      3 C4          5.1000   -3.6180   10.0850 C.ar      1 ERS         0.1613
      4 C5          4.4120   -4.3690   10.9880 C.ar      1 ERS         0.1049
      5 C6          3.2710   -3.7510   11.6290 C.ar      1 ERS         0.1350
      6 C8          6.0220   -5.6070   10.1780 C.2       1 ERS         0.1123
      7 C20         2.7730   -5.8030   13.0320 C.3       1 ERS         0.0523
      8 C21         2.3230   -5.9680   14.4900 C.3       1 ERS         0.0475
      9 C24         1.0540   -4.1000   12.7610 C.3       1 ERS         0.0523
     10 C26        -1.3370   -6.2390   13.9410 C.ar      1 ERS        -0.0443
     11 C28        -2.0830   -8.5080   14.2480 C.ar      1 ERS        -0.0751
     12 C1'         7.0300   -3.9570    8.5530 C.3       1 ERS         0.2010
     13 C2          3.6560   -1.8130   10.4460 C.ar      1 ERS         0.0533
     14 C2'         8.4800   -4.4480    8.6760 C.3       1 ERS         0.1385
     15 C23         0.6800   -4.2290   14.2370 C.3       1 ERS         0.0475
     16 C25        -0.1360   -6.5900   14.5450 C.ar      1 ERS         0.0403
     17 C27        -2.3160   -7.1980   13.7820 C.ar      1 ERS        -0.0737
     18 C29        -0.8790   -8.8480   14.8580 C.ar      1 ERS        -0.0737
     19 C3'         8.8450   -4.8970    7.2310 C.3       1 ERS         0.1146
     20 C30         0.1020   -7.9000   15.0190 C.ar      1 ERS        -0.0443
     21 C4'         7.5880   -4.6090    6.4190 C.3       1 ERS         0.1135
     22 C5'         7.2570   -5.6740    5.3960 C.3       1 ERS         0.0730
     23 N19         2.4630   -4.4610   12.5850 N.pl3     1 ERS        -0.2835
     24 N22         0.9180   -5.5840   14.7090 N.pl3     1 ERS        -0.3049
     25 N7          5.0010   -5.6150   11.0280 N.2       1 ERS        -0.2957
     26 N9          6.1200   -4.3710    9.6130 N.pl3     1 ERS        -0.1919
     27 O2'         9.3130   -3.4530    9.2130 O.3       1 ERS        -0.3836
     28 O3'         9.9480   -4.1530    6.6830 O.3       1 ERS        -0.3864
     29 O4'         6.5280   -4.5660    7.3720 O.3       1 ERS        -0.3368
     30 O5'         6.1370   -5.2840    4.5970 O.3       1 ERS        -0.3924
     31 H1          6.6754   -6.4522    9.9668 H         1 ERS         0.1349
     32 H2          2.2452   -6.5321   12.3997 H         1 ERS         0.0547
     33 H3          3.8574   -5.9728   12.9606 H         1 ERS         0.0547
     34 H4          2.9613   -5.3377   15.1267 H         1 ERS         0.0534
     35 H5          2.4462   -7.0227   14.7770 H         1 ERS         0.0534
     36 H6          0.8967   -3.0624   12.4314 H         1 ERS         0.0547
     37 H7          0.4244   -4.7745   12.1621 H         1 ERS         0.0547
     38 H8         -1.5028   -5.2239   13.5988 H         1 ERS         0.0515
     39 H9         -2.8530   -9.2617   14.1295 H         1 ERS         0.0505
     40 H10         7.0232   -2.8597    8.4759 H         1 ERS         0.0996
     41 H11         3.3571   -0.8003   10.2008 H         1 ERS         0.0996
     42 H12         8.5243   -5.3189    9.3464 H         1 ERS         0.0676
     43 H13        -0.3850   -3.9843   14.3628 H         1 ERS         0.0534
     44 H14         1.2894   -3.5285   14.8269 H         1 ERS         0.0534
     45 H15        -3.2555   -6.9466   13.3033 H         1 ERS         0.0583
     46 H16        -0.7154   -9.8614   15.2062 H         1 ERS         0.0583
     47 H17         9.0866   -5.9700    7.2146 H         1 ERS         0.0648
     48 H18         1.0402   -8.1517   15.5001 H         1 ERS         0.0515
     49 H19         7.6932   -3.6408    5.9076 H         1 ERS         0.0647
     50 H20         7.0178   -6.6124    5.9176 H         1 ERS         0.0584
     51 H21         8.1285   -5.8293    4.7430 H         1 ERS         0.0584
     52 H22        10.2072   -3.7724    9.2430 H         1 ERS         0.2101
     53 H23        10.7319   -4.3322    7.1889 H         1 ERS         0.2100
     54 H24         6.3404   -4.4754    4.1418 H         1 ERS         0.2095
@<TRIPOS>BOND
     1    5    1 ar 
     2    1   13 ar 
     3    3    2 ar 
     4   13    2 ar 
     5    4    3 ar 
     6    3   26 1  
     7    5    4 ar 
     8    4   25 1  
     9   23    5 1  
    10   25    6 2  
    11    6   26 1  
    12    8    7 1  
    13    7   23 1  
    14   24    8 1  
    15   15    9 1  
    16    9   23 1  
    17   16   10 ar 
    18   10   17 ar 
    19   17   11 ar 
    20   11   18 ar 
    21   12   14 1  
    22   26   12 1  
    23   12   29 1  
    24   14   19 1  
    25   14   27 1  
    26   24   15 1  
    27   16   20 ar 
    28   16   24 1  
    29   18   20 ar 
    30   19   21 1  
    31   19   28 1  
    32   21   22 1  
    33   21   29 1  
    34   22   30 1  
    35    6   31 1  
    36    7   32 1  
    37    7   33 1  
    38    8   34 1  
    39    8   35 1  
    40    9   36 1  
    41    9   37 1  
    42   10   38 1  
    43   11   39 1  
    44   12   40 1  
    45   13   41 1  
    46   14   42 1  
    47   15   43 1  
    48   15   44 1  
    49   17   45 1  
    50   18   46 1  
    51   19   47 1  
    52   20   48 1  
    53   21   49 1  
    54   22   50 1  
    55   22   51 1  
    56   27   52 1  
    57   28   53 1  
    58   30   54 1  
@<TRIPOS>SUBSTRUCTURE
     1 ERS         1

