### 
### Created by X-TOOL on Wed Jan  1 15:39:36 2020
### 

@<TRIPOS>MOLECULE
6cb5_ligand
   38    41     1     0     0
SMALL
GAST_HUCK


@<TRIPOS>ATOM
      1 C13       104.6000   15.5960    6.6370 C.ar      1 EV7        -0.0280
      2 C17       106.9580   15.3510    4.5470 C.ar      1 EV7        -0.0229
      3 C20       108.8820   13.4610    2.0520 C.ar      1 EV7        -0.0582
      4 C21       109.9660   12.5910    1.9700 C.ar      1 EV7        -0.0647
      5 C22       110.6110   12.2320    3.1510 C.ar      1 EV7        -0.0651
      6 C24       109.0950   13.6310    4.4580 C.ar      1 EV7        -0.0276
      7 C02       106.9820   13.0120    8.0320 C.2       1 EV7         0.0583
      8 C04       105.6970   13.6760    7.5440 C.ar      1 EV7         0.0399
      9 C05       104.4940   13.0160    7.6560 C.ar      1 EV7        -0.0542
     10 C06       103.3300   13.6540    7.2660 C.ar      1 EV7        -0.0409
     11 C07       102.1310   12.9910    7.3580 C.2       1 EV7        -0.0052
     12 C08       101.9600   11.6200    7.3300 C.2       1 EV7         0.0039
     13 C11       100.8770   13.5480    7.4090 C.2       1 EV7         0.0576
     14 C12       103.3820   14.9400    6.7490 C.ar      1 EV7        -0.0659
     15 C14       105.7640   14.9720    7.0470 C.ar      1 EV7         0.1281
     16 C16       107.5630   15.0240    5.7350 C.ar      1 EV7         0.1177
     17 C18       107.3940   14.8480    3.3400 C.ar      1 EV7        -0.0556
     18 C19       108.4600   13.9780    3.3010 C.ar      1 EV7        -0.0243
     19 C23       110.1900   12.7460    4.3710 C.ar      1 EV7        -0.0597
     20 C25       108.6470   14.1460    5.7020 C.ar      1 EV7        -0.0242
     21 N09       100.6650   11.3720    7.3830 N.2       1 EV7        -0.2171
     22 N10        99.9890   12.5590    7.4240 N.pl3     1 EV7        -0.2186
     23 O01       107.7160   13.6970    8.7950 O.co2     1 EV7        -0.5640
     24 O03       107.2970   11.8360    7.7400 O.co2     1 EV7        -0.5640
     25 O15       107.0240   15.5910    6.9100 O.3       1 EV7        -0.2560
     26 H1        104.6389   16.5989    6.2275 H         1 EV7         0.0553
     27 H2        106.1102   16.0264    4.5584 H         1 EV7         0.0598
     28 H3        108.3547   13.7460    1.1488 H         1 EV7         0.0616
     29 H4        110.2986   12.2039    1.0137 H         1 EV7         0.0588
     30 H5        111.4491   11.5453    3.1179 H         1 EV7         0.0608
     31 H6        104.4591   12.0053    8.0463 H         1 EV7         0.0587
     32 H7        102.7534   10.8761    7.2741 H         1 EV7         0.0667
     33 H8        100.6499   14.6128    7.4329 H         1 EV7         0.1008
     34 H9        102.4703   15.4333    6.4320 H         1 EV7         0.0575
     35 H10       106.8972   15.1377    2.4211 H         1 EV7         0.0618
     36 H11       110.7144   12.4608    5.2758 H         1 EV7         0.0592
     37 H12       109.1441   13.8590    6.6215 H         1 EV7         0.0509
     38 H13        98.9655   12.6686    7.4603 H         1 EV7         0.2589
@<TRIPOS>BOND
     1    1   14 ar 
     2   15    1 ar 
     3   16    2 ar 
     4    2   17 ar 
     5    3    4 ar 
     6   18    3 ar 
     7    5    4 ar 
     8   19    5 ar 
     9    6   18 ar 
    10    6   19 ar 
    11   20    6 ar 
    12    8    7 1  
    13    7   23 ar 
    14    7   24 ar 
    15    8    9 ar 
    16   15    8 ar 
    17    9   10 ar 
    18   10   11 1  
    19   14   10 ar 
    20   11   12 1  
    21   11   13 2  
    22   12   21 2  
    23   13   22 1  
    24   25   15 1  
    25   16   20 ar 
    26   16   25 1  
    27   17   18 ar 
    28   21   22 1  
    29    1   26 1  
    30    2   27 1  
    31    3   28 1  
    32    4   29 1  
    33    5   30 1  
    34    9   31 1  
    35   12   32 1  
    36   13   33 1  
    37   14   34 1  
    38   17   35 1  
    39   19   36 1  
    40   20   37 1  
    41   22   38 1  
@<TRIPOS>SUBSTRUCTURE
     1 EV7         1

