### 
### Created by X-TOOL on Wed Jan  1 15:39:38 2020
### 

@<TRIPOS>MOLECULE
6cbf_ligand
   32    34     1     0     0
SMALL
GAST_HUCK


@<TRIPOS>ATOM
      1 C14        12.9700    9.7700    2.9040 C.ar      1 EWD        -0.0409
      2 C15        12.8940   10.1550    1.5670 C.ar      1 EWD        -0.0660
      3 C16        11.6820   10.1090    0.8720 C.ar      1 EWD        -0.0281
      4 C17        10.5230    9.6790    1.5160 C.ar      1 EWD         0.1276
      5 C18        10.6190    9.2820    2.8490 C.ar      1 EWD         0.0397
      6 C19        11.8240    9.3290    3.5400 C.ar      1 EWD        -0.0542
      7 C20        14.2630    9.8150    3.6380 C.2       1 EWD        -0.0052
      8 C21        14.4390   10.0110    5.0010 C.2       1 EWD         0.0576
      9 N22        15.7610    9.9840    5.2750 N.pl3     1 EWD        -0.2186
     10 N23        16.4040    9.7610    4.0600 N.2       1 EWD        -0.2171
     11 C24        15.5120    9.6560    3.0680 C.2       1 EWD         0.0039
     12 C25         9.4260    8.8140    3.6170 C.2       1 EWD         0.0582
     13 O26         9.1150    7.6070    3.5720 O.co2     1 EWD        -0.5640
     14 O27         8.8020    9.6570    4.2990 O.co2     1 EWD        -0.5640
     15 O28         9.3150    9.5950    0.8410 O.3       1 EWD        -0.2566
     16 C29         8.5180   10.6230    0.3670 C.ar      1 EWD         0.1166
     17 C30         8.4850   11.8910    0.9650 C.ar      1 EWD        -0.0283
     18 C31         7.6530   12.8830    0.4420 C.ar      1 EWD        -0.0696
     19 C32         6.8510   12.6140   -0.6700 C.ar      1 EWD        -0.0722
     20 C33         6.8730   11.3540   -1.2620 C.ar      1 EWD        -0.0696
     21 C34         7.6990   10.3610   -0.7390 C.ar      1 EWD        -0.0283
     22 H1         13.7885   10.4954    1.0580 H         1 EWD         0.0575
     23 H2         11.6434   10.4081   -0.1692 H         1 EWD         0.0553
     24 H3         11.8655    9.0198    4.5781 H         1 EWD         0.0587
     25 H4         13.6429   10.1616    5.7286 H         1 EWD         0.1008
     26 H5         16.2044   10.1041    6.1969 H         1 EWD         0.2589
     27 H6         15.7283    9.4795    2.0154 H         1 EWD         0.0667
     28 H7          9.1033   12.1004    1.8304 H         1 EWD         0.0553
     29 H8          7.6293   13.8651    0.9003 H         1 EWD         0.0590
     30 H9          6.2093   13.3891   -1.0733 H         1 EWD         0.0528
     31 H10         6.2509   11.1466   -2.1252 H         1 EWD         0.0590
     32 H11         7.7079    9.3764   -1.1923 H         1 EWD         0.0553
@<TRIPOS>BOND
     1    1    2 ar 
     2    1    6 ar 
     3    1    7 1  
     4    2    3 ar 
     5    3    4 ar 
     6    4    5 ar 
     7    4   15 1  
     8    5    6 ar 
     9    5   12 1  
    10    7    8 2  
    11    7   11 1  
    12    8    9 1  
    13    9   10 1  
    14   10   11 2  
    15   12   13 ar 
    16   12   14 ar 
    17   15   16 1  
    18   16   17 ar 
    19   16   21 ar 
    20   17   18 ar 
    21   18   19 ar 
    22   19   20 ar 
    23   20   21 ar 
    24    2   22 1  
    25    3   23 1  
    26    6   24 1  
    27    8   25 1  
    28    9   26 1  
    29   11   27 1  
    30   17   28 1  
    31   18   29 1  
    32   19   30 1  
    33   20   31 1  
    34   21   32 1  
@<TRIPOS>SUBSTRUCTURE
     1 EWD         1

