### 
### Created by X-TOOL on Wed Jan  1 15:39:35 2020
### 

@<TRIPOS>MOLECULE
6cbg_ligand
   21    22     1     0     0
SMALL
GAST_HUCK


@<TRIPOS>ATOM
      1 C2        -33.9160  -12.4210    6.8620 C.2       1 EWG         0.0017
      2 C3        -32.6110  -12.8710    6.8620 C.2       1 EWG         0.0060
      3 C6        -33.8690  -11.0380    6.9420 C.2       1 EWG         0.0614
      4 N4        -31.8270  -11.8090    6.9740 N.2       1 EWG        -0.2158
      5 N5        -32.5740  -10.6540    7.0170 N.pl3     1 EWG        -0.2165
      6 C13       -35.1320  -13.2570    6.6990 C.ar      1 EWG        -0.0317
      7 C14       -36.4000  -12.6870    6.6880 C.ar      1 EWG        -0.0481
      8 C15       -37.5140  -13.5030    6.4820 C.ar      1 EWG         0.0051
      9 C16       -37.3910  -14.8840    6.2930 C.ar      1 EWG        -0.0527
     10 C17       -36.1190  -15.4360    6.3060 C.ar      1 EWG        -0.0634
     11 C18       -35.0030  -14.6210    6.4890 C.ar      1 EWG        -0.0598
     12 C19       -38.8660  -12.9250    6.4980 C.2       1 EWG         0.0618
     13 O20       -39.8030  -13.5010    5.9280 O.co2     1 EWG        -0.5607
     14 O21       -39.0210  -11.8040    7.1930 O.co2     1 EWG        -0.5607
     15 H1        -32.2860  -13.9075    6.7843 H         1 EWG         0.0675
     16 H2        -34.7305  -10.3719    6.9441 H         1 EWG         0.1038
     17 H3        -32.2183   -9.6902    7.0914 H         1 EWG         0.2600
     18 H4        -36.5224  -11.6204    6.8378 H         1 EWG         0.0608
     19 H5        -38.2661  -15.5053    6.1406 H         1 EWG         0.0608
     20 H6        -35.9921  -16.5044    6.1735 H         1 EWG         0.0610
     21 H7        -34.0136  -15.0632    6.4666 H         1 EWG         0.0594
@<TRIPOS>BOND
     1    1    2 1  
     2    1    3 2  
     3    1    6 1  
     4    2    4 2  
     5    3    5 1  
     6    4    5 1  
     7    6    7 ar 
     8    6   11 ar 
     9    7    8 ar 
    10    8    9 ar 
    11    8   12 1  
    12    9   10 ar 
    13   10   11 ar 
    14   12   13 ar 
    15   12   14 ar 
    16    2   15 1  
    17    3   16 1  
    18    5   17 1  
    19    7   18 1  
    20    9   19 1  
    21   10   20 1  
    22   11   21 1  
@<TRIPOS>SUBSTRUCTURE
     1 EWG         1

