### 
### Created by X-TOOL on Wed Jan  1 15:39:35 2020
### 

@<TRIPOS>MOLECULE
6cbh_ligand
   38    41     1     0     0
SMALL
GAST_HUCK


@<TRIPOS>ATOM
      1 C2        -40.7140   13.0460   -2.0630 C.ar      1 EWJ        -0.0583
      2 C3        -41.8500   12.2470   -2.1180 C.ar      1 EWJ        -0.0647
      3 C4        -42.4710   12.0110   -3.3500 C.ar      1 EWJ        -0.0651
      4 C5        -41.9560   12.5740   -4.5210 C.ar      1 EWJ        -0.0597
      5 C14       -34.8420   13.4730   -7.1890 C.ar      1 EWJ        -0.0422
      6 C15       -34.9210   14.7270   -6.5940 C.ar      1 EWJ        -0.0677
      7 C16       -36.1580   15.3590   -6.4600 C.ar      1 EWJ        -0.0293
      8 C17       -37.3160   14.7430   -6.9320 C.ar      1 EWJ         0.1268
      9 C18       -37.2200   13.4670   -7.4990 C.ar      1 EWJ         0.0385
     10 C19       -35.9990   12.8430   -7.6310 C.ar      1 EWJ        -0.0560
     11 C20       -33.5300   12.8060   -7.3160 C.2       1 EWJ         0.0299
     12 C21       -32.2680   13.3740   -7.3660 C.2       1 EWJ        -0.0001
     13 N22       -31.3160   12.4040   -7.4480 N.2       1 EWJ        -0.2229
     14 N23       -31.9540   11.1630   -7.4250 N.pl3     1 EWJ        -0.1886
     15 C24       -33.2450   11.3680   -7.3350 C.2       1 EWJ         0.2582
     16 C25       -38.4290   12.7540   -8.0240 C.2       1 EWJ         0.0580
     17 O26       -38.6990   11.6140   -7.6210 O.co2     1 EWJ        -0.5640
     18 O27       -39.1270   13.3430   -8.8690 O.co2     1 EWJ        -0.5640
     19 O28       -38.5480   15.3360   -6.7190 O.3       1 EWJ        -0.2568
     20 C29       -39.1380   14.7810   -5.5820 C.ar      1 EWJ         0.1173
     21 C30       -40.2780   13.9530   -5.6400 C.ar      1 EWJ        -0.0243
     22 C31       -40.8150   13.3800   -4.4730 C.ar      1 EWJ        -0.0276
     23 C32       -40.2060   13.6050   -3.2390 C.ar      1 EWJ        -0.0244
     24 C33       -39.0820   14.3980   -3.1810 C.ar      1 EWJ        -0.0556
     25 C34       -38.5480   14.9760   -4.3290 C.ar      1 EWJ        -0.0230
     26 F1        -34.1820   10.3450   -7.2940 F         1 EWJ        -0.1398
     27 H1        -40.2251   13.2344   -1.1140 H         1 EWJ         0.0616
     28 H2        -42.2528   11.8091   -1.2119 H         1 EWJ         0.0588
     29 H3        -43.3567   11.3878   -3.3962 H         1 EWJ         0.0608
     30 H4        -42.4435   12.3848   -5.4705 H         1 EWJ         0.0592
     31 H5        -34.0218   15.2138   -6.2342 H         1 EWJ         0.0564
     32 H6        -36.2186   16.3325   -5.9871 H         1 EWJ         0.0550
     33 H7        -35.9406   11.8584   -8.0806 H         1 EWJ         0.0576
     34 H8        -32.0658   14.4438   -7.3430 H         1 EWJ         0.0651
     35 H9        -31.4901   10.2445   -7.4709 H         1 EWJ         0.2585
     36 H10       -40.7470   13.7554   -6.5971 H         1 EWJ         0.0509
     37 H11       -38.6044   14.5753   -2.2242 H         1 EWJ         0.0618
     38 H12       -37.6576   15.5892   -4.2504 H         1 EWJ         0.0598
@<TRIPOS>BOND
     1    2    1 ar 
     2    1   23 ar 
     3    3    2 ar 
     4    4    3 ar 
     5   22    4 ar 
     6    6    5 ar 
     7   10    5 ar 
     8    5   11 1  
     9    7    6 ar 
    10    8    7 ar 
    11    8    9 ar 
    12   19    8 1  
    13    9   10 ar 
    14    9   16 1  
    15   11   12 1  
    16   11   15 2  
    17   12   13 2  
    18   14   13 1  
    19   15   14 1  
    20   15   26 1  
    21   16   17 ar 
    22   16   18 ar 
    23   20   19 1  
    24   21   20 ar 
    25   20   25 ar 
    26   21   22 ar 
    27   22   23 ar 
    28   23   24 ar 
    29   24   25 ar 
    30    1   27 1  
    31    2   28 1  
    32    3   29 1  
    33    4   30 1  
    34    6   31 1  
    35    7   32 1  
    36   10   33 1  
    37   12   34 1  
    38   14   35 1  
    39   21   36 1  
    40   24   37 1  
    41   25   38 1  
@<TRIPOS>SUBSTRUCTURE
     1 EWJ         1

