### 
### Created by X-TOOL on Mon Aug  2 16:11:55 2021
### 

@<TRIPOS>MOLECULE
6cc9_ligand
   49    52     1     0     0
SMALL
GAST_HUCK


@<TRIPOS>ATOM
      1 CAC        28.8690   -3.1460  -11.5470 C.3       1 EWS         0.0508
      2 CAD        30.0670   -3.7790  -10.8240 C.3       1 EWS         0.0152
      3 CAE        27.5880   -3.9440  -11.3010 C.3       1 EWS         0.0105
      4 CAF        27.2920   -3.9640   -9.7850 C.3       1 EWS        -0.0311
      5 CAH        29.6720   -4.5300   -9.5450 C.3       1 EWS        -0.0109
      6 CAI        30.8900   -4.6100   -8.6000 C.3       1 EWS         0.0243
      7 CAJ        30.6380   -5.3520   -7.4510 C.ar      1 EWS        -0.0374
      8 CAK        30.7190   -6.7670   -7.4960 C.ar      1 EWS        -0.0595
      9 CAL        30.2910   -4.6760   -6.2510 C.ar      1 EWS        -0.0595
     10 CAM        30.0280   -5.4200   -5.0890 C.ar      1 EWS        -0.0546
     11 CAN        30.1170   -6.8250   -5.1410 C.ar      1 EWS         0.0330
     12 CAO        30.4570   -7.5120   -6.3340 C.ar      1 EWS        -0.0546
     13 CAQ        29.0270   -4.6560  -15.7380 C.ar      1 EWS        -0.0628
     14 CAR        29.4430   -5.5010  -16.7890 C.ar      1 EWS        -0.0038
     15 CAS        29.9310   -4.9420  -17.9930 C.ar      1 EWS        -0.0666
     16 CAT        29.9810   -3.5420  -18.1060 C.ar      1 EWS        -0.0397
     17 CAU        29.5760   -2.7770  -17.0690 C.ar      1 EWS         0.0716
     18 CAV        29.1010   -3.3070  -15.9090 C.ar      1 EWS        -0.0051
     19 CAX        29.0510   -1.1350  -15.7570 C.2       1 EWS         0.0500
     20 CAZ        28.3880   -2.3060  -13.8360 C.2       1 EWS         0.1791
     21 NAA        29.1680   -3.0090  -12.9870 N.am      1 EWS        -0.2883
     22 NAG        28.4820   -3.9040   -8.9190 N.4       1 EWS         0.2307
     23 NAW        29.5260   -1.4500  -16.9570 N.pl3     1 EWS        -0.2687
     24 OAB        27.3340   -1.7700  -13.4900 O.2       1 EWS        -0.4025
     25 CBA        28.7960   -2.2750  -15.1150 C.2       1 EWS         0.0514
     26 CLA        29.7810   -7.7490   -3.7130 Cl        1 EWS        -0.0771
     27 BRA        29.3830   -7.3580  -16.5720 Br        1 EWS        -0.0602
     28 H1         28.7170   -2.1371  -11.1358 H         1 EWS         0.0558
     29 H2         30.7755   -2.9813  -10.5565 H         1 EWS         0.0344
     30 H3         30.5546   -4.4879  -11.5094 H         1 EWS         0.0344
     31 H4         27.7192   -4.9738  -11.6648 H         1 EWS         0.0339
     32 H5         26.7503   -3.4707  -11.8342 H         1 EWS         0.0339
     33 H6         26.7490   -4.8926   -9.5553 H         1 EWS         0.0815
     34 H7         26.6547   -3.0988   -9.5500 H         1 EWS         0.0815
     35 H8         29.3961   -5.5583   -9.8215 H         1 EWS         0.0875
     36 H9         31.1712   -3.5888   -8.3032 H         1 EWS         0.0482
     37 H10        31.7249   -5.0771   -9.1429 H         1 EWS         0.0482
     38 H11        30.9810   -7.2700   -8.4198 H         1 EWS         0.0557
     39 H12        30.2296   -3.5939   -6.2321 H         1 EWS         0.0557
     40 H13        29.7603   -4.9201   -4.1652 H         1 EWS         0.0606
     41 H14        30.5138   -8.5944   -6.3492 H         1 EWS         0.0606
     42 H15        28.6546   -5.0740  -14.8097 H         1 EWS         0.0572
     43 H16        30.2582   -5.5773  -18.8081 H         1 EWS         0.0554
     44 H17        30.3416   -3.0799  -19.0179 H         1 EWS         0.0553
     45 H18        28.8979   -0.1291  -15.3687 H         1 EWS         0.1065
     46 H19        29.9851   -3.4572  -13.3496 H         1 EWS         0.1836
     47 H20        28.2792   -4.3856   -8.0571 H         1 EWS         0.2018
     48 H21        28.6907   -2.9376   -8.7229 H         1 EWS         0.2018
     49 H22        29.8098   -0.7773  -17.6835 H         1 EWS         0.2325
@<TRIPOS>BOND
     1    1    2 1  
     2    1    3 1  
     3   21    1 1  
     4    2    5 1  
     5    3    4 1  
     6    4   22 1  
     7    5    6 1  
     8    5   22 1  
     9    6    7 1  
    10    7    8 ar 
    11    7    9 ar 
    12    8   12 ar 
    13    9   10 ar 
    14   10   11 ar 
    15   12   11 ar 
    16   11   26 1  
    17   13   14 ar 
    18   18   13 ar 
    19   14   15 ar 
    20   14   27 1  
    21   16   15 ar 
    22   17   16 ar 
    23   18   17 ar 
    24   23   17 1  
    25   25   18 1  
    26   19   23 1  
    27   25   19 2  
    28   20   21 am 
    29   20   24 2  
    30   20   25 1  
    31    1   28 1  
    32    2   29 1  
    33    2   30 1  
    34    3   31 1  
    35    3   32 1  
    36    4   33 1  
    37    4   34 1  
    38    5   35 1  
    39    6   36 1  
    40    6   37 1  
    41    8   38 1  
    42    9   39 1  
    43   10   40 1  
    44   12   41 1  
    45   13   42 1  
    46   15   43 1  
    47   16   44 1  
    48   19   45 1  
    49   21   46 1  
    50   22   47 1  
    51   22   48 1  
    52   23   49 1  
@<TRIPOS>SUBSTRUCTURE
     1 EWS         1

