### 
### Created by X-TOOL on Wed Jan  1 15:39:35 2020
### 

@<TRIPOS>MOLECULE
6cck_ligand
   36    38     1     0     0
SMALL
GAST_HUCK


@<TRIPOS>ATOM
      1 C1         30.4720  -10.0150   31.8960 C.2       1 EXJ         0.0677
      2 C2         29.9110  -10.8190   30.9590 C.2       1 EXJ         0.0200
      3 C3         28.5100  -10.5810   30.5650 C.2       1 EXJ         0.2310
      4 C13        24.1720   -7.5670   31.4980 C.3       1 EXJ         0.0922
      5 C14        23.1950   -6.4450   31.9200 C.3       1 EXJ         0.1043
      6 C15        21.9260   -6.5440   31.2160 C.1       1 EXJ         0.0941
      7 C16        23.6400   -8.9380   31.9730 C.ar      1 EXJ        -0.0165
      8 C17        23.9250   -9.4200   33.2720 C.ar      1 EXJ        -0.0443
      9 C18        23.4220  -10.6680   33.6580 C.ar      1 EXJ         0.0338
     10 C19        22.6450  -11.4470   32.7900 C.ar      1 EXJ        -0.0548
     11 C20        22.3990  -11.0030   31.4870 C.ar      1 EXJ        -0.0680
     12 C21        22.8830   -9.7410   31.0950 C.ar      1 EXJ        -0.0580
     13 N4         27.9730   -9.5280   31.1660 N.am      1 EXJ        -0.0898
     14 C5         28.5860   -8.7600   32.0920 C.2       1 EXJ         0.2851
     15 N6         29.8350   -8.9860   32.4340 N.pl3     1 EXJ        -0.2099
     16 N7         26.6440   -8.9890   31.0770 N.2       1 EXJ        -0.1855
     17 C8         26.5400   -7.9790   31.8680 C.2       1 EXJ         0.1335
     18 N9         27.8280   -7.8280   32.4840 N.2       1 EXJ        -0.2712
     19 C10        31.8910  -10.2540   32.3660 C.3       1 EXJ         0.0054
     20 O11        27.8790  -11.2460   29.7440 O.2       1 EXJ        -0.3972
     21 N12        25.4860   -7.2480   32.0700 N.pl3     1 EXJ        -0.2985
     22 CL         23.7530  -11.2420   35.2600 Cl        1 EXJ        -0.0725
     23 N23        20.9080   -6.6170   30.6850 N.1       1 EXJ        -0.3033
     24 H1         30.4848  -11.6259   30.5056 H         1 EXJ         0.0224
     25 H2         24.2551   -7.5865   30.4013 H         1 EXJ         0.0730
     26 H3         23.6526   -5.4704   31.6947 H         1 EXJ         0.0602
     27 H4         23.0096   -6.5218   33.0015 H         1 EXJ         0.0602
     28 H5         24.5238   -8.8319   33.9581 H         1 EXJ         0.0562
     29 H6         22.2354  -12.3920   33.1281 H         1 EXJ         0.0565
     30 H7         21.8444  -11.6209   30.7901 H         1 EXJ         0.0599
     31 H8         22.6692   -9.3782   30.0961 H         1 EXJ         0.0559
     32 H9         30.3111   -8.3720   33.1102 H         1 EXJ         0.2337
     33 H10        32.3061  -11.1310   31.8477 H         1 EXJ         0.0488
     34 H11        31.8924  -10.4348   33.4510 H         1 EXJ         0.0488
     35 H12        32.5057   -9.3700   32.1407 H         1 EXJ         0.0488
     36 H13        25.5758   -6.4069   32.6577 H         1 EXJ         0.1776
@<TRIPOS>BOND
     1    1    2 2  
     2   15    1 1  
     3    1   19 1  
     4    3    2 1  
     5   13    3 am 
     6    3   20 2  
     7    4    5 1  
     8    4    7 1  
     9   21    4 1  
    10    5    6 1  
    11    6   23 3  
    12    7    8 ar 
    13    7   12 ar 
    14    8    9 ar 
    15    9   10 ar 
    16    9   22 1  
    17   11   10 ar 
    18   12   11 ar 
    19   14   13 1  
    20   16   13 1  
    21   14   15 1  
    22   18   14 2  
    23   17   16 2  
    24   17   18 1  
    25   17   21 1  
    26    2   24 1  
    27    4   25 1  
    28    5   26 1  
    29    5   27 1  
    30    8   28 1  
    31   10   29 1  
    32   11   30 1  
    33   12   31 1  
    34   15   32 1  
    35   19   33 1  
    36   19   34 1  
    37   19   35 1  
    38   21   36 1  
@<TRIPOS>SUBSTRUCTURE
     1 EXJ         1

