### 
### Created by X-TOOL on Wed Jan  1 15:39:35 2020
### 

@<TRIPOS>MOLECULE
6ccl_ligand
   27    29     1     0     0
SMALL
GAST_HUCK


@<TRIPOS>ATOM
      1 C1         24.8060  -10.9260   31.9190 C.ar      1 EXG        -0.0133
      2 C2         23.8380  -10.5930   32.8580 C.ar      1 EXG        -0.0577
      3 C3         23.4770  -11.4910   33.8540 C.ar      1 EXG        -0.0685
      4 C11        28.3170  -10.7900   30.7750 C.ar      1 EXG        -0.0190
      5 C12        27.7150   -9.6390   31.2730 C.ar      1 EXG         0.1149
      6 C10        29.6920  -10.8820   30.9340 C.ar      1 EXG        -0.0458
      7 C9         30.3660   -9.8620   31.6000 C.ar      1 EXG        -0.0052
      8 N2         29.7700   -8.7570   32.0870 N.ar      1 EXG        -0.3029
      9 C8         28.4410   -8.6560   31.9030 C.ar      1 EXG         0.1017
     10 N1         27.6370   -7.6060   32.2900 N.2       1 EXG        -0.2873
     11 C7         26.4390   -7.9690   31.9010 C.2       1 EXG         0.1142
     12 N          26.4080   -9.1840   31.2850 N.pl3     1 EXG        -0.2165
     13 C          25.2240   -9.9340   30.8630 C.3       1 EXG         0.0930
     14 C6         25.4110  -12.1760   32.0030 C.ar      1 EXG        -0.0577
     15 C5         25.0530  -13.0730   33.0000 C.ar      1 EXG        -0.0685
     16 C4         24.0840  -12.7310   33.9260 C.ar      1 EXG        -0.0687
     17 H1         23.3591   -9.6216   32.8128 H         1 EXG         0.0557
     18 H2         22.7168  -11.2188   34.5773 H         1 EXG         0.0599
     19 H3         27.7436  -11.5715   30.2897 H         1 EXG         0.0682
     20 H4         30.2342  -11.7363   30.5451 H         1 EXG         0.0629
     21 H5         31.4368   -9.9636   31.7349 H         1 EXG         0.0746
     22 H6         25.5517   -7.3569   32.0557 H         1 EXG         0.1394
     23 H7         24.3978   -9.2302   30.6838 H         1 EXG         0.0775
     24 H8         25.4536  -10.4745   29.9329 H         1 EXG         0.0775
     25 H9         26.1710  -12.4527   31.2813 H         1 EXG         0.0557
     26 H10        25.5336  -14.0432   33.0530 H         1 EXG         0.0599
     27 H11        23.8021  -13.4314   34.7038 H         1 EXG         0.0559
@<TRIPOS>BOND
     1    1    2 ar 
     2   13    1 1  
     3    1   14 ar 
     4    2    3 ar 
     5    3   16 ar 
     6    5    4 ar 
     7    4    6 ar 
     8    5    9 ar 
     9   12    5 1  
    10    6    7 ar 
    11    8    7 ar 
    12    9    8 ar 
    13   10    9 1  
    14   11   10 2  
    15   12   11 1  
    16   12   13 1  
    17   14   15 ar 
    18   15   16 ar 
    19    2   17 1  
    20    3   18 1  
    21    4   19 1  
    22    6   20 1  
    23    7   21 1  
    24   11   22 1  
    25   13   23 1  
    26   13   24 1  
    27   14   25 1  
    28   15   26 1  
    29   16   27 1  
@<TRIPOS>SUBSTRUCTURE
     1 EXG         1

