### 
### Created by X-TOOL on Wed Jan  1 15:39:35 2020
### 

@<TRIPOS>MOLECULE
6ccm_ligand
   32    34     1     0     0
SMALL
GAST_HUCK


@<TRIPOS>ATOM
      1 C2        170.6960  171.6500   56.7610 C.2       1 EXP         0.2851
      2 C12       171.1400  175.9270   58.3710 C.3       1 EXP         0.0580
      3 C13       169.1930  176.1810   56.7380 C.ar      1 EXP        -0.0488
      4 C14       168.6010  176.7550   55.6050 C.ar      1 EXP         0.0064
      5 C15       170.4850  176.5710   57.1370 C.ar      1 EXP        -0.0192
      6 C17       170.5410  168.3900   55.1360 C.3       1 EXP         0.0054
      7 C18       170.5900  178.1100   55.2410 C.ar      1 EXP        -0.0657
      8 C19       169.2910  177.7240   54.8540 C.ar      1 EXP        -0.0591
      9 C20       171.1850  177.5340   56.3790 C.ar      1 EXP        -0.0557
     10 N1        171.5990  172.3470   56.0460 N.am      1 EXP        -0.0898
     11 N3        170.2160  172.3160   57.7220 N.2       1 EXP        -0.2712
     12 N4        171.6290  173.6210   56.7420 N.2       1 EXP        -0.1855
     13 C5        172.2240  171.8520   54.9600 C.2       1 EXP         0.2310
     14 C6        170.8410  173.6050   57.7590 C.2       1 EXP         0.1333
     15 C7        171.8660  170.4570   54.6170 C.2       1 EXP         0.0200
     16 N8        170.4060  170.4150   56.4390 N.pl3     1 EXP        -0.2099
     17 C9        170.9560  169.8230   55.3930 C.2       1 EXP         0.0677
     18 N10       170.6270  174.5720   58.6060 N.pl3     1 EXP        -0.3032
     19 O11       172.9890  172.5160   54.2830 O.2       1 EXP        -0.3972
     20 BR        166.9020  176.2020   55.1290 Br        1 EXP        -0.0517
     21 H1        170.9272  176.5479   59.2537 H         1 EXP         0.0672
     22 H2        172.2273  175.8751   58.2126 H         1 EXP         0.0672
     23 H3        168.6539  175.4339   57.3092 H         1 EXP         0.0584
     24 H4        171.0632  168.0113   54.2450 H         1 EXP         0.0488
     25 H5        169.4544  168.3470   54.9701 H         1 EXP         0.0488
     26 H6        170.8039  167.7704   56.0060 H         1 EXP         0.0488
     27 H7        171.1307  178.8502   54.6624 H         1 EXP         0.0606
     28 H8        168.8262  178.1712   53.9827 H         1 EXP         0.0585
     29 H9        172.1847  177.8311   56.6744 H         1 EXP         0.0581
     30 H10       172.3218  169.9553   53.7647 H         1 EXP         0.0224
     31 H11       169.7320  169.8911   57.0154 H         1 EXP         0.2337
     32 H12       170.0849  174.3809   59.4607 H         1 EXP         0.1772
@<TRIPOS>BOND
     1   10    1 1  
     2    1   11 2  
     3    1   16 1  
     4    2    5 1  
     5   18    2 1  
     6    3    4 ar 
     7    5    3 ar 
     8    4    8 ar 
     9    4   20 1  
    10    5    9 ar 
    11   17    6 1  
    12    7    8 ar 
    13    9    7 ar 
    14   10   12 1  
    15   13   10 am 
    16   14   11 1  
    17   12   14 2  
    18   15   13 1  
    19   13   19 2  
    20   14   18 1  
    21   15   17 2  
    22   16   17 1  
    23    2   21 1  
    24    2   22 1  
    25    3   23 1  
    26    6   24 1  
    27    6   25 1  
    28    6   26 1  
    29    7   27 1  
    30    8   28 1  
    31    9   29 1  
    32   15   30 1  
    33   16   31 1  
    34   18   32 1  
@<TRIPOS>SUBSTRUCTURE
     1 EXP         1

