### 
### Created by X-TOOL on Wed Jan  1 15:39:36 2020
### 

@<TRIPOS>MOLECULE
6ccn_ligand
   43    44     1     0     0
SMALL
GAST_HUCK


@<TRIPOS>ATOM
      1 C1         27.5520   -8.1900   31.4320 C.2       1 EXS         0.1187
      2 C2         26.1730   -7.5790   31.2980 C.3       1 EXS         0.0482
      3 C3         25.2590   -8.1460   32.4140 C.3       1 EXS         0.0481
      4 C14        25.8500  -10.5020   33.0190 C.2       1 EXS         0.2057
      5 C16        25.5900  -12.0040   32.8880 C.3       1 EXS         0.1507
      6 C18        24.7100  -12.5980   34.0470 C.3       1 EXS         0.0314
      7 C19        23.3590  -11.8270   34.1930 C.3       1 EXS        -0.0532
      8 C20        24.3260  -14.0800   33.7440 C.3       1 EXS         0.0538
      9 C21        25.4680  -12.5460   35.4230 C.3       1 EXS        -0.0532
     10 N4         25.0950   -9.6100   32.3180 N.am      1 EXS        -0.2821
     11 C5         31.6870   -9.5860   32.5370 C.ar      1 EXS        -0.0502
     12 C6         31.3620  -10.6010   31.6050 C.ar      1 EXS        -0.0867
     13 C7         30.1150  -10.5900   30.9330 C.ar      1 EXS        -0.0544
     14 C8         29.2140   -9.5430   31.2380 C.ar      1 EXS         0.0703
     15 C9         29.5280   -8.5770   32.1790 C.ar      1 EXS         0.0520
     16 C10        30.7680   -8.5450   32.8230 C.ar      1 EXS         0.0870
     17 N11        28.4570   -7.7500   32.2090 N.2       1 EXS        -0.3209
     18 N12        27.9390   -9.2900   30.8190 N.pl3     1 EXS        -0.2506
     19 O13        31.0370   -7.5530   33.7580 O.3       1 EXS        -0.3372
     20 O15        26.7310  -10.1600   33.7990 O.2       1 EXS        -0.3942
     21 O17        25.0520  -12.3080   31.5830 O.3       1 EXS        -0.3708
     22 O22        25.4780  -14.9220   33.7060 O.3       1 EXS        -0.3942
     23 H1         25.7522   -7.8308   30.3134 H         1 EXS         0.0545
     24 H2         26.2427   -6.4858   31.3984 H         1 EXS         0.0545
     25 H3         24.2688   -7.6737   32.3336 H         1 EXS         0.0551
     26 H4         25.7026   -7.9037   33.3910 H         1 EXS         0.0551
     27 H5         26.5687  -12.5015   32.9565 H         1 EXS         0.0843
     28 H6         22.7712  -12.2690   35.0110 H         1 EXS         0.0238
     29 H7         22.7919  -11.8997   33.2533 H         1 EXS         0.0238
     30 H8         23.5626  -10.7696   34.4176 H         1 EXS         0.0238
     31 H9         23.8179  -14.1254   32.7694 H         1 EXS         0.0565
     32 H10        23.6456  -14.4406   34.5295 H         1 EXS         0.0565
     33 H11        25.7452  -11.5059   35.6498 H         1 EXS         0.0238
     34 H12        26.3766  -13.1632   35.3647 H         1 EXS         0.0238
     35 H13        24.8126  -12.9323   36.2175 H         1 EXS         0.0238
     36 H14        24.3907   -9.9670   31.7044 H         1 EXS         0.1854
     37 H15        32.6485   -9.6050   33.0371 H         1 EXS         0.0425
     38 H16        32.0737  -11.3935   31.4039 H         1 EXS         0.0500
     39 H17        29.8602  -11.3569   30.2105 H         1 EXS         0.0438
     40 H18        27.3875   -9.8501   30.1534 H         1 EXS         0.2312
     41 H19        31.9153   -7.6716   34.1001 H         1 EXS         0.2471
     42 H20        25.6128  -11.9315   30.9149 H         1 EXS         0.2133
     43 H21        25.2106  -15.8144   33.5200 H         1 EXS         0.2094
@<TRIPOS>BOND
     1    1    2 1  
     2    1   17 2  
     3   18    1 1  
     4    2    3 1  
     5    3   10 1  
     6    4    5 1  
     7   10    4 am 
     8    4   20 2  
     9    5    6 1  
    10    5   21 1  
    11    6    7 1  
    12    6    8 1  
    13    6    9 1  
    14    8   22 1  
    15   12   11 ar 
    16   11   16 ar 
    17   13   12 ar 
    18   14   13 ar 
    19   14   15 ar 
    20   14   18 1  
    21   15   16 ar 
    22   15   17 1  
    23   16   19 1  
    24    2   23 1  
    25    2   24 1  
    26    3   25 1  
    27    3   26 1  
    28    5   27 1  
    29    7   28 1  
    30    7   29 1  
    31    7   30 1  
    32    8   31 1  
    33    8   32 1  
    34    9   33 1  
    35    9   34 1  
    36    9   35 1  
    37   10   36 1  
    38   11   37 1  
    39   12   38 1  
    40   13   39 1  
    41   18   40 1  
    42   19   41 1  
    43   21   42 1  
    44   22   43 1  
@<TRIPOS>SUBSTRUCTURE
     1 EXS         1

