### 
### Created by X-TOOL on Wed Jan  1 15:39:36 2020
### 

@<TRIPOS>MOLECULE
6cco_ligand
   41    44     1     0     0
SMALL
GAST_HUCK


@<TRIPOS>ATOM
      1 C1        -32.5740  -39.7830   53.2780 C.ar      1 EXV         0.0035
      2 C2        -31.4800  -40.3190   53.9560 C.ar      1 EXV        -0.0545
      3 C3        -31.5450  -40.5440   55.3260 C.ar      1 EXV        -0.0649
      4 O1        -31.4300  -39.6840   51.1830 O.co2     1 EXV        -0.5607
      5 O2        -32.8560  -33.3420   57.1540 O.3       1 EXV        -0.3368
      6 C11       -35.0010  -38.3380   57.1780 C.3       1 EXV         0.0531
      7 C12       -34.9380  -36.9800   56.5530 C.2       1 EXV         0.1237
      8 C13       -35.4400  -35.2120   55.3720 C.ar      1 EXV         0.0126
      9 C14       -35.9510  -34.2430   54.5050 C.ar      1 EXV        -0.0779
     10 C15       -35.3950  -32.9640   54.5330 C.ar      1 EXV        -0.0889
     11 C16       -34.3610  -32.6590   55.4200 C.ar      1 EXV        -0.0485
     12 C17       -33.8490  -33.6410   56.2730 C.ar      1 EXV         0.1087
     13 C18       -34.3860  -34.9460   56.2510 C.ar      1 EXV         0.1094
     14 C         -32.4690  -39.4620   51.8160 C.2       1 EXV         0.0613
     15 O         -33.5420  -38.9520   51.2600 O.co2     1 EXV        -0.5607
     16 C6        -33.7420  -39.5070   53.9870 C.ar      1 EXV        -0.0458
     17 C5        -33.8200  -39.7310   55.3650 C.ar      1 EXV        -0.0334
     18 C4        -32.7070  -40.2460   56.0260 C.ar      1 EXV        -0.0573
     19 C7        -35.1180  -39.4600   56.1040 C.3       1 EXV         0.0137
     20 C10       -36.2410  -38.5170   58.0830 C.3       1 EXV        -0.0301
     21 C9        -36.6340  -39.9970   57.9420 C.3       1 EXV        -0.0478
     22 C8        -35.6550  -40.6360   56.9440 C.3       1 EXV        -0.0373
     23 N1        -34.0690  -36.0800   56.9860 N.pl3     1 EXV        -0.2485
     24 N         -35.7790  -36.5380   55.5890 N.2       1 EXV        -0.3215
     25 H1        -30.5743  -40.5614   53.4120 H         1 EXV         0.0593
     26 H2        -30.6878  -40.9525   55.8488 H         1 EXV         0.0606
     27 H3        -32.0929  -33.0367   56.6776 H         1 EXV         0.2456
     28 H4        -34.0873  -38.4866   57.7722 H         1 EXV         0.0591
     29 H5        -36.7617  -34.4798   53.8255 H         1 EXV         0.0431
     30 H6        -35.7689  -32.2005   53.8604 H         1 EXV         0.0485
     31 H7        -33.9529  -31.6551   55.4474 H         1 EXV         0.0437
     32 H8        -34.6040  -39.1122   53.4614 H         1 EXV         0.0590
     33 H9        -32.7483  -40.4156   57.0959 H         1 EXV         0.0578
     34 H10       -35.8671  -39.1770   55.3498 H         1 EXV         0.0495
     35 H11       -37.0615  -37.8665   57.7460 H         1 EXV         0.0300
     36 H12       -35.9925  -38.2820   59.1285 H         1 EXV         0.0300
     37 H13       -37.6638  -40.0788   57.5641 H         1 EXV         0.0269
     38 H14       -36.5601  -40.5008   58.9170 H         1 EXV         0.0269
     39 H15       -34.8335  -41.1382   57.4759 H         1 EXV         0.0292
     40 H16       -36.1756  -41.3629   56.3033 H         1 EXV         0.0292
     41 H17       -33.3335  -36.1940   57.6980 H         1 EXV         0.2303
@<TRIPOS>BOND
     1    1    2 ar 
     2    1   14 1  
     3   16    1 ar 
     4    3    2 ar 
     5   18    3 ar 
     6   14    4 ar 
     7   12    5 1  
     8    6    7 1  
     9   19    6 1  
    10    6   20 1  
    11    7   23 1  
    12    7   24 2  
    13    8    9 ar 
    14    8   13 ar 
    15   24    8 1  
    16    9   10 ar 
    17   10   11 ar 
    18   12   11 ar 
    19   13   12 ar 
    20   23   13 1  
    21   14   15 ar 
    22   17   16 ar 
    23   17   18 ar 
    24   17   19 1  
    25   19   22 1  
    26   20   21 1  
    27   21   22 1  
    28    2   25 1  
    29    3   26 1  
    30    5   27 1  
    31    6   28 1  
    32    9   29 1  
    33   10   30 1  
    34   11   31 1  
    35   16   32 1  
    36   18   33 1  
    37   19   34 1  
    38   20   35 1  
    39   20   36 1  
    40   21   37 1  
    41   21   38 1  
    42   22   39 1  
    43   22   40 1  
    44   23   41 1  
@<TRIPOS>SUBSTRUCTURE
     1 EXV         1

