### 
### Created by X-TOOL on Wed Jan  1 15:39:36 2020
### 

@<TRIPOS>MOLECULE
6ccq_ligand
   32    34     1     0     0
SMALL
GAST_HUCK


@<TRIPOS>ATOM
      1 C1         31.4710   -9.4650   32.9040 C.ar      1 EX7        -0.0485
      2 C2         31.3160  -10.4310   31.9180 C.ar      1 EX7        -0.0889
      3 C3         30.1620  -10.4830   31.1510 C.ar      1 EX7        -0.0779
      4 C11        23.4450  -11.6370   32.6910 C.ar      1 EX7        -0.0548
      5 C12        23.9820  -10.8820   33.7160 C.ar      1 EX7         0.0338
      6 C13        24.5110   -9.6260   33.4970 C.ar      1 EX7        -0.0463
      7 C14        29.2500   -8.6260   32.4090 C.ar      1 EX7         0.1094
      8 CL         23.9700  -11.5150   35.3380 Cl        1 EX7        -0.0725
      9 C8         24.5060   -9.0900   32.2120 C.ar      1 EX7        -0.0398
     10 C9         23.9530   -9.8380   31.1740 C.ar      1 EX7        -0.0600
     11 C10        23.4410  -11.1070   31.4090 C.ar      1 EX7        -0.0680
     12 C7         25.0330   -7.6960   31.9800 C.3       1 EX7        -0.0014
     13 C6         26.1320   -7.6030   30.9470 C.3       1 EX7         0.0389
     14 C5         27.4140   -8.2130   31.3880 C.2       1 EX7         0.1203
     15 N1         28.1580   -7.7660   32.3790 N.pl3     1 EX7        -0.2487
     16 C4         29.1430   -9.5750   31.4230 C.ar      1 EX7         0.0126
     17 N          27.9610   -9.2800   30.7650 N.2       1 EX7        -0.3217
     18 C          30.4460   -8.5490   33.1640 C.ar      1 EX7         0.1087
     19 O          30.6180   -7.6270   34.1510 O.3       1 EX7        -0.3368
     20 H1         32.3912   -9.4206   33.4752 H         1 EX7         0.0437
     21 H2         32.1064  -11.1526   31.7461 H         1 EX7         0.0485
     22 H3         30.0560  -11.2141   30.3577 H         1 EX7         0.0431
     23 H4         23.0358  -12.6220   32.8844 H         1 EX7         0.0565
     24 H5         24.9284   -9.0596   34.3216 H         1 EX7         0.0562
     25 H6         23.9223   -9.4245   30.1724 H         1 EX7         0.0558
     26 H7         23.0363  -11.6863   30.5870 H         1 EX7         0.0599
     27 H8         25.4257   -7.3144   32.9340 H         1 EX7         0.0457
     28 H9         24.1963   -7.0635   31.6486 H         1 EX7         0.0457
     29 H10        26.3107   -6.5409   30.7234 H         1 EX7         0.0553
     30 H11        25.7969   -8.1184   30.0348 H         1 EX7         0.0553
     31 H12        27.9724   -6.9605   32.9935 H         1 EX7         0.2302
     32 H13        31.4792   -7.7350   34.5371 H         1 EX7         0.2456
@<TRIPOS>BOND
     1    1    2 ar 
     2   18    1 ar 
     3    3    2 ar 
     4   16    3 ar 
     5    5    4 ar 
     6   11    4 ar 
     7    6    5 ar 
     8    5    8 1  
     9    9    6 ar 
    10   15    7 1  
    11    7   16 ar 
    12    7   18 ar 
    13    9   10 ar 
    14   12    9 1  
    15   10   11 ar 
    16   13   12 1  
    17   14   13 1  
    18   14   15 1  
    19   14   17 2  
    20   16   17 1  
    21   18   19 1  
    22    1   20 1  
    23    2   21 1  
    24    3   22 1  
    25    4   23 1  
    26    6   24 1  
    27   10   25 1  
    28   11   26 1  
    29   12   27 1  
    30   12   28 1  
    31   13   29 1  
    32   13   30 1  
    33   15   31 1  
    34   19   32 1  
@<TRIPOS>SUBSTRUCTURE
     1 EX7         1

