### 
### Created by X-TOOL on Wed Jan  1 15:39:36 2020
### 

@<TRIPOS>MOLECULE
6ccs_ligand
   19    20     1     0     0
SMALL
GAST_HUCK


@<TRIPOS>ATOM
      1 C1         31.5750   -9.6280   32.7910 C.ar      1 EXD        -0.0322
      2 C2         31.3880  -10.5740   31.7910 C.ar      1 EXD        -0.0718
      3 C3         30.1880  -10.6320   31.0960 C.ar      1 EXD        -0.0500
      4 F1         25.1950   -8.5890   32.6290 F         1 EXD        -0.2193
      5 C7         25.8810   -8.1570   31.5730 C.3       1 EXD         0.4191
      6 F2         25.7110   -6.8490   31.5120 F         1 EXD        -0.2193
      7 F          25.3270   -8.6680   30.4810 F         1 EXD        -0.2193
      8 C5         27.3300   -8.5510   31.6800 C.2       1 EXD         0.2111
      9 N1         28.1460   -8.0030   32.5420 N.pl3     1 EXD        -0.2405
     10 C6         29.3200   -8.7340   32.4280 C.ar      1 EXD         0.1425
     11 C4         29.1760   -9.7260   31.4270 C.ar      1 EXD         0.0821
     12 N          27.8820   -9.5930   30.9490 N.2       1 EXD        -0.2444
     13 C          30.5570   -8.7220   33.1040 C.ar      1 EXD         0.1292
     14 O          30.7090   -7.8120   34.1010 O.3       1 EXD        -0.3320
     15 H1         32.5142   -9.5921   33.3310 H         1 EXD         0.0556
     16 H2         32.1835  -11.2706   31.5522 H         1 EXD         0.0543
     17 H3         30.0384  -11.3654   30.3119 H         1 EXD         0.0545
     18 H4         27.9590   -7.2058   33.1669 H         1 EXD         0.2340
     19 H5         31.5763   -7.8995   34.4785 H         1 EXD         0.2463
@<TRIPOS>BOND
     1    2    1 ar 
     2    1   13 ar 
     3    3    2 ar 
     4   11    3 ar 
     5    5    4 1  
     6    5    6 1  
     7    5    7 1  
     8    8    5 1  
     9    9    8 1  
    10    8   12 2  
    11   10    9 1  
    12   10   11 ar 
    13   10   13 ar 
    14   11   12 1  
    15   13   14 1  
    16    1   15 1  
    17    2   16 1  
    18    3   17 1  
    19    9   18 1  
    20   14   19 1  
@<TRIPOS>SUBSTRUCTURE
     1 EXD         1

