### 
### Created by X-TOOL on Mon Aug  2 16:11:55 2021
### 

@<TRIPOS>MOLECULE
6ccx_ligand
   49    52     1     0     0
SMALL
GAST_HUCK


@<TRIPOS>ATOM
      1 CAC        12.8750    7.3150   17.1860 C.3       1 EWS         0.0508
      2 CAD        12.1720    7.5300   15.8370 C.3       1 EWS         0.0152
      3 CAE        14.3110    6.8290   16.9930 C.3       1 EWS         0.0105
      4 CAF        15.0980    7.8920   16.1950 C.3       1 EWS        -0.0311
      5 CAH        13.1400    7.9160   14.7090 C.3       1 EWS        -0.0109
      6 CAI        12.3670    8.6710   13.6060 C.3       1 EWS         0.0243
      7 CAJ        13.1580    8.9810   12.5050 C.ar      1 EWS        -0.0374
      8 CAK        13.3970    7.9980   11.5110 C.ar      1 EWS        -0.0595
      9 CAL        13.7220   10.2800   12.4010 C.ar      1 EWS        -0.0595
     10 CAM        14.5280   10.5980   11.2950 C.ar      1 EWS        -0.0546
     11 CAN        14.7550    9.6170   10.3090 C.ar      1 EWS         0.0330
     12 CAO        14.2020    8.3160   10.4050 C.ar      1 EWS        -0.0546
     13 CAQ        11.6640    3.2510   18.5610 C.ar      1 EWS        -0.0628
     14 CAR        11.1270    1.9530   18.4310 C.ar      1 EWS        -0.0038
     15 CAS        10.1440    1.5010   19.3430 C.ar      1 EWS        -0.0666
     16 CAT         9.7350    2.3710   20.3680 C.ar      1 EWS        -0.0397
     17 CAU        10.2770    3.6050   20.4460 C.ar      1 EWS         0.0716
     18 CAV        11.2260    4.0470   19.5760 C.ar      1 EWS        -0.0051
     19 CAX        10.8180    5.6230   21.0220 C.2       1 EWS         0.0500
     20 CAZ        12.3430    6.1670   19.3250 C.2       1 EWS         0.1791
     21 NAA        12.0830    6.3870   18.0190 N.am      1 EWS        -0.2883
     22 NAG        14.2910    8.6800   15.2470 N.4       1 EWS         0.2307
     23 NAW        10.0530    4.5820   21.3270 N.pl3     1 EWS        -0.2687
     24 OAB        13.2970    6.6800   19.9140 O.2       1 EWS        -0.4025
     25 CBA        11.5320    5.2950   19.9450 C.2       1 EWS         0.0514
     26 CLA        15.7590   10.0010    8.9490 Cl        1 EWS        -0.0771
     27 BRA        11.6860    0.8480   17.0290 Br        1 EWS        -0.0602
     28 H1         12.9185    8.2833   17.7061 H         1 EWS         0.0558
     29 H2         11.4305    8.3342   15.9527 H         1 EWS         0.0344
     30 H3         11.6607    6.5975   15.5559 H         1 EWS         0.0344
     31 H4         14.3076    5.8791   16.4383 H         1 EWS         0.0339
     32 H5         14.7847    6.6789   17.9743 H         1 EWS         0.0339
     33 H6         15.8870    7.3777   15.6267 H         1 EWS         0.0815
     34 H7         15.5572    8.5874   16.9130 H         1 EWS         0.0815
     35 H8         13.5370    6.9911   14.2652 H         1 EWS         0.0875
     36 H9         11.9745    9.6068   14.0305 H         1 EWS         0.0482
     37 H10        11.5300    8.0411   13.2703 H         1 EWS         0.0482
     38 H11        12.9620    7.0095   11.6042 H         1 EWS         0.0557
     39 H12        13.5321   11.0208   13.1692 H         1 EWS         0.0557
     40 H13        14.9690   11.5838   11.2014 H         1 EWS         0.0606
     41 H14        14.3974    7.5771    9.6362 H         1 EWS         0.0606
     42 H15        12.4132    3.6093   17.8643 H         1 EWS         0.0572
     43 H16         9.7172    0.5086   19.2532 H         1 EWS         0.0554
     44 H17         8.9908    2.0541   21.0897 H         1 EWS         0.0553
     45 H18        10.8555    6.5722   21.5546 H         1 EWS         0.1065
     46 H19        11.3193    5.8995   17.5959 H         1 EWS         0.1836
     47 H20        14.8791    8.9622   14.4786 H         1 EWS         0.2018
     48 H21        13.9424    9.4982   15.7215 H         1 EWS         0.2018
     49 H22         9.3929    4.5358   22.1164 H         1 EWS         0.2325
@<TRIPOS>BOND
     1    1    2 1  
     2    1    3 1  
     3   21    1 1  
     4    2    5 1  
     5    3    4 1  
     6    4   22 1  
     7    5    6 1  
     8    5   22 1  
     9    6    7 1  
    10    7    8 ar 
    11    7    9 ar 
    12    8   12 ar 
    13    9   10 ar 
    14   10   11 ar 
    15   12   11 ar 
    16   11   26 1  
    17   13   14 ar 
    18   18   13 ar 
    19   14   15 ar 
    20   14   27 1  
    21   16   15 ar 
    22   17   16 ar 
    23   18   17 ar 
    24   23   17 1  
    25   25   18 1  
    26   19   23 1  
    27   25   19 2  
    28   20   21 am 
    29   20   24 2  
    30   20   25 1  
    31    1   28 1  
    32    2   29 1  
    33    2   30 1  
    34    3   31 1  
    35    3   32 1  
    36    4   33 1  
    37    4   34 1  
    38    5   35 1  
    39    6   36 1  
    40    6   37 1  
    41    8   38 1  
    42    9   39 1  
    43   10   40 1  
    44   12   41 1  
    45   13   42 1  
    46   15   43 1  
    47   16   44 1  
    48   19   45 1  
    49   21   46 1  
    50   22   47 1  
    51   22   48 1  
    52   23   49 1  
@<TRIPOS>SUBSTRUCTURE
     1 EWS         1

