### 
### Created by X-TOOL on Wed Jan  1 15:39:38 2020
### 

@<TRIPOS>MOLECULE
6ccy_ligand
   75    80     1     0     0
SMALL
GAST_HUCK


@<TRIPOS>ATOM
      1 C7         -8.6400   19.3770  -32.1760 C.2       1 EX4         0.0443
      2 C6         -8.1750   18.0660  -32.2130 C.2       1 EX4         0.0174
      3 C1        -13.5220   16.7800  -34.3690 C.3       1 EX4         0.0323
      4 N1         -9.2350   17.1720  -32.3230 N.2       1 EX4        -0.3279
      5 C5        -10.3560   17.9110  -32.3730 C.2       1 EX4         0.1208
      6 C4        -11.7360   17.3460  -32.6000 C.3       1 EX4         0.0398
      7 C3        -11.8950   15.9140  -32.0370 C.3       1 EX4        -0.0139
      8 C2        -13.2770   15.3250  -32.3420 C.3       1 EX4         0.0323
      9 O         -15.0390    9.0640  -33.2360 O.2       1 EX4        -0.3821
     10 C28       -14.9170   10.2590  -33.3710 C.2       1 EX4         0.2105
     11 N6        -15.7700   10.9330  -34.3130 N.am      1 EX4        -0.2177
     12 C23       -15.5410   12.2920  -34.6600 C.ar      1 EX4         0.1443
     13 N5        -16.5530   12.8790  -35.3320 N.ar      1 EX4        -0.2767
     14 C22       -16.4650   14.2080  -35.5570 C.ar      1 EX4         0.0465
     15 N4        -15.4690   15.0120  -35.1580 N.ar      1 EX4        -0.2808
     16 C27       -13.8420   11.0710  -32.6480 C.3       1 EX4         0.0540
     17 C25       -13.2740   12.2060  -33.5200 C.3       1 EX4         0.0090
     18 C26       -12.3920   11.5840  -34.6310 C.3       1 EX4        -0.0529
     19 C24       -14.4020   13.0020  -34.1830 C.ar      1 EX4         0.0495
     20 C21       -14.4430   14.4350  -34.4410 C.ar      1 EX4         0.1155
     21 N         -13.4650   15.3460  -33.8680 N.pl3     1 EX4        -0.2948
     22 C         -12.1310   17.4310  -34.0950 C.3       1 EX4        -0.0139
     23 N2        -10.0380   19.2860  -32.2590 N.pl3     1 EX4        -0.2388
     24 C8        -10.9080   20.4340  -32.1310 C.3       1 EX4         0.0988
     25 C9        -10.5910   21.2280  -30.8510 C.3       1 EX4        -0.0032
     26 N3        -11.1430   20.5610  -29.6350 N.4       1 EX4         0.2372
     27 C13       -10.3440   19.4050  -29.0900 C.3       1 EX4        -0.0316
     28 C12       -10.5250   19.4210  -27.5660 C.3       1 EX4        -0.0077
     29 C11       -10.6870   20.9090  -27.2390 C.3       1 EX4        -0.0077
     30 C10       -11.2610   21.5590  -28.5240 C.3       1 EX4        -0.0316
     31 C14        -6.8130   17.5940  -32.1680 C.ar      1 EX4        -0.0060
     32 C19        -5.8260   18.2580  -31.3980 C.ar      1 EX4        -0.0339
     33 C18        -4.5420   17.7130  -31.2990 C.ar      1 EX4         0.0003
     34 C17        -4.2570   16.5050  -31.9730 C.ar      1 EX4         0.1661
     35 F          -3.0480   15.9800  -31.8810 F         1 EX4        -0.1571
     36 C16        -5.2440   15.8480  -32.7390 C.ar      1 EX4         0.0764
     37 C15        -6.5140   16.4150  -32.8480 C.ar      1 EX4        -0.0339
     38 C20        -4.9840   14.5030  -33.3740 C.3       1 EX4         0.3733
     39 F1         -3.7280   14.3140  -33.7620 F         1 EX4        -0.2248
     40 F2         -5.2600   13.4730  -32.5350 F         1 EX4        -0.2248
     41 F3         -5.7050   14.2630  -34.4750 F         1 EX4        -0.2248
     42 H1         -8.0433   20.2847  -32.0987 H         1 EX4         0.0867
     43 H2        -14.3072   17.3336  -33.8333 H         1 EX4         0.0522
     44 H3        -13.7358   16.7922  -35.4479 H         1 EX4         0.0522
     45 H4        -12.4387   17.9841  -32.0441 H         1 EX4         0.0538
     46 H5        -11.7550   15.9440  -30.9464 H         1 EX4         0.0315
     47 H6        -11.1269   15.2683  -32.4876 H         1 EX4         0.0315
     48 H7        -14.0579   15.9312  -31.8596 H         1 EX4         0.0522
     49 H8        -13.3342   14.2909  -31.9713 H         1 EX4         0.0522
     50 H9        -16.5336   10.4391  -34.7289 H         1 EX4         0.2323
     51 H10       -17.2751   14.6673  -36.1118 H         1 EX4         0.0975
     52 H11       -13.0196   10.3966  -32.3673 H         1 EX4         0.0530
     53 H12       -14.2822   11.5100  -31.7405 H         1 EX4         0.0530
     54 H13       -12.6691   12.8794  -32.8951 H         1 EX4         0.0447
     55 H14       -11.9790   12.3845  -35.2625 H         1 EX4         0.0252
     56 H15       -13.0021   10.9081  -35.2482 H         1 EX4         0.0252
     57 H16       -11.5684   11.0178  -34.1715 H         1 EX4         0.0252
     58 H17       -12.1691   18.4892  -34.3927 H         1 EX4         0.0315
     59 H18       -11.3702   16.9088  -34.6937 H         1 EX4         0.0315
     60 H19       -11.9524   20.0910  -32.0918 H         1 EX4         0.0675
     61 H20       -10.7697   21.0890  -33.0038 H         1 EX4         0.0675
     62 H21       -11.0308   22.2326  -30.9368 H         1 EX4         0.0843
     63 H22        -9.4994   21.3133  -30.7459 H         1 EX4         0.0843
     64 H23       -12.0609   20.2183  -29.8719 H         1 EX4         0.2034
     65 H24        -9.2811   19.5249  -29.3464 H         1 EX4         0.0814
     66 H25       -10.7169   18.4573  -29.5058 H         1 EX4         0.0814
     67 H26        -9.6423   19.0016  -27.0611 H         1 EX4         0.0319
     68 H27       -11.4202   18.8541  -27.2707 H         1 EX4         0.0319
     69 H28        -9.7137   21.3545  -26.9854 H         1 EX4         0.0319
     70 H29       -11.3823   21.0436  -26.3973 H         1 EX4         0.0319
     71 H30       -12.3175   21.8235  -28.3695 H         1 EX4         0.0814
     72 H31       -10.6887   22.4649  -28.7726 H         1 EX4         0.0814
     73 H32        -6.0652   19.1842  -30.8880 H         1 EX4         0.0817
     74 H33        -3.7769   18.2102  -30.7138 H         1 EX4         0.0677
     75 H34        -7.2690   15.9379  -33.4623 H         1 EX4         0.0776
@<TRIPOS>BOND
     1    1    2 2  
     2   23    1 1  
     3    4    2 1  
     4    2   31 1  
     5   21    3 1  
     6    3   22 1  
     7    5    4 2  
     8    6    5 1  
     9    5   23 1  
    10    7    6 1  
    11   22    6 1  
    12    8    7 1  
    13   21    8 1  
    14   10    9 2  
    15   11   10 am 
    16   16   10 1  
    17   12   11 1  
    18   12   13 ar 
    19   19   12 ar 
    20   14   13 ar 
    21   15   14 ar 
    22   20   15 ar 
    23   17   16 1  
    24   17   18 1  
    25   19   17 1  
    26   20   19 ar 
    27   20   21 1  
    28   23   24 1  
    29   24   25 1  
    30   25   26 1  
    31   26   27 1  
    32   26   30 1  
    33   27   28 1  
    34   28   29 1  
    35   29   30 1  
    36   31   32 ar 
    37   31   37 ar 
    38   32   33 ar 
    39   33   34 ar 
    40   34   35 1  
    41   34   36 ar 
    42   36   37 ar 
    43   36   38 1  
    44   38   39 1  
    45   38   40 1  
    46   38   41 1  
    47    1   42 1  
    48    3   43 1  
    49    3   44 1  
    50    6   45 1  
    51    7   46 1  
    52    7   47 1  
    53    8   48 1  
    54    8   49 1  
    55   11   50 1  
    56   14   51 1  
    57   16   52 1  
    58   16   53 1  
    59   17   54 1  
    60   18   55 1  
    61   18   56 1  
    62   18   57 1  
    63   22   58 1  
    64   22   59 1  
    65   24   60 1  
    66   24   61 1  
    67   25   62 1  
    68   25   63 1  
    69   26   64 1  
    70   27   65 1  
    71   27   66 1  
    72   28   67 1  
    73   28   68 1  
    74   29   69 1  
    75   29   70 1  
    76   30   71 1  
    77   30   72 1  
    78   32   73 1  
    79   33   74 1  
    80   37   75 1  
@<TRIPOS>SUBSTRUCTURE
     1 EX4         1

