### 
### Created by X-TOOL on Wed Jan  1 15:39:35 2020
### 

@<TRIPOS>MOLECULE
6cd4_ligand
   88    93     1     0     0
SMALL
GAST_HUCK


@<TRIPOS>ATOM
      1 C          15.7390   -4.2550    0.1790 C.3       1 EX1        -0.0167
      2 C1         17.2150   -4.5240    0.4530 C.3       1 EX1         0.0107
      3 C2         18.0990   -4.0620   -0.7000 C.3       1 EX1         0.0382
      4 C14        16.9820   -7.7450   -6.0310 C.ar      1 EX1         0.0980
      5 N1         13.8310  -13.0300   -7.8740 N.am      1 EX1        -0.2228
      6 C15        17.2650   -8.4510   -4.8670 C.ar      1 EX1        -0.0406
      7 C16        17.7220   -7.7670   -3.7370 C.ar      1 EX1        -0.0628
      8 C17        15.9100   -9.4840   -7.2710 C.ar      1 EX1         0.1790
      9 C18        14.4960  -10.8470   -8.5690 C.ar      1 EX1         0.0207
     10 C19        14.5700  -11.8610   -7.6300 C.ar      1 EX1         0.1307
     11 C20        15.3660  -11.5820   -6.4090 C.ar      1 EX1         0.1650
     12 C21        16.1100  -13.7240   -5.7900 C.ar      1 EX1         0.0859
     13 C22        17.3140  -14.1120   -5.2250 C.ar      1 EX1        -0.0325
     14 N2         15.5550  -12.5090   -5.3960 N.pl3     1 EX1        -0.2386
     15 O2         16.8490   -5.5860   -7.1630 O.3       1 EX1        -0.3244
     16 C3         16.2840   -4.3800   -2.2950 C.3       1 EX1         0.0382
     17 C13        17.1450   -6.2780   -6.0220 C.ar      1 EX1         0.1199
     18 C4         15.3470   -4.8280   -1.1790 C.3       1 EX1         0.0107
     19 C5         16.3390   -4.2580   -7.0910 C.3       1 EX1         0.0570
     20 C6         18.3770   -5.6880   -2.4930 C.2       1 EX1         0.1959
     21 O1         13.4720  -15.1930   -7.7900 O.2       1 EX1        -0.3767
     22 C11        17.8840   -6.3790   -3.7370 C.ar      1 EX1         0.0287
     23 C12        17.6030   -5.6380   -4.8800 C.ar      1 EX1        -0.0230
     24 C23        17.9180  -15.3010   -5.6080 C.ar      1 EX1        -0.0674
     25 C24        17.3390  -16.1150   -6.5750 C.ar      1 EX1        -0.0679
     26 C25        16.1420  -15.7600   -7.1830 C.ar      1 EX1        -0.0510
     27 C26        15.5030  -14.5770   -6.8410 C.ar      1 EX1         0.0789
     28 C27        14.2100  -14.2570   -7.5290 C.2       1 EX1         0.2275
     29 C28        12.5560  -12.7990   -8.5390 C.3       1 EX1         0.0413
     30 C29        15.3420  -12.1630   -3.9950 C.3       1 EX1         0.0539
     31 C30        15.2710   -4.3940    2.5540 C.3       1 EX1         0.0097
     32 C31        14.2940  -11.0660   -3.8590 C.3       1 EX1        -0.0381
     33 C32        14.9800  -13.3980   -3.1820 C.3       1 EX1        -0.0381
     34 C33        14.4350   -5.1250    3.6000 C.3       1 EX1         0.0092
     35 C35        12.6360   -5.3140    2.0110 C.3       1 EX1         0.0092
     36 C36        13.4890   -4.5900    0.9760 C.3       1 EX1         0.0097
     37 C37        12.2080   -5.6190    4.3490 C.3       1 EX1        -0.0427
     38 N3         16.0110  -10.4060   -6.2970 N.ar      1 EX1        -0.2472
     39 N4         15.1560   -9.7040   -8.3700 N.ar      1 EX1        -0.2872
     40 N5         16.4880   -8.2720   -7.1750 N.pl3     1 EX1        -0.2525
     41 N6         17.6260   -4.7680   -1.8810 N.am      1 EX1        -0.2739
     42 N7         14.9070   -4.8820    1.2180 N.4       1 EX1         0.2449
     43 N8         13.0050   -4.8770    3.3650 N.4       1 EX1         0.2405
     44 O3         19.4710   -5.9930   -2.0480 O.2       1 EX1        -0.3902
     45 H1         15.5651   -3.1688    0.1802 H         1 EX1         0.0852
     46 H2         17.3585   -5.6046    0.6006 H         1 EX1         0.0339
     47 H3         17.5112   -3.9867    1.3660 H         1 EX1         0.0339
     48 H4         19.1505   -4.3153   -0.4998 H         1 EX1         0.0523
     49 H5         18.0042   -2.9753   -0.8417 H         1 EX1         0.0523
     50 H6         17.1319   -9.5264   -4.8361 H         1 EX1         0.0514
     51 H7         17.9565   -8.3268   -2.8388 H         1 EX1         0.0548
     52 H8         13.9022  -10.9810   -9.4659 H         1 EX1         0.0700
     53 H9         17.7869  -13.4831   -4.4794 H         1 EX1         0.0545
     54 H10        16.2261   -3.2894   -2.4264 H         1 EX1         0.0523
     55 H11        16.0176   -4.8777   -3.2391 H         1 EX1         0.0523
     56 H12        14.3266   -4.4958   -1.4207 H         1 EX1         0.0339
     57 H13        15.3704   -5.9261   -1.1185 H         1 EX1         0.0339
     58 H14        16.1657   -3.8762   -8.1079 H         1 EX1         0.0573
     59 H15        17.0665   -3.6132   -6.5763 H         1 EX1         0.0573
     60 H16        15.3909   -4.2590   -6.5333 H         1 EX1         0.0573
     61 H17        17.7416   -4.5629   -4.8783 H         1 EX1         0.0553
     62 H18        18.8530  -15.5990   -5.1475 H         1 EX1         0.0622
     63 H19        17.8287  -17.0396   -6.8583 H         1 EX1         0.0529
     64 H20        15.7038  -16.4118   -7.9301 H         1 EX1         0.0638
     65 H21        12.4349  -11.7236   -8.7362 H         1 EX1         0.0542
     66 H22        11.7369  -13.1478   -7.8929 H         1 EX1         0.0542
     67 H23        12.5332  -13.3510   -9.4902 H         1 EX1         0.0542
     68 H24        16.2892  -11.7690   -3.5980 H         1 EX1         0.0602
     69 H25        16.3387   -4.5851    2.7372 H         1 EX1         0.0868
     70 H26        15.0759   -3.3133    2.6167 H         1 EX1         0.0868
     71 H27        14.1524  -10.8241   -2.7953 H         1 EX1         0.0256
     72 H28        13.3417  -11.4137   -4.2859 H         1 EX1         0.0256
     73 H29        14.6311  -10.1680   -4.3975 H         1 EX1         0.0256
     74 H30        14.8245  -13.1125   -2.1311 H         1 EX1         0.0256
     75 H31        15.7973  -14.1314   -3.2456 H         1 EX1         0.0256
     76 H32        14.0566  -13.8424   -3.5817 H         1 EX1         0.0256
     77 H33        14.7075   -4.7625    4.6022 H         1 EX1         0.0868
     78 H34        14.6328   -6.2051    3.5344 H         1 EX1         0.0868
     79 H35        12.7982   -6.3983    1.9219 H         1 EX1         0.0868
     80 H36        11.5749   -5.0860    1.8317 H         1 EX1         0.0868
     81 H37        13.3195   -3.5060    1.0549 H         1 EX1         0.0868
     82 H38        13.2113   -4.9322   -0.0319 H         1 EX1         0.0868
     83 H39        12.4823   -5.2937    5.3634 H         1 EX1         0.0778
     84 H40        12.4052   -6.6960    4.2435 H         1 EX1         0.0778
     85 H41        11.1392   -5.4234    4.1778 H         1 EX1         0.0778
     86 H42        16.5592   -7.7061   -8.0327 H         1 EX1         0.2125
     87 H43        15.0483   -5.8795    1.1852 H         1 EX1         0.2040
     88 H44        12.8189   -3.8908    3.4592 H         1 EX1         0.2035
@<TRIPOS>BOND
     1    1    2 1  
     2    1   18 1  
     3   42    1 1  
     4    2    3 1  
     5    3   41 1  
     6    6    4 ar 
     7   17    4 ar 
     8    4   40 1  
     9   10    5 1  
    10    5   28 am 
    11    5   29 1  
    12    7    6 ar 
    13   22    7 ar 
    14    8   38 ar 
    15    8   39 ar 
    16   40    8 1  
    17    9   10 ar 
    18   39    9 ar 
    19   11   10 ar 
    20   11   14 1  
    21   38   11 ar 
    22   12   13 ar 
    23   14   12 1  
    24   12   27 ar 
    25   13   24 ar 
    26   14   30 1  
    27   17   15 1  
    28   15   19 1  
    29   18   16 1  
    30   16   41 1  
    31   23   17 ar 
    32   20   22 1  
    33   41   20 am 
    34   20   44 2  
    35   28   21 2  
    36   22   23 ar 
    37   24   25 ar 
    38   26   25 ar 
    39   27   26 ar 
    40   28   27 1  
    41   30   32 1  
    42   30   33 1  
    43   34   31 1  
    44   31   42 1  
    45   43   34 1  
    46   35   36 1  
    47   35   43 1  
    48   36   42 1  
    49   43   37 1  
    50    1   45 1  
    51    2   46 1  
    52    2   47 1  
    53    3   48 1  
    54    3   49 1  
    55    6   50 1  
    56    7   51 1  
    57    9   52 1  
    58   13   53 1  
    59   16   54 1  
    60   16   55 1  
    61   18   56 1  
    62   18   57 1  
    63   19   58 1  
    64   19   59 1  
    65   19   60 1  
    66   23   61 1  
    67   24   62 1  
    68   25   63 1  
    69   26   64 1  
    70   29   65 1  
    71   29   66 1  
    72   29   67 1  
    73   30   68 1  
    74   31   69 1  
    75   31   70 1  
    76   32   71 1  
    77   32   72 1  
    78   32   73 1  
    79   33   74 1  
    80   33   75 1  
    81   33   76 1  
    82   34   77 1  
    83   34   78 1  
    84   35   79 1  
    85   35   80 1  
    86   36   81 1  
    87   36   82 1  
    88   37   83 1  
    89   37   84 1  
    90   37   85 1  
    91   40   86 1  
    92   42   87 1  
    93   43   88 1  
@<TRIPOS>SUBSTRUCTURE
     1 EX1         1

