### 
### Created by X-TOOL on Mon Aug  2 16:12:47 2021
### 

@<TRIPOS>MOLECULE
6cd5_ligand
   92    98     1     0     0
SMALL
GAST_HUCK


@<TRIPOS>ATOM
      1 CAP         5.6750    7.4770    0.6440 C.3       1 R4L        -0.0258
      2 CAN         4.5020    6.6220    1.1140 C.3       1 R4L        -0.0505
      3 CAO         3.6340    6.3230   -0.1070 C.3       1 R4L        -0.0505
      4 CAQ         4.3140    6.9630   -1.3110 C.3       1 R4L        -0.0258
      5 CBO         5.2730    7.9890   -0.7290 C.3       1 R4L         0.0596
      6 NBT         6.4400    8.1400   -1.5890 N.pl3     1 R4L        -0.2380
      7 CBK         7.6580    8.6000   -1.1030 C.ar      1 R4L         0.0860
      8 CAK         7.6440    9.7310   -0.3030 C.ar      1 R4L        -0.0325
      9 CAG         8.8300   10.2580    0.1860 C.ar      1 R4L        -0.0674
     10 CAF        10.0510    9.6800   -0.1330 C.ar      1 R4L        -0.0679
     11 CAJ        10.1170    8.5580   -0.9480 C.ar      1 R4L        -0.0510
     12 CBJ         8.9630    7.9920   -1.4720 C.ar      1 R4L         0.0789
     13 CBI         9.1280    6.7730   -2.3320 C.2       1 R4L         0.2275
     14 OAE        10.1030    6.0790   -2.0940 O.2       1 R4L        -0.3767
     15 NBS         8.3020    6.4150   -3.3170 N.am      1 R4L        -0.2228
     16 CAC         8.4350    5.1300   -3.9860 C.3       1 R4L         0.0413
     17 C5          7.2700    7.2280   -3.8050 C.ar      1 R4L         0.1307
     18 C6          7.0510    7.2580   -5.1750 C.ar      1 R4L         0.0207
     19 N1          6.0700    8.0100   -5.6850 N.ar      1 R4L        -0.2872
     20 C4          6.3440    8.0310   -2.9690 C.ar      1 R4L         0.1650
     21 N3          5.3960    8.7700   -3.5700 N.ar      1 R4L        -0.2472
     22 C2          5.2480    8.7490   -4.9060 C.ar      1 R4L         0.1790
     23 NBB         4.2860    9.4940   -5.4910 N.pl3     1 R4L        -0.2525
     24 CBF         3.0600    9.7440   -4.9740 C.ar      1 R4L         0.0980
     25 CBH         1.9530    9.9560   -5.9300 C.ar      1 R4L         0.1199
     26 CAM         0.6730   10.2240   -5.4590 C.ar      1 R4L        -0.0230
     27 OBC         2.2240    9.8750   -7.2680 O.3       1 R4L        -0.3244
     28 CAA         1.1960   10.0950   -8.2290 C.3       1 R4L         0.0570
     29 CAI         2.7900    9.8340   -3.6130 C.ar      1 R4L        -0.0406
     30 CAH         1.4870   10.1060   -3.1850 C.ar      1 R4L        -0.0628
     31 CBE         0.4370   10.2970   -4.0880 C.ar      1 R4L         0.0287
     32 CBD        -0.9580   10.5900   -3.5960 C.2       1 R4L         0.1959
     33 OAD        -1.1180   11.4490   -2.7460 O.2       1 R4L        -0.3902
     34 NBQ        -1.9930    9.9200   -4.1080 N.am      1 R4L        -0.2739
     35 CAU        -3.3740   10.2530   -3.7740 C.3       1 R4L         0.0382
     36 CAS        -4.0180    9.0050   -3.1800 C.3       1 R4L         0.0107
     37 CAT        -1.8220    8.8320   -5.0630 C.3       1 R4L         0.0382
     38 CAR        -2.4810    7.5890   -4.4730 C.3       1 R4L         0.0107
     39 CBN        -3.9500    7.8320   -4.1480 C.3       1 R4L        -0.0167
     40 NBR        -4.5300    6.6340   -3.5180 N.4       1 R4L         0.2449
     41 CAX        -4.2110    5.4370   -4.3070 C.3       1 R4L         0.0097
     42 CAV        -4.7880    4.2020   -3.6250 C.3       1 R4L         0.0092
     43 NBP        -6.2470    4.3290   -3.5090 N.4       1 R4L         0.2405
     44 CAB        -6.7890    3.1550   -2.8120 C.3       1 R4L        -0.0427
     45 CAW        -6.5820    5.5430   -2.7490 C.3       1 R4L         0.0092
     46 CAY        -5.9910    6.7720   -3.4330 C.3       1 R4L         0.0097
     47 H1          6.5907    6.8712    0.5764 H         1 R4L         0.0291
     48 H2          5.8410    8.3167    1.3349 H         1 R4L         0.0291
     49 H3          3.9157    7.1696    1.8666 H         1 R4L         0.0266
     50 H4          4.8728    5.6828    1.5503 H         1 R4L         0.0266
     51 H5          2.6301    6.7510    0.0304 H         1 R4L         0.0266
     52 H6          3.5522    5.2360   -0.2542 H         1 R4L         0.0266
     53 H7          3.5715    7.4528   -1.9581 H         1 R4L         0.0291
     54 H8          4.8636    6.2068   -1.8907 H         1 R4L         0.0291
     55 H9          4.7688    8.9618   -0.6324 H         1 R4L         0.0608
     56 H10         6.7012   10.2065   -0.0580 H         1 R4L         0.0545
     57 H11         8.8031   11.1327    0.8257 H         1 R4L         0.0622
     58 H12        10.9652   10.1104    0.2595 H         1 R4L         0.0529
     59 H13        11.0810    8.1188   -1.1778 H         1 R4L         0.0638
     60 H14         9.2660    4.5668   -3.5363 H         1 R4L         0.0542
     61 H15         8.6381    5.2923   -5.0548 H         1 R4L         0.0542
     62 H16         7.5015    4.5592   -3.8727 H         1 R4L         0.0542
     63 H17         7.6780    6.6692   -5.8347 H         1 R4L         0.0700
     64 H18         4.5034    9.9075   -6.4090 H         1 R4L         0.2125
     65 H19        -0.1413   10.3761   -6.1582 H         1 R4L         0.0553
     66 H20         1.6114    9.9859   -9.2417 H         1 R4L         0.0573
     67 H21         0.7906   11.1102   -8.1064 H         1 R4L         0.0573
     68 H22         0.3922    9.3588   -8.0811 H         1 R4L         0.0573
     69 H23         3.5843    9.6942   -2.8887 H         1 R4L         0.0514
     70 H24         1.2851   10.1707   -2.1219 H         1 R4L         0.0548
     71 H25        -3.9159   10.5593   -4.6809 H         1 R4L         0.0523
     72 H26        -3.3955   11.0718   -3.0398 H         1 R4L         0.0523
     73 H27        -5.0723    9.2202   -2.9517 H         1 R4L         0.0339
     74 H28        -3.4897    8.7358   -2.2535 H         1 R4L         0.0339
     75 H29        -0.7510    8.6447   -5.2298 H         1 R4L         0.0523
     76 H30        -2.3017    9.0928   -6.0179 H         1 R4L         0.0523
     77 H31        -1.9529    7.3095   -3.5495 H         1 R4L         0.0339
     78 H32        -2.4078    6.7671   -5.2004 H         1 R4L         0.0339
     79 H33        -4.5045    8.0695   -5.0678 H         1 R4L         0.0852
     80 H34        -4.1492    6.5324   -2.5903 H         1 R4L         0.2040
     81 H35        -3.1189    5.3330   -4.3880 H         1 R4L         0.0868
     82 H36        -4.6456    5.5356   -5.3127 H         1 R4L         0.0868
     83 H37        -4.3499    4.1019   -2.6210 H         1 R4L         0.0868
     84 H38        -4.5461    3.3098   -4.2213 H         1 R4L         0.0868
     85 H39        -6.6514    4.3886   -4.4304 H         1 R4L         0.2035
     86 H40        -7.8814    3.2516   -2.7260 H         1 R4L         0.0778
     87 H41        -6.3466    3.0885   -1.8071 H         1 R4L         0.0778
     88 H42        -6.5451    2.2458   -3.3810 H         1 R4L         0.0778
     89 H43        -6.1709    5.4602   -1.7321 H         1 R4L         0.0868
     90 H44        -7.6757    5.6478   -2.6951 H         1 R4L         0.0868
     91 H45        -6.4096    6.8639   -4.4460 H         1 R4L         0.0868
     92 H46        -6.2406    7.6708   -2.8501 H         1 R4L         0.0868
@<TRIPOS>BOND
     1    1    2 1  
     2    1    5 1  
     3    2    3 1  
     4    3    4 1  
     5    4    5 1  
     6    5    6 1  
     7    6    7 1  
     8    6   20 1  
     9    7    8 ar 
    10    7   12 ar 
    11    8    9 ar 
    12    9   10 ar 
    13   10   11 ar 
    14   11   12 ar 
    15   12   13 1  
    16   13   14 2  
    17   13   15 am 
    18   15   16 1  
    19   15   17 1  
    20   17   18 ar 
    21   17   20 ar 
    22   18   19 ar 
    23   19   22 ar 
    24   20   21 ar 
    25   21   22 ar 
    26   22   23 1  
    27   23   24 1  
    28   24   25 ar 
    29   24   29 ar 
    30   25   26 ar 
    31   25   27 1  
    32   26   31 ar 
    33   27   28 1  
    34   29   30 ar 
    35   30   31 ar 
    36   31   32 1  
    37   32   33 2  
    38   32   34 am 
    39   34   35 1  
    40   34   37 1  
    41   35   36 1  
    42   36   39 1  
    43   37   38 1  
    44   38   39 1  
    45   39   40 1  
    46   40   41 1  
    47   40   46 1  
    48   41   42 1  
    49   42   43 1  
    50   43   44 1  
    51   43   45 1  
    52   45   46 1  
    53    1   47 1  
    54    1   48 1  
    55    2   49 1  
    56    2   50 1  
    57    3   51 1  
    58    3   52 1  
    59    4   53 1  
    60    4   54 1  
    61    5   55 1  
    62    8   56 1  
    63    9   57 1  
    64   10   58 1  
    65   11   59 1  
    66   16   60 1  
    67   16   61 1  
    68   16   62 1  
    69   18   63 1  
    70   23   64 1  
    71   26   65 1  
    72   28   66 1  
    73   28   67 1  
    74   28   68 1  
    75   29   69 1  
    76   30   70 1  
    77   35   71 1  
    78   35   72 1  
    79   36   73 1  
    80   36   74 1  
    81   37   75 1  
    82   37   76 1  
    83   38   77 1  
    84   38   78 1  
    85   39   79 1  
    86   40   80 1  
    87   41   81 1  
    88   41   82 1  
    89   42   83 1  
    90   42   84 1  
    91   43   85 1  
    92   44   86 1  
    93   44   87 1  
    94   44   88 1  
    95   45   89 1  
    96   45   90 1  
    97   46   91 1  
    98   46   92 1  
@<TRIPOS>SUBSTRUCTURE
     1 R4L         1

