### 
### Created by X-TOOL on Wed Jan  1 15:39:34 2020
### 

@<TRIPOS>MOLECULE
6cdj_ligand
   91    97     1     0     0
SMALL
GAST_HUCK


@<TRIPOS>ATOM
      1 S51        11.7240   16.8090   18.1670 S.3       1 GR8         0.0286
      2 N52        11.2370   17.4570   20.5660 N.2       1 GR8        -0.3074
      3 C53        10.7790   16.6640   19.6430 C.2       1 GR8         0.1855
      4 N54         9.7550   15.8700   19.7610 N.pl3     1 GR8        -0.2764
      5 C55         9.3710   14.9640   18.6860 C.3       1 GR8         0.0463
      6 C56         7.8540   14.9210   18.5500 C.3       1 GR8        -0.0267
      7 C57         8.6840   15.6090   17.5010 C.3       1 GR8        -0.0267
      8 C2         12.2900   18.1840   20.2310 C.ar      1 GR8         0.0105
      9 C3         12.7800   17.9700   18.9480 C.ar      1 GR8         0.0513
     10 C4         13.8650   18.5970   18.4610 C.ar      1 GR8        -0.0265
     11 C5         14.5120   19.5320   19.2620 C.ar      1 GR8         0.0957
     12 C6         14.0720   19.7700   20.5600 C.ar      1 GR8        -0.0490
     13 C7         12.9880   19.0300   21.0280 C.ar      1 GR8        -0.0614
     14 S8         15.8410   20.4560   18.5900 S.o2      1 GR8         0.0658
     15 O9         16.7030   20.8950   19.6740 O.2       1 GR8        -0.1512
     16 O10        16.4590   19.6520   17.5150 O.2       1 GR8        -0.1512
     17 N11        15.2620   21.8160   17.8740 N.am      1 GR8        -0.2322
     18 C12        14.3010   21.6270   16.8040 C.3       1 GR8         0.0319
     19 C13        14.4630   22.6620   15.6710 C.3       1 GR8        -0.0296
     20 C14        15.8750   22.4990   15.0920 C.3       1 GR8        -0.0612
     21 C15        13.4000   22.3750   14.6090 C.3       1 GR8        -0.0612
     22 C16        15.0280   22.9500   18.7510 C.3       1 GR8         0.0578
     23 C17        15.9390   24.1320   18.4070 C.3       1 GR8         0.0967
     24 O18        15.4960   25.3170   19.0710 O.3       1 GR8        -0.3877
     25 C19        17.4020   23.8650   18.6860 C.3       1 GR8         0.0806
     26 N20        18.2400   24.8090   17.9210 N.am      1 GR8        -0.2550
     27 C21        19.2350   24.3790   17.1450 C.2       1 GR8         0.3202
     28 O22        19.3540   23.1970   16.7740 O.2       1 GR8        -0.3775
     29 O23        20.0330   25.3430   16.6640 O.3       1 GR8        -0.2603
     30 C24        21.2480   24.8980   16.0630 C.3       1 GR8         0.0918
     31 C25        21.8230   25.9370   15.1380 C.3       1 GR8        -0.0006
     32 C26        22.6180   26.8990   15.9770 C.3       1 GR8         0.0207
     33 C27        22.0110   28.2270   16.2810 C.3       1 GR8         0.1626
     34 O28        21.2730   28.0380   17.5060 O.3       1 GR8        -0.3507
     35 C29        21.9520   27.0760   18.3030 C.3       1 GR8         0.0540
     36 C30        22.7580   26.2370   17.3360 C.3       1 GR8        -0.0070
     37 C31        22.3290   24.7970   17.1340 C.3       1 GR8        -0.0167
     38 C41        20.8450   26.6220   14.1860 C.3       1 GR8        -0.0234
     39 C42        20.1460   27.7610   14.9000 C.3       1 GR8         0.0510
     40 O43        21.1420   28.7520   15.2720 O.3       1 GR8        -0.3510
     41 C32        17.7430   23.9010   20.1650 C.3       1 GR8         0.0046
     42 C33        20.0880   24.6310   20.8110 C.ar      1 GR8        -0.0310
     43 C34        21.4600   24.3790   20.8820 C.ar      1 GR8         0.1242
     44 C35        21.9660   23.0900   20.7650 C.ar      1 GR8        -0.0019
     45 C36        21.0450   22.1300   20.3880 C.ar      1 GR8         0.1242
     46 C37        19.6990   22.3770   20.2510 C.ar      1 GR8        -0.0310
     47 C38        19.2010   23.6440   20.4500 C.ar      1 GR8        -0.0445
     48 F61        22.3290   25.3660   21.2100 F         1 GR8        -0.1863
     49 F62        21.5190   20.8860   20.1530 F         1 GR8        -0.1863
     50 H1          9.2047   15.8820   20.6316 H         1 GR8         0.1935
     51 H2         10.0303   14.0891   18.5868 H         1 GR8         0.0569
     52 H3          7.2239   15.5141   19.2291 H         1 GR8         0.0289
     53 H4          7.3494   13.9718   18.3168 H         1 GR8         0.0289
     54 H5          8.7828   15.1628   16.5004 H         1 GR8         0.0289
     55 H6          8.6573   16.7051   17.4127 H         1 GR8         0.0289
     56 H7         14.2285   18.3781   17.4635 H         1 GR8         0.0577
     57 H8         14.5574   20.5083   21.1880 H         1 GR8         0.0565
     58 H9         12.6924   19.1344   22.0657 H         1 GR8         0.0537
     59 H10        13.2871   21.7171   17.2211 H         1 GR8         0.0480
     60 H11        14.4361   20.6198   16.3830 H         1 GR8         0.0480
     61 H12        14.3338   23.6824   16.0609 H         1 GR8         0.0311
     62 H13        16.0239   23.2248   14.2789 H         1 GR8         0.0233
     63 H14        15.9947   21.4786   14.6991 H         1 GR8         0.0233
     64 H15        16.6185   22.6769   15.8829 H         1 GR8         0.0233
     65 H16        12.3994   22.4986   15.0490 H         1 GR8         0.0233
     66 H17        13.5152   21.3437   14.2442 H         1 GR8         0.0233
     67 H18        13.5209   23.0763   13.7703 H         1 GR8         0.0233
     68 H19        15.2203   22.6427   19.7895 H         1 GR8         0.0504
     69 H20        13.9796   23.2675   18.6506 H         1 GR8         0.0504
     70 H21        15.8463   24.3056   17.3248 H         1 GR8         0.0634
     71 H22        15.5131   25.1774   20.0105 H         1 GR8         0.2100
     72 H23        17.6256   22.8498   18.3263 H         1 GR8         0.0604
     73 H24        18.0578   25.7901   17.9861 H         1 GR8         0.1873
     74 H25        21.0868   23.9406   15.5459 H         1 GR8         0.0650
     75 H26        22.5378   25.4113   14.4879 H         1 GR8         0.0334
     76 H27        23.5976   27.0545   15.5014 H         1 GR8         0.0357
     77 H28        22.8199   28.9551   16.4408 H         1 GR8         0.0912
     78 H29        21.2293   26.4483   18.8449 H         1 GR8         0.0564
     79 H30        22.6166   27.5753   19.0234 H         1 GR8         0.0564
     80 H31        23.8075   26.2437   17.6655 H         1 GR8         0.0328
     81 H32        23.1711   24.1804   16.7866 H         1 GR8         0.0297
     82 H33        21.9232   24.3729   18.0643 H         1 GR8         0.0297
     83 H34        20.0969   25.8919   13.8435 H         1 GR8         0.0291
     84 H35        21.3952   27.0173   13.3194 H         1 GR8         0.0291
     85 H36        19.6450   27.3814   15.8027 H         1 GR8         0.0561
     86 H37        19.4009   28.2167   14.2313 H         1 GR8         0.0561
     87 H38        17.1467   23.1328   20.6791 H         1 GR8         0.0448
     88 H39        17.4805   24.8938   20.5593 H         1 GR8         0.0448
     89 H40        19.7158   25.6220   21.0446 H         1 GR8         0.0508
     90 H41        23.0068   22.8543   20.9554 H         1 GR8         0.0532
     91 H42        19.0269   21.5692   19.9848 H         1 GR8         0.0508
@<TRIPOS>BOND
     1    1    3 1  
     2    9    1 1  
     3    2    3 2  
     4    8    2 1  
     5    3    4 1  
     6    4    5 1  
     7    5    6 1  
     8    5    7 1  
     9    7    6 1  
    10    9    8 ar 
    11   13    8 ar 
    12   10    9 ar 
    13   11   10 ar 
    14   11   12 ar 
    15   14   11 1  
    16   12   13 ar 
    17   14   15 2  
    18   14   16 2  
    19   17   14 am 
    20   17   18 1  
    21   22   17 1  
    22   18   19 1  
    23   19   20 1  
    24   19   21 1  
    25   23   22 1  
    26   23   24 1  
    27   25   23 1  
    28   25   26 1  
    29   41   25 1  
    30   26   27 am 
    31   27   28 2  
    32   27   29 1  
    33   29   30 1  
    34   30   31 1  
    35   30   37 1  
    36   31   32 1  
    37   31   38 1  
    38   32   33 1  
    39   36   32 1  
    40   33   34 1  
    41   33   40 1  
    42   35   34 1  
    43   36   35 1  
    44   37   36 1  
    45   38   39 1  
    46   39   40 1  
    47   47   41 1  
    48   42   43 ar 
    49   42   47 ar 
    50   43   44 ar 
    51   43   48 1  
    52   44   45 ar 
    53   45   46 ar 
    54   45   49 1  
    55   46   47 ar 
    56    4   50 1  
    57    5   51 1  
    58    6   52 1  
    59    6   53 1  
    60    7   54 1  
    61    7   55 1  
    62   10   56 1  
    63   12   57 1  
    64   13   58 1  
    65   18   59 1  
    66   18   60 1  
    67   19   61 1  
    68   20   62 1  
    69   20   63 1  
    70   20   64 1  
    71   21   65 1  
    72   21   66 1  
    73   21   67 1  
    74   22   68 1  
    75   22   69 1  
    76   23   70 1  
    77   24   71 1  
    78   25   72 1  
    79   26   73 1  
    80   30   74 1  
    81   31   75 1  
    82   32   76 1  
    83   33   77 1  
    84   35   78 1  
    85   35   79 1  
    86   36   80 1  
    87   37   81 1  
    88   37   82 1  
    89   38   83 1  
    90   38   84 1  
    91   39   85 1  
    92   39   86 1  
    93   41   87 1  
    94   41   88 1  
    95   42   89 1  
    96   44   90 1  
    97   46   91 1  
@<TRIPOS>SUBSTRUCTURE
     1 GR8         1

