### 
### Created by X-TOOL on Wed Jan  1 15:39:35 2020
### 

@<TRIPOS>MOLECULE
6cdl_ligand
   89    95     1     0     0
SMALL
GAST_HUCK


@<TRIPOS>ATOM
      1 S51        23.0430   26.7840   15.9070 S.3       1 GR5         0.0286
      2 N52        21.6600   28.5590   14.8990 N.2       1 GR5        -0.3074
      3 C53        22.9130   28.3930   15.2880 C.2       1 GR5         0.1855
      4 N54        23.7490   29.3760   15.1630 N.pl3     1 GR5        -0.2764
      5 C55        25.1030   29.4080   15.6480 C.3       1 GR5         0.0463
      6 C56        25.4300   28.5930   16.8850 C.3       1 GR5        -0.0267
      7 C57        25.8180   28.1020   15.4940 C.3       1 GR5        -0.0267
      8 C2         20.8330   27.5070   15.0730 C.ar      1 GR5         0.0105
      9 C3         21.3710   26.4080   15.6510 C.ar      1 GR5         0.0513
     10 C4         20.7220   25.2870   15.9180 C.ar      1 GR5        -0.0265
     11 C5         19.3520   25.2570   15.6390 C.ar      1 GR5         0.0957
     12 C6         18.7720   26.3100   14.9440 C.ar      1 GR5        -0.0490
     13 C7         19.5550   27.4120   14.6320 C.ar      1 GR5        -0.0614
     14 S8         18.4170   23.8460   16.0480 S.o2      1 GR5         0.0658
     15 O9         17.3280   23.6740   15.1040 O.2       1 GR5        -0.1512
     16 O10        19.3520   22.6910   16.1960 O.2       1 GR5        -0.1512
     17 N11        17.7730   24.0420   17.5360 N.am      1 GR5        -0.2322
     18 C12        18.7400   24.3120   18.5900 C.3       1 GR5         0.0319
     19 C13        18.3720   23.5950   19.9070 C.3       1 GR5        -0.0296
     20 C14        18.3560   22.0810   19.7110 C.3       1 GR5        -0.0612
     21 C15        19.4720   23.9050   20.9600 C.3       1 GR5        -0.0612
     22 C16        16.5450   24.8020   17.5960 C.3       1 GR5         0.0578
     23 C17        15.3970   23.9150   18.0810 C.3       1 GR5         0.0967
     24 O18        14.2520   24.7190   18.3740 O.3       1 GR5        -0.3877
     25 C19        15.0600   22.7720   17.1250 C.3       1 GR5         0.0806
     26 N20        14.2590   21.7610   17.8410 N.am      1 GR5        -0.2550
     27 C21        14.5840   20.4590   17.8000 C.2       1 GR5         0.3203
     28 O22        15.7140   20.0760   17.4790 O.2       1 GR5        -0.3775
     29 O23        13.5640   19.6290   18.1130 O.3       1 GR5        -0.2588
     30 C32        14.2530   23.3300   15.9240 C.3       1 GR5         0.0046
     31 C33        12.5910   21.7040   14.9720 C.ar      1 GR5        -0.0310
     32 C34        12.2490   20.6340   14.1830 C.ar      1 GR5         0.1242
     33 C35        13.2190   19.9920   13.4110 C.ar      1 GR5        -0.0019
     34 C36        14.5120   20.4600   13.4720 C.ar      1 GR5         0.1242
     35 C37        14.9140   21.5350   14.2550 C.ar      1 GR5        -0.0310
     36 C38        13.9130   22.1540   15.0070 C.ar      1 GR5        -0.0445
     37 F61        10.9770   20.1800   14.1080 F         1 GR5        -0.1863
     38 F62        15.4380   19.8190   12.7340 F         1 GR5        -0.1863
     39 C24        13.8900   18.2410   17.9610 C.3       1 GR5         0.0958
     40 C25        12.6460   17.4310   17.7010 C.3       1 GR5         0.0093
     41 C26        12.0790   17.0060   19.0150 C.3       1 GR5         0.0293
     42 C27        10.8190   17.7530   19.3940 C.3       1 GR5         0.1821
     43 O28        11.0540   18.1640   20.7500 O.3       1 GR5        -0.3468
     44 C29        12.4440   18.5340   20.7630 C.3       1 GR5         0.0545
     45 C30        13.1050   17.3400   20.0830 C.3       1 GR5        -0.0053
     46 C31        14.3610   17.7120   19.3140 C.3       1 GR5        -0.0152
     47 C41        11.6920   18.0150   16.7350 C.2       1 GR5        -0.0729
     48 C42        10.6050   18.8530   17.2930 C.2       1 GR5         0.0385
     49 O43        10.6890   18.9970   18.6940 O.3       1 GR5        -0.3076
     50 H1         23.4114   30.2144   14.6691 H         1 GR5         0.1935
     51 H2         25.5876   30.3770   15.4580 H         1 GR5         0.0569
     52 H3         24.6270   28.0909   17.4445 H         1 GR5         0.0289
     53 H4         26.2047   28.9380   17.5856 H         1 GR5         0.0289
     54 H5         26.8756   28.0870   15.1920 H         1 GR5         0.0289
     55 H6         25.2979   27.2399   15.0509 H         1 GR5         0.0289
     56 H7         21.2314   24.4263   16.3362 H         1 GR5         0.0577
     57 H8         17.7290   26.2718   14.6513 H         1 GR5         0.0565
     58 H9         19.1384   28.2088   14.0265 H         1 GR5         0.0537
     59 H10        18.7733   25.3962   18.7728 H         1 GR5         0.0480
     60 H11        19.7306   23.9650   18.2611 H         1 GR5         0.0480
     61 H12        17.3896   23.9420   20.2597 H         1 GR5         0.0311
     62 H13        18.0920   21.5912   20.6599 H         1 GR5         0.0233
     63 H14        19.3516   21.7425   19.3882 H         1 GR5         0.0233
     64 H15        17.6128   21.8184   18.9437 H         1 GR5         0.0233
     65 H16        19.5186   24.9903   21.1329 H         1 GR5         0.0233
     66 H17        20.4451   23.5508   20.5890 H         1 GR5         0.0233
     67 H18        19.2310   23.3934   21.9035 H         1 GR5         0.0233
     68 H19        16.3073   25.1879   16.5937 H         1 GR5         0.0504
     69 H20        16.6726   25.6439   18.2923 H         1 GR5         0.0504
     70 H21        15.7236   23.4517   19.0237 H         1 GR5         0.0634
     71 H22        13.9818   25.1812   17.5893 H         1 GR5         0.2100
     72 H23        15.9894   22.3113   16.7591 H         1 GR5         0.0604
     73 H24        13.4592   22.0508   18.3666 H         1 GR5         0.1873
     74 H25        14.8572   24.0690   15.3774 H         1 GR5         0.0448
     75 H26        13.3281   23.8054   16.2824 H         1 GR5         0.0448
     76 H27        11.8342   22.2004   15.5686 H         1 GR5         0.0508
     77 H28        12.9610   19.1484   12.7810 H         1 GR5         0.0532
     78 H29        15.9436   21.8733   14.2807 H         1 GR5         0.0508
     79 H30        14.6429   18.1006   17.1714 H         1 GR5         0.0667
     80 H31        12.9894   16.5061   17.2146 H         1 GR5         0.0425
     81 H32        11.8753   15.9253   18.9923 H         1 GR5         0.0377
     82 H33         9.9247   17.1237   19.2751 H         1 GR5         0.0968
     83 H34        12.8128   18.6609   21.7915 H         1 GR5         0.0564
     84 H35        12.6149   19.4605   20.1952 H         1 GR5         0.0564
     85 H36        13.2964   16.5173   20.7877 H         1 GR5         0.0330
     86 H37        14.9222   18.4894   19.8532 H         1 GR5         0.0298
     87 H38        15.0000   16.8273   19.1763 H         1 GR5         0.0298
     88 H39        11.7836   17.8379   15.6644 H         1 GR5         0.0338
     89 H40         9.8242   19.3093   16.6863 H         1 GR5         0.0851
@<TRIPOS>BOND
     1    1    3 1  
     2    9    1 1  
     3    2    3 2  
     4    8    2 1  
     5    3    4 1  
     6    4    5 1  
     7    5    6 1  
     8    5    7 1  
     9    7    6 1  
    10    9    8 ar 
    11   13    8 ar 
    12   10    9 ar 
    13   11   10 ar 
    14   11   12 ar 
    15   14   11 1  
    16   12   13 ar 
    17   14   15 2  
    18   14   16 2  
    19   17   14 am 
    20   17   18 1  
    21   22   17 1  
    22   18   19 1  
    23   19   20 1  
    24   19   21 1  
    25   23   22 1  
    26   23   24 1  
    27   25   23 1  
    28   25   26 1  
    29   30   25 1  
    30   26   27 am 
    31   27   28 2  
    32   27   29 1  
    33   29   39 1  
    34   36   30 1  
    35   31   32 ar 
    36   31   36 ar 
    37   32   33 ar 
    38   32   37 1  
    39   33   34 ar 
    40   34   35 ar 
    41   34   38 1  
    42   35   36 ar 
    43   39   40 1  
    44   39   46 1  
    45   40   41 1  
    46   40   47 1  
    47   41   42 1  
    48   41   45 1  
    49   42   43 1  
    50   42   49 1  
    51   43   44 1  
    52   44   45 1  
    53   45   46 1  
    54   47   48 2  
    55   48   49 1  
    56    4   50 1  
    57    5   51 1  
    58    6   52 1  
    59    6   53 1  
    60    7   54 1  
    61    7   55 1  
    62   10   56 1  
    63   12   57 1  
    64   13   58 1  
    65   18   59 1  
    66   18   60 1  
    67   19   61 1  
    68   20   62 1  
    69   20   63 1  
    70   20   64 1  
    71   21   65 1  
    72   21   66 1  
    73   21   67 1  
    74   22   68 1  
    75   22   69 1  
    76   23   70 1  
    77   24   71 1  
    78   25   72 1  
    79   26   73 1  
    80   30   74 1  
    81   30   75 1  
    82   31   76 1  
    83   33   77 1  
    84   35   78 1  
    85   39   79 1  
    86   40   80 1  
    87   41   81 1  
    88   42   82 1  
    89   44   83 1  
    90   44   84 1  
    91   45   85 1  
    92   46   86 1  
    93   46   87 1  
    94   47   88 1  
    95   48   89 1  
@<TRIPOS>SUBSTRUCTURE
     1 GR5         1

