### 
### Created by X-TOOL on Wed Jan  1 15:39:36 2020
### 

@<TRIPOS>MOLECULE
6cdm_ligand
   72    71     1     0     0
SMALL
GAST_HUCK


@<TRIPOS>ATOM
      1 N          31.9980  -49.3740  126.2240 N.4       1 ALA         0.2377
      2 CA         32.8940  -48.2630  126.5420 C.3       1 ALA         0.0621
      3 C          34.3220  -48.7190  126.8700 C.2       1 ALA         0.2264
      4 O          34.5720  -49.8880  127.1700 O.2       1 ALA        -0.3907
      5 CB         32.3330  -47.4440  127.7060 C.3       1 ALA        -0.0040
      6 N          35.2560  -47.7690  126.7940 N.am      1 VAL        -0.2608
      7 CA         36.6310  -48.0320  127.2020 C.3       1 VAL         0.1334
      8 C          36.6980  -48.3170  128.6990 C.2       1 VAL         0.2040
      9 O          37.3050  -49.3030  129.1350 O.2       1 VAL        -0.3944
     10 CB         37.5320  -46.8410  126.8260 C.3       1 VAL        -0.0063
     11 CG1        38.9300  -47.0420  127.3750 C.3       1 VAL        -0.0584
     12 CG2        37.5580  -46.6440  125.3240 C.3       1 VAL        -0.0584
     13 N          36.0510  -47.4810  129.4960 N.am      1 GLY        -0.2664
     14 CA         36.0950  -47.5330  130.9480 C.3       1 GLY         0.1201
     15 C          36.9120  -46.3760  131.4970 C.2       1 GLY         0.2008
     16 O          37.9270  -45.9730  130.9190 O.2       1 GLY        -0.3947
     17 N          36.4760  -45.8460  132.6420 N.am      1 ILE        -0.2637
     18 CA         37.1530  -44.7050  133.2460 C.3       1 ILE         0.1335
     19 C          38.5240  -45.0780  133.8070 C.2       1 ILE         0.2040
     20 O          39.3400  -44.1870  134.0780 O.2       1 ILE        -0.3944
     21 CB         36.2590  -44.0750  134.3330 C.3       1 ILE        -0.0037
     22 CG1        36.1930  -44.9770  135.5680 C.3       1 ILE        -0.0491
     23 CG2        34.8660  -43.8080  133.7820 C.3       1 ILE        -0.0582
     24 CD1        35.7400  -44.2730  136.8350 C.3       1 ILE        -0.0648
     25 N          38.8020  -46.3670  133.9980 N.am      1 GLY        -0.2664
     26 CA         40.0840  -46.7720  134.5240 C.3       1 GLY         0.1201
     27 C          41.2050  -46.9200  133.5180 C.2       1 GLY         0.2002
     28 O          42.3490  -47.1660  133.9130 O.2       1 GLY        -0.3947
     29 N          40.9360  -46.7660  132.2280 N.am      1 ALA        -0.2700
     30 CA         41.9980  -46.9660  131.2510 C.3       1 ALA         0.0916
     31 C          42.9390  -45.7640  131.2080 C.2       1 ALA         0.0598
     32 O          42.5080  -44.6210  131.3740 O.co2     1 ALA        -0.5666
     33 CB         41.4190  -47.2400  129.8920 C.3       1 ALA        -0.0300
     34 OXT        44.1460  -45.9160  131.0070 O.co2     1 ALA        -0.5666
     35 H1         31.0786  -49.0158  126.0180 H         1 ALA         0.2015
     36 H2         31.9458  -49.9999  127.0124 H         1 ALA         0.2015
     37 H3         32.3518  -49.8722  125.4223 H         1 ALA         0.2015
     38 H4         32.9452  -47.6128  125.6563 H         1 ALA         0.1095
     39 H5         33.0172  -46.6132  127.9330 H         1 ALA         0.0310
     40 H6         32.2314  -48.0879  128.5920 H         1 ALA         0.0310
     41 H7         31.3470  -47.0420  127.4299 H         1 ALA         0.0310
     42 H8         35.0091  -46.8624  126.4518 H         1 VAL         0.1885
     43 H9         36.9902  -48.9219  126.6644 H         1 VAL         0.0802
     44 H10        37.1115  -45.9330  127.2828 H         1 VAL         0.0343
     45 H11        39.5596  -46.1837  127.0979 H         1 VAL         0.0234
     46 H12        39.3601  -47.9631  126.9547 H         1 VAL         0.0234
     47 H13        38.8851  -47.1251  128.4709 H         1 VAL         0.0234
     48 H14        36.5316  -46.5010  124.9552 H         1 VAL         0.0234
     49 H15        37.9993  -47.5307  124.8455 H         1 VAL         0.0234
     50 H16        38.1618  -45.7573  125.0809 H         1 VAL         0.0234
     51 H17        35.4953  -46.7665  129.0710 H         1 GLY         0.1881
     52 H18        36.5542  -48.4818  131.2626 H         1 GLY         0.0763
     53 H19        35.0704  -47.4725  131.3437 H         1 GLY         0.0763
     54 H20        35.6733  -46.2374  133.0919 H         1 ILE         0.1883
     55 H21        37.3105  -43.9531  132.4587 H         1 ILE         0.0803
     56 H22        36.7025  -43.1138  134.6319 H         1 ILE         0.0345
     57 H23        37.1962  -45.3921  135.7450 H         1 ILE         0.0267
     58 H24        35.4889  -45.7958  135.3589 H         1 ILE         0.0267
     59 H25        34.9400  -43.1590  132.8969 H         1 ILE         0.0235
     60 H26        34.2565  -43.3110  134.5511 H         1 ILE         0.0235
     61 H27        34.3945  -44.7608  133.4996 H         1 ILE         0.0235
     62 H28        35.7218  -44.9919  137.6674 H         1 ILE         0.0230
     63 H29        34.7314  -43.8605  136.6847 H         1 ILE         0.0230
     64 H30        36.4387  -43.4568  137.0708 H         1 ILE         0.0230
     65 H31        38.1165  -47.0601  133.7750 H         1 GLY         0.1881
     66 H32        39.9502  -47.7436  135.0220 H         1 GLY         0.0763
     67 H33        40.3952  -46.0203  135.2643 H         1 GLY         0.0763
     68 H34        40.0149  -46.5155  131.9298 H         1 ALA         0.1875
     69 H35        42.5830  -47.8456  131.5577 H         1 ALA         0.0723
     70 H36        42.2347  -47.3881  129.1690 H         1 ALA         0.0270
     71 H37        40.8010  -46.3860  129.5777 H         1 ALA         0.0270
     72 H38        40.7974  -48.1466  129.9342 H         1 ALA         0.0270
@<TRIPOS>BOND
     1    1    2 1  
     2    2    3 1  
     3    2    5 1  
     4    3    4 2  
     5    3    6 am 
     6    6    7 1  
     7    7    8 1  
     8    7   10 1  
     9    8    9 2  
    10    8   13 am 
    11   10   11 1  
    12   10   12 1  
    13   13   14 1  
    14   14   15 1  
    15   15   16 2  
    16   15   17 am 
    17   17   18 1  
    18   18   19 1  
    19   18   21 1  
    20   19   20 2  
    21   19   25 am 
    22   21   22 1  
    23   21   23 1  
    24   22   24 1  
    25   25   26 1  
    26   26   27 1  
    27   27   28 2  
    28   27   29 am 
    29   29   30 1  
    30   30   31 1  
    31   30   33 1  
    32   31   32 ar 
    33   31   34 ar 
    34    1   35 1  
    35    1   36 1  
    36    1   37 1  
    37    2   38 1  
    38    5   39 1  
    39    5   40 1  
    40    5   41 1  
    41    6   42 1  
    42    7   43 1  
    43   10   44 1  
    44   11   45 1  
    45   11   46 1  
    46   11   47 1  
    47   12   48 1  
    48   12   49 1  
    49   12   50 1  
    50   13   51 1  
    51   14   52 1  
    52   14   53 1  
    53   17   54 1  
    54   18   55 1  
    55   21   56 1  
    56   22   57 1  
    57   22   58 1  
    58   23   59 1  
    59   23   60 1  
    60   23   61 1  
    61   24   62 1  
    62   24   63 1  
    63   24   64 1  
    64   25   65 1  
    65   26   66 1  
    66   26   67 1  
    67   29   68 1  
    68   30   69 1  
    69   33   70 1  
    70   33   71 1  
    71   33   72 1  
@<TRIPOS>SUBSTRUCTURE
     1 ALA         1

