### 
### Created by X-TOOL on Wed Jan  1 15:39:37 2020
### 

@<TRIPOS>MOLECULE
6cdo_ligand
  108   108     1     0     0
SMALL
GAST_HUCK


@<TRIPOS>ATOM
      1 N          21.8430   23.2150   13.2380 N.4       1 ALA         0.2377
      2 CA         23.0460   24.0140   13.3760 C.3       1 ALA         0.0621
      3 C          24.2990   23.1310   13.2590 C.2       1 ALA         0.2264
      4 O          24.1930   21.9180   13.2520 O.2       1 ALA        -0.3907
      5 CB         23.0380   24.7490   14.7000 C.3       1 ALA        -0.0040
      6 N          25.4760   23.7570   13.1760 N.am      1 VAL        -0.2608
      7 CA         26.7350   22.9990   13.1550 C.3       1 VAL         0.1334
      8 C          26.9050   22.2260   14.4570 C.2       1 VAL         0.2040
      9 O          27.0070   20.9940   14.4660 O.2       1 VAL        -0.3944
     10 CB         27.9250   23.9430   12.9060 C.3       1 VAL        -0.0063
     11 CG1        29.2680   23.1730   13.0480 C.3       1 VAL        -0.0584
     12 CG2        27.8090   24.6050   11.5420 C.3       1 VAL        -0.0584
     13 N          26.8620   22.9340   15.5750 N.am      1 GLY        -0.2664
     14 CA         27.0730   22.4060   16.9140 C.3       1 GLY         0.1201
     15 C          28.3440   23.0370   17.4420 C.2       1 GLY         0.2008
     16 O          29.3160   23.2090   16.7000 O.2       1 GLY        -0.3947
     17 N          28.3330   23.4290   18.7200 N.am      1 ILE        -0.2637
     18 CA         29.5170   24.0720   19.2800 C.3       1 ILE         0.1335
     19 C          30.6650   23.0820   19.4570 C.2       1 ILE         0.2040
     20 O          31.8190   23.5020   19.6260 O.2       1 ILE        -0.3944
     21 CB         29.2120   24.7600   20.6260 C.3       1 ILE        -0.0037
     22 CG1        28.8710   23.7000   21.6720 C.3       1 ILE        -0.0491
     23 CG2        28.0660   25.7920   20.4950 C.3       1 ILE        -0.0582
     24 CD1        28.9460   24.2090   23.0730 C.3       1 ILE        -0.0648
     25 N          30.3890   21.7820   19.4180 N.am      1 GLY        -0.2664
     26 CA         31.4250   20.7790   19.5630 C.3       1 GLY         0.1201
     27 C          31.8720   20.0950   18.2870 C.2       1 GLY         0.2007
     28 O          32.7910   19.2710   18.3350 O.2       1 GLY        -0.3947
     29 N          31.2920   20.4590   17.1420 N.am      1 ALA        -0.2642
     30 CA         31.4810   19.7060   15.9050 C.3       1 ALA         0.1282
     31 C          32.9150   19.7680   15.3890 C.2       1 ALA         0.2036
     32 O          33.3550   18.8460   14.6960 O.2       1 ALA        -0.3944
     33 CB         30.5190   20.2210   14.8290 C.3       1 ALA        -0.0244
     34 N          33.6540   20.8400   15.6970 N.am      1 VAL        -0.2635
     35 CA         35.0190   20.9910   15.1920 C.3       1 VAL         0.1332
     36 C          36.0530   20.2850   16.0500 C.2       1 VAL         0.2037
     37 O          37.2530   20.4470   15.8040 O.2       1 VAL        -0.3944
     38 CB         35.4320   22.4710   15.0980 C.3       1 VAL        -0.0063
     39 CG1        34.5350   23.2290   14.1160 C.3       1 VAL        -0.0584
     40 CG2        35.3760   23.1130   16.4780 C.3       1 VAL        -0.0584
     41 N          35.6370   19.5370   17.0650 N.am      1 PHE        -0.2677
     42 CA         36.5810   18.8380   17.9280 C.3       1 PHE         0.1039
     43 C          36.4920   17.3360   17.6940 C.2       1 PHE         0.0621
     44 O          37.2040   16.5660   18.3340 O.co2     1 PHE        -0.5664
     45 CB         36.3250   19.1620   19.4060 C.3       1 PHE         0.0159
     46 CG         36.2360   20.6450   19.7030 C.ar      1 PHE        -0.0392
     47 CD1        37.3220   21.4810   19.4750 C.ar      1 PHE        -0.0602
     48 CD2        35.0750   21.1940   20.2210 C.ar      1 PHE        -0.0602
     49 CE1        37.2500   22.8450   19.7390 C.ar      1 PHE        -0.0686
     50 CE2        34.9860   22.5650   20.4940 C.ar      1 PHE        -0.0686
     51 CZ         36.0770   23.3920   20.2510 C.ar      1 PHE        -0.0687
     52 OXT        35.7080   16.8840   16.8640 O.co2     1 PHE        -0.5664
     53 H1         21.0334   23.8102   13.3174 H         1 ALA         0.2015
     54 H2         21.8186   22.5162   13.9640 H         1 ALA         0.2015
     55 H3         21.8410   22.7635   12.3368 H         1 ALA         0.2015
     56 H4         23.0665   24.7564   12.5646 H         1 ALA         0.1095
     57 H5         23.9547   25.3501   14.7912 H         1 ALA         0.0310
     58 H6         22.9936   24.0209   15.5233 H         1 ALA         0.0310
     59 H7         22.1600   25.4100   14.7472 H         1 ALA         0.0310
     60 H8         25.5009   24.7555   13.1275 H         1 VAL         0.1885
     61 H9         26.6915   22.2752   12.3278 H         1 VAL         0.0802
     62 H10        27.9024   24.7333   13.6708 H         1 VAL         0.0343
     63 H11        30.1064   23.8617   12.8671 H         1 VAL         0.0234
     64 H12        29.3009   22.3546   12.3138 H         1 VAL         0.0234
     65 H13        29.3471   22.7579   14.0636 H         1 VAL         0.0234
     66 H14        26.8502   25.1399   11.4744 H         1 VAL         0.0234
     67 H15        27.8564   23.8367   10.7563 H         1 VAL         0.0234
     68 H16        28.6364   25.3174   11.4086 H         1 VAL         0.0234
     69 H17        26.6687   23.9116   15.4922 H         1 GLY         0.1881
     70 H18        27.1816   21.3120   16.8762 H         1 GLY         0.0763
     71 H19        26.2235   22.6680   17.5619 H         1 GLY         0.0763
     72 H20        27.5218   23.2831   19.2863 H         1 ILE         0.1883
     73 H21        29.8423   24.8460   18.5693 H         1 ILE         0.0803
     74 H22        30.1158   25.2948   20.9532 H         1 ILE         0.0345
     75 H23        29.5781   22.8641   21.5657 H         1 ILE         0.0267
     76 H24        27.8482   23.3411   21.4851 H         1 ILE         0.0267
     77 H25        28.3341   26.5434   19.7377 H         1 ILE         0.0235
     78 H26        27.9070   26.2883   21.4637 H         1 ILE         0.0235
     79 H27        27.1425   25.2778   20.1904 H         1 ILE         0.0235
     80 H28        28.6901   23.3988   23.7716 H         1 ILE         0.0230
     81 H29        28.2366   25.0401   23.1997 H         1 ILE         0.0230
     82 H30        29.9666   24.5632   23.2803 H         1 ILE         0.0230
     83 H31        29.4422   21.4888   19.2852 H         1 GLY         0.1881
     84 H32        31.0490   20.0034   20.2464 H         1 GLY         0.0763
     85 H33        32.3045   21.2660   20.0094 H         1 GLY         0.0763
     86 H34        30.7101   21.2722   17.1304 H         1 ALA         0.1883
     87 H35        31.2413   18.6524   16.1111 H         1 ALA         0.0797
     88 H36        30.6671   19.6495   13.9009 H         1 ALA         0.0277
     89 H37        30.7173   21.2862   14.6392 H         1 ALA         0.0277
     90 H38        29.4821   20.0969   15.1744 H         1 ALA         0.0277
     91 H39        33.2662   21.5513   16.2833 H         1 VAL         0.1883
     92 H40        35.0488   20.5533   14.1833 H         1 VAL         0.0802
     93 H41        36.4675   22.5212   14.7304 H         1 VAL         0.0343
     94 H42        34.8512   24.2815   14.0681 H         1 VAL         0.0234
     95 H43        33.4905   23.1751   14.4568 H         1 VAL         0.0234
     96 H44        34.6188   22.7752   13.1175 H         1 VAL         0.0234
     97 H45        36.0258   22.5553   17.1685 H         1 VAL         0.0234
     98 H46        34.3412   23.0918   16.8506 H         1 VAL         0.0234
     99 H47        35.7206   24.1555   16.4117 H         1 VAL         0.0234
    100 H48        34.6563   19.4515   17.2409 H         1 PHE         0.1877
    101 H49        37.5973   19.1720   17.6718 H         1 PHE         0.0749
    102 H50        37.1476   18.7385   20.0009 H         1 PHE         0.0467
    103 H51        35.3765   18.6916   19.7045 H         1 PHE         0.0467
    104 H52        38.2425   21.0627   19.0842 H         1 PHE         0.0557
    105 H53        34.2229   20.5536   20.4180 H         1 PHE         0.0557
    106 H54        38.1064   23.4810   19.5462 H         1 PHE         0.0599
    107 H55        34.0682   22.9805   20.8940 H         1 PHE         0.0599
    108 H56        36.0145   24.4541   20.4586 H         1 PHE         0.0559
@<TRIPOS>BOND
     1    1    2 1  
     2    2    3 1  
     3    2    5 1  
     4    3    4 2  
     5    3    6 am 
     6    6    7 1  
     7    7    8 1  
     8    7   10 1  
     9    8    9 2  
    10    8   13 am 
    11   10   11 1  
    12   10   12 1  
    13   13   14 1  
    14   14   15 1  
    15   15   16 2  
    16   15   17 am 
    17   17   18 1  
    18   18   19 1  
    19   18   21 1  
    20   19   20 2  
    21   19   25 am 
    22   21   22 1  
    23   21   23 1  
    24   22   24 1  
    25   25   26 1  
    26   26   27 1  
    27   27   28 2  
    28   27   29 am 
    29   29   30 1  
    30   30   31 1  
    31   30   33 1  
    32   31   32 2  
    33   31   34 am 
    34   34   35 1  
    35   35   36 1  
    36   35   38 1  
    37   36   37 2  
    38   36   41 am 
    39   38   39 1  
    40   38   40 1  
    41   41   42 1  
    42   42   43 1  
    43   42   45 1  
    44   43   44 ar 
    45   43   52 ar 
    46   45   46 1  
    47   46   47 ar 
    48   46   48 ar 
    49   47   49 ar 
    50   48   50 ar 
    51   49   51 ar 
    52   50   51 ar 
    53    1   53 1  
    54    1   54 1  
    55    1   55 1  
    56    2   56 1  
    57    5   57 1  
    58    5   58 1  
    59    5   59 1  
    60    6   60 1  
    61    7   61 1  
    62   10   62 1  
    63   11   63 1  
    64   11   64 1  
    65   11   65 1  
    66   12   66 1  
    67   12   67 1  
    68   12   68 1  
    69   13   69 1  
    70   14   70 1  
    71   14   71 1  
    72   17   72 1  
    73   18   73 1  
    74   21   74 1  
    75   22   75 1  
    76   22   76 1  
    77   23   77 1  
    78   23   78 1  
    79   23   79 1  
    80   24   80 1  
    81   24   81 1  
    82   24   82 1  
    83   25   83 1  
    84   26   84 1  
    85   26   85 1  
    86   29   86 1  
    87   30   87 1  
    88   33   88 1  
    89   33   89 1  
    90   33   90 1  
    91   34   91 1  
    92   35   92 1  
    93   38   93 1  
    94   39   94 1  
    95   39   95 1  
    96   39   96 1  
    97   40   97 1  
    98   40   98 1  
    99   40   99 1  
   100   41  100 1  
   101   42  101 1  
   102   45  102 1  
   103   45  103 1  
   104   47  104 1  
   105   48  105 1  
   106   49  106 1  
   107   50  107 1  
   108   51  108 1  
@<TRIPOS>SUBSTRUCTURE
     1 ALA         1

