### 
### Created by X-TOOL on Wed Jan  1 15:39:38 2020
### 

@<TRIPOS>MOLECULE
6cdp_ligand
  108   108     1     0     0
SMALL
GAST_HUCK


@<TRIPOS>ATOM
      1 N         -67.0610  -84.1490  -47.4620 N.4       1 ALA         0.2377
      2 CA        -66.1170  -84.9400  -46.6830 C.3       1 ALA         0.0621
      3 C         -66.6510  -86.3460  -46.4300 C.2       1 ALA         0.2264
      4 O         -67.8360  -86.5290  -46.1550 O.2       1 ALA        -0.3907
      5 CB        -65.8090  -84.2500  -45.3630 C.3       1 ALA        -0.0040
      6 N         -65.7610  -87.3360  -46.5310 N.am      1 VAL        -0.2608
      7 CA        -66.1250  -88.7120  -46.2070 C.3       1 VAL         0.1334
      8 C         -66.5550  -88.8270  -44.7510 C.2       1 VAL         0.2040
      9 O         -67.4630  -89.6010  -44.4180 O.2       1 VAL        -0.3944
     10 CB        -64.9450  -89.6550  -46.5260 C.3       1 VAL        -0.0063
     11 CG1       -65.1450  -91.0190  -45.8840 C.3       1 VAL        -0.0584
     12 CG2       -64.7620  -89.7880  -48.0300 C.3       1 VAL        -0.0584
     13 N         -65.9410  -88.0470  -43.8700 N.am      1 GLY        -0.2664
     14 CA        -66.1420  -88.1740  -42.4410 C.3       1 GLY         0.1201
     15 C         -64.9570  -88.8510  -41.7820 C.2       1 GLY         0.2008
     16 O         -63.9990  -89.2830  -42.4300 O.2       1 GLY        -0.3947
     17 N         -65.0280  -88.9420  -40.4560 N.am      1 ILE        -0.2637
     18 CA        -63.9670  -89.5660  -39.6730 C.3       1 ILE         0.1335
     19 C         -64.4530  -90.7380  -38.8350 C.2       1 ILE         0.2040
     20 O         -63.6180  -91.5140  -38.3470 O.2       1 ILE        -0.3944
     21 CB        -63.2450  -88.5400  -38.7710 C.3       1 ILE        -0.0037
     22 CG1       -64.0790  -88.2350  -37.5250 C.3       1 ILE        -0.0491
     23 CG2       -62.9310  -87.2650  -39.5420 C.3       1 ILE        -0.0582
     24 CD1       -63.2470  -87.8710  -36.3130 C.3       1 ILE        -0.0648
     25 N         -65.7630  -90.9060  -38.6500 N.am      1 GLY        -0.2664
     26 CA        -66.2890  -91.9520  -37.8040 C.3       1 GLY         0.1201
     27 C         -66.8350  -93.1390  -38.5840 C.2       1 GLY         0.2007
     28 O         -66.8580  -93.1740  -39.8120 O.2       1 GLY        -0.3947
     29 N         -67.2750  -94.1390  -37.8210 N.am      1 ALA        -0.2642
     30 CA        -67.9370  -95.3190  -38.3600 C.3       1 ALA         0.1282
     31 C         -69.4450  -95.1390  -38.4110 C.2       1 ALA         0.2036
     32 O         -70.0990  -95.5960  -39.3550 O.2       1 ALA        -0.3944
     33 CB        -67.5970  -96.5430  -37.5110 C.3       1 ALA        -0.0244
     34 N         -69.9920  -94.4680  -37.4030 N.am      1 VAL        -0.2635
     35 CA        -71.4120  -94.1580  -37.2920 C.3       1 VAL         0.1332
     36 C         -71.5060  -92.8040  -36.6030 C.2       1 VAL         0.2037
     37 O         -70.7230  -92.5100  -35.6940 O.2       1 VAL        -0.3944
     38 CB        -72.1770  -95.2580  -36.5180 C.3       1 VAL        -0.0063
     39 CG1       -73.5560  -94.7760  -36.1050 C.3       1 VAL        -0.0584
     40 CG2       -72.2950  -96.5300  -37.3480 C.3       1 VAL        -0.0584
     41 N         -72.4410  -91.9720  -37.0600 N.am      1 PHE        -0.2677
     42 CA        -72.5230  -90.5600  -36.6710 C.3       1 PHE         0.1039
     43 C         -71.2820  -89.8070  -37.1430 C.2       1 PHE         0.0621
     44 O         -70.9460  -89.8170  -38.3280 O.co2     1 PHE        -0.5664
     45 CB        -72.6850  -90.3850  -35.1530 C.3       1 PHE         0.0159
     46 CG        -73.6830  -91.3160  -34.5260 C.ar      1 PHE        -0.0392
     47 CD1       -73.2660  -92.3260  -33.6730 C.ar      1 PHE        -0.0602
     48 CD2       -75.0390  -91.1710  -34.7720 C.ar      1 PHE        -0.0602
     49 CE1       -74.1820  -93.1810  -33.0870 C.ar      1 PHE        -0.0686
     50 CE2       -75.9600  -92.0220  -34.1870 C.ar      1 PHE        -0.0686
     51 CZ        -75.5300  -93.0290  -33.3450 C.ar      1 PHE        -0.0687
     52 OXT       -70.5860  -89.1710  -36.3510 O.co2     1 PHE        -0.5664
     53 H1        -66.6824  -83.2271  -47.6133 H         1 ALA         0.2015
     54 H2        -67.9324  -84.0762  -46.9606 H         1 ALA         0.2015
     55 H3        -67.2211  -84.5965  -48.3509 H         1 ALA         0.2015
     56 H4        -65.1827  -85.0243  -47.2575 H         1 ALA         0.1095
     57 H5        -65.0961  -84.8595  -44.7883 H         1 ALA         0.0310
     58 H6        -66.7379  -84.1308  -44.7860 H         1 ALA         0.0310
     59 H7        -65.3702  -83.2607  -45.5600 H         1 ALA         0.0310
     60 H8        -64.8300  -87.1316  -46.8335 H         1 VAL         0.1885
     61 H9        -66.9778  -89.0029  -46.8380 H         1 VAL         0.0802
     62 H10       -64.0297  -89.2117  -46.1068 H         1 VAL         0.0343
     63 H11       -64.2909  -91.6678  -46.1279 H         1 VAL         0.0234
     64 H12       -66.0710  -91.4724  -46.2672 H         1 VAL         0.0234
     65 H13       -65.2177  -90.9034  -44.7925 H         1 VAL         0.0234
     66 H14       -64.6194  -88.7907  -48.4716 H         1 VAL         0.0234
     67 H15       -65.6547  -90.2586  -48.4678 H         1 VAL         0.0234
     68 H16       -63.8796  -90.4108  -48.2384 H         1 VAL         0.0234
     69 H17       -65.3147  -87.3436  -44.2061 H         1 GLY         0.1881
     70 H18       -67.0461  -88.7730  -42.2571 H         1 GLY         0.0763
     71 H19       -66.2712  -87.1721  -42.0058 H         1 GLY         0.0763
     72 H20       -65.8291  -88.5732  -39.9845 H         1 ILE         0.1883
     73 H21       -63.2288  -89.9583  -40.3879 H         1 ILE         0.0803
     74 H22       -62.2928  -88.9832  -38.4441 H         1 ILE         0.0345
     75 H23       -64.6781  -89.1247  -37.2811 H         1 ILE         0.0267
     76 H24       -64.7490  -87.3928  -37.7525 H         1 ILE         0.0267
     77 H25       -62.3320  -87.5122  -40.4309 H         1 ILE         0.0235
     78 H26       -62.3641  -86.5770  -38.8976 H         1 ILE         0.0235
     79 H27       -63.8700  -86.7849  -39.8546 H         1 ILE         0.0235
     80 H28       -63.9112  -87.6661  -35.4604 H         1 ILE         0.0230
     81 H29       -62.6483  -86.9753  -36.5348 H         1 ILE         0.0230
     82 H30       -62.5773  -88.7072  -36.0634 H         1 ILE         0.0230
     83 H31       -66.4007  -90.2889  -39.1111 H         1 GLY         0.1881
     84 H32       -67.1018  -91.5317  -37.1935 H         1 GLY         0.0763
     85 H33       -65.4824  -92.3077  -37.1461 H         1 GLY         0.0763
     86 H34       -67.1445  -94.0763  -36.8315 H         1 ALA         0.1883
     87 H35       -67.5708  -95.4851  -39.3838 H         1 ALA         0.0797
     88 H36       -68.1012  -97.4284  -37.9257 H         1 ALA         0.0277
     89 H37       -67.9363  -96.3783  -36.4777 H         1 ALA         0.0277
     90 H38       -66.5088  -96.7037  -37.5185 H         1 ALA         0.0277
     91 H39       -69.3881  -94.1542  -36.6703 H         1 VAL         0.1883
     92 H40       -71.8469  -94.0819  -38.2995 H         1 VAL         0.0802
     93 H41       -71.6070  -95.4928  -35.6070 H         1 VAL         0.0343
     94 H42       -74.0756  -95.5765  -35.5580 H         1 VAL         0.0234
     95 H43       -74.1349  -94.5090  -37.0015 H         1 VAL         0.0234
     96 H44       -73.4568  -93.8933  -35.4562 H         1 VAL         0.0234
     97 H45       -71.2911  -96.8705  -37.6418 H         1 VAL         0.0234
     98 H46       -72.8913  -96.3256  -38.2495 H         1 VAL         0.0234
     99 H47       -72.7877  -97.3123  -36.7520 H         1 VAL         0.0234
    100 H48       -73.1213  -92.3282  -37.7006 H         1 PHE         0.1877
    101 H49       -73.4048  -90.1228  -37.1622 H         1 PHE         0.0749
    102 H50       -73.0081  -89.3518  -34.9579 H         1 PHE         0.0467
    103 H51       -71.7073  -90.5590  -34.6800 H         1 PHE         0.0467
    104 H52       -72.2095  -92.4472  -33.4627 H         1 PHE         0.0557
    105 H53       -75.3823  -90.3814  -35.4306 H         1 PHE         0.0557
    106 H54       -73.8419  -93.9697  -32.4257 H         1 PHE         0.0599
    107 H55       -77.0178  -91.8985  -34.3893 H         1 PHE         0.0599
    108 H56       -76.2493  -93.6986  -32.8876 H         1 PHE         0.0559
@<TRIPOS>BOND
     1    1    2 1  
     2    2    3 1  
     3    2    5 1  
     4    3    4 2  
     5    3    6 am 
     6    6    7 1  
     7    7    8 1  
     8    7   10 1  
     9    8    9 2  
    10    8   13 am 
    11   10   11 1  
    12   10   12 1  
    13   13   14 1  
    14   14   15 1  
    15   15   16 2  
    16   15   17 am 
    17   17   18 1  
    18   18   19 1  
    19   18   21 1  
    20   19   20 2  
    21   19   25 am 
    22   21   22 1  
    23   21   23 1  
    24   22   24 1  
    25   25   26 1  
    26   26   27 1  
    27   27   28 2  
    28   27   29 am 
    29   29   30 1  
    30   30   31 1  
    31   30   33 1  
    32   31   32 2  
    33   31   34 am 
    34   34   35 1  
    35   35   36 1  
    36   35   38 1  
    37   36   37 2  
    38   36   41 am 
    39   38   39 1  
    40   38   40 1  
    41   41   42 1  
    42   42   43 1  
    43   42   45 1  
    44   43   44 ar 
    45   43   52 ar 
    46   45   46 1  
    47   46   47 ar 
    48   46   48 ar 
    49   47   49 ar 
    50   48   50 ar 
    51   49   51 ar 
    52   50   51 ar 
    53    1   53 1  
    54    1   54 1  
    55    1   55 1  
    56    2   56 1  
    57    5   57 1  
    58    5   58 1  
    59    5   59 1  
    60    6   60 1  
    61    7   61 1  
    62   10   62 1  
    63   11   63 1  
    64   11   64 1  
    65   11   65 1  
    66   12   66 1  
    67   12   67 1  
    68   12   68 1  
    69   13   69 1  
    70   14   70 1  
    71   14   71 1  
    72   17   72 1  
    73   18   73 1  
    74   21   74 1  
    75   22   75 1  
    76   22   76 1  
    77   23   77 1  
    78   23   78 1  
    79   23   79 1  
    80   24   80 1  
    81   24   81 1  
    82   24   82 1  
    83   25   83 1  
    84   26   84 1  
    85   26   85 1  
    86   29   86 1  
    87   30   87 1  
    88   33   88 1  
    89   33   89 1  
    90   33   90 1  
    91   34   91 1  
    92   35   92 1  
    93   38   93 1  
    94   39   94 1  
    95   39   95 1  
    96   39   96 1  
    97   40   97 1  
    98   40   98 1  
    99   40   99 1  
   100   41  100 1  
   101   42  101 1  
   102   45  102 1  
   103   45  103 1  
   104   47  104 1  
   105   48  105 1  
   106   49  106 1  
   107   50  107 1  
   108   51  108 1  
@<TRIPOS>SUBSTRUCTURE
     1 ALA         1

