### 
### Created by X-TOOL on Wed Jan  1 15:39:35 2020
### 

@<TRIPOS>MOLECULE
6ce8_ligand
   19    20     1     0     0
SMALL
GAST_HUCK


@<TRIPOS>ATOM
      1 C1          2.4980    2.1950    7.9120 C.3       1 EYV         0.0745
      2 C2          1.0050    2.3470    7.8130 C.2       1 EYV         0.1104
      3 C3         -0.9420    3.2010    7.2240 C.ar      1 EYV         0.0226
      4 C4         -1.8490    4.1030    6.6590 C.ar      1 EYV        -0.0587
      5 C5         -3.1990    3.9990    6.9750 C.ar      1 EYV        -0.0729
      6 C6         -3.6530    2.9890    7.8100 C.ar      1 EYV        -0.0722
      7 C7         -2.7640    2.0880    8.3810 C.ar      1 EYV        -0.0503
      8 C8         -1.4120    2.2030    8.0850 C.ar      1 EYV         0.0529
      9 O1          2.8950    4.0530    9.3930 O.co2     1 EYV        -0.5650
     10 C           3.1920    3.4650    8.3540 C.2       1 EYV         0.0561
     11 O           4.1260    3.8770    7.5460 O.co2     1 EYV        -0.5650
     12 S          -0.0690    1.3220    8.7390 S.3       1 EYV         0.0097
     13 N           0.4410    3.2510    7.0800 N.2       1 EYV        -0.3062
     14 H1          2.8877    1.9079    6.9242 H         1 EYV         0.0705
     15 H2          2.7224    1.4012    8.6397 H         1 EYV         0.0705
     16 H3         -1.5031    4.8754    5.9816 H         1 EYV         0.0559
     17 H4         -3.9031    4.7139    6.5650 H         1 EYV         0.0553
     18 H5         -4.7131    2.9020    8.0191 H         1 EYV         0.0552
     19 H6         -3.1189    1.3089    9.0459 H         1 EYV         0.0565
@<TRIPOS>BOND
     1    2    1 1  
     2    1   10 1  
     3    2   12 1  
     4   13    2 2  
     5    3    4 ar 
     6    3    8 ar 
     7    3   13 1  
     8    4    5 ar 
     9    5    6 ar 
    10    6    7 ar 
    11    7    8 ar 
    12    8   12 1  
    13   10    9 ar 
    14   10   11 ar 
    15    1   14 1  
    16    1   15 1  
    17    4   16 1  
    18    5   17 1  
    19    6   18 1  
    20    7   19 1  
@<TRIPOS>SUBSTRUCTURE
     1 EYV         1

