### 
### Created by X-TOOL on Wed Jan  1 15:39:35 2020
### 

@<TRIPOS>MOLECULE
6cea_ligand
   25    26     1     0     0
SMALL
GAST_HUCK


@<TRIPOS>ATOM
      1 C1          3.2790    2.2380    8.1880 C.3       1 EYY         0.0130
      2 O1          3.0700    4.4140    9.1510 O.co2     1 EYY        -0.5688
      3 C2          2.2820    1.8210    7.1520 C.3       1 EYY         0.0098
      4 C3          0.8380    2.0940    7.4930 C.ar      1 EYY         0.0284
      5 C4          0.1160    1.3380    8.4290 C.ar      1 EYY        -0.0277
      6 C5         -1.2140    1.5860    8.5950 C.ar      1 EYY        -0.0376
      7 C6         -1.8560    2.5900    7.8310 C.ar      1 EYY         0.0021
      8 C7         -3.2120    2.9660    7.9860 C.ar      1 EYY        -0.0488
      9 C8         -3.7450    3.9940    7.2490 C.ar      1 EYY        -0.0581
     10 C9         -2.9800    4.6650    6.3240 C.ar      1 EYY        -0.0585
     11 C10        -1.6570    4.3430    6.1490 C.ar      1 EYY        -0.0435
     12 C11        -1.0640    3.3080    6.9140 C.ar      1 EYY         0.0362
     13 C           3.5470    3.7240    8.2370 C.2       1 EYY         0.0372
     14 O           4.2450    4.1810    7.2650 O.co2     1 EYY        -0.5688
     15 N           0.2860    3.0710    6.7620 N.ar      1 EYY        -0.3004
     16 H1          4.2286    1.7244    7.9774 H         1 EYY         0.0457
     17 H2          2.9029    1.9241    9.1729 H         1 EYY         0.0457
     18 H3          2.3933    0.7386    6.9909 H         1 EYY         0.0488
     19 H4          2.5172    2.3565    6.2204 H         1 EYY         0.0488
     20 H5          0.6087    0.5680    9.0116 H         1 EYY         0.0661
     21 H6         -1.7834    1.0110    9.3163 H         1 EYY         0.0764
     22 H7         -3.8370    2.4356    8.6953 H         1 EYY         0.0649
     23 H8         -4.7800    4.2800    7.3977 H         1 EYY         0.0622
     24 H9         -3.4249    5.4540    5.7286 H         1 EYY         0.0645
     25 H10        -1.0625    4.8836    5.4214 H         1 EYY         0.0623
@<TRIPOS>BOND
     1    1    3 1  
     2    1   13 1  
     3   13    2 ar 
     4    3    4 1  
     5    4    5 ar 
     6    4   15 ar 
     7    5    6 ar 
     8    6    7 ar 
     9    7    8 ar 
    10    7   12 ar 
    11    8    9 ar 
    12    9   10 ar 
    13   10   11 ar 
    14   11   12 ar 
    15   12   15 ar 
    16   13   14 ar 
    17    1   16 1  
    18    1   17 1  
    19    3   18 1  
    20    3   19 1  
    21    5   20 1  
    22    6   21 1  
    23    8   22 1  
    24    9   23 1  
    25   10   24 1  
    26   11   25 1  
@<TRIPOS>SUBSTRUCTURE
     1 EYY         1

