### 
### Created by X-TOOL on Wed Jan  1 15:39:35 2020
### 

@<TRIPOS>MOLECULE
6cec_ligand
   28    29     1     0     0
SMALL
GAST_HUCK


@<TRIPOS>ATOM
      1 O1          2.9760    4.1350    9.3420 O.co2     1 EY7        -0.5688
      2 O2          4.3710    3.9350    7.5850 O.co2     1 EY7        -0.5688
      3 C3          1.5040    1.9250    8.3140 C.3       1 EY7         0.0177
      4 C5          3.5190    3.4920    8.2960 C.2       1 EY7         0.0372
      5 C7          0.7930    5.2850    4.9110 C.ar      1 EY7        -0.0403
      6 C8         -0.0420    6.0780    4.1710 C.ar      1 EY7        -0.0574
      7 C9         -1.4210    6.0400    4.3700 C.ar      1 EY7        -0.0576
      8 C4          2.9860    2.1090    8.0640 C.3       1 EY7         0.0132
      9 C2          0.5880    2.8020    7.5000 C.ar      1 EY7         0.0965
     10 N           1.1110    3.6080    6.6020 N.ar      1 EY7        -0.2777
     11 C6          0.2620    4.4010    5.8770 C.ar      1 EY7         0.0550
     12 C11        -1.1430    4.3540    6.0770 C.ar      1 EY7         0.0534
     13 C10        -1.9740    5.1990    5.3000 C.ar      1 EY7        -0.0411
     14 N1         -1.7060    3.5020    6.9960 N.ar      1 EY7        -0.2573
     15 C1         -0.8790    2.7550    7.6680 C.ar      1 EY7         0.2032
     16 O          -1.2540    1.8280    8.5800 O.3       1 EY7        -0.2931
     17 C          -2.6290    1.8260    9.0000 C.3       1 EY7         0.0654
     18 H1          1.3127    2.1322    9.3772 H         1 EY7         0.0489
     19 H2          1.2520    0.8772    8.0935 H         1 EY7         0.0489
     20 H3          1.8646    5.3353    4.7555 H         1 EY7         0.0643
     21 H4          0.3736    6.7426    3.4223 H         1 EY7         0.0634
     22 H5         -2.0644    6.6840    3.7815 H         1 EY7         0.0643
     23 H6          3.1878    1.8406    7.0165 H         1 EY7         0.0457
     24 H7          3.5288    1.4218    8.7297 H         1 EY7         0.0457
     25 H8         -3.0486    5.1801    5.4415 H         1 EY7         0.0632
     26 H9         -2.7860    1.0249    9.7373 H         1 EY7         0.0588
     27 H10        -3.2783    1.6548    8.1288 H         1 EY7         0.0588
     28 H11        -2.8747    2.7967    9.4554 H         1 EY7         0.0588
@<TRIPOS>BOND
     1    4    1 ar 
     2    4    2 ar 
     3    3    8 1  
     4    9    3 1  
     5    8    4 1  
     6    5    6 ar 
     7   11    5 ar 
     8    6    7 ar 
     9    7   13 ar 
    10   10    9 ar 
    11    9   15 ar 
    12   10   11 ar 
    13   11   12 ar 
    14   12   13 ar 
    15   12   14 ar 
    16   14   15 ar 
    17   15   16 1  
    18   16   17 1  
    19    3   18 1  
    20    3   19 1  
    21    5   20 1  
    22    6   21 1  
    23    7   22 1  
    24    8   23 1  
    25    8   24 1  
    26   13   25 1  
    27   17   26 1  
    28   17   27 1  
    29   17   28 1  
@<TRIPOS>SUBSTRUCTURE
     1 EY7         1

