### 
### Created by X-TOOL on Wed Jan  1 15:39:35 2020
### 

@<TRIPOS>MOLECULE
6ced_ligand
   28    29     1     0     0
SMALL
GAST_HUCK


@<TRIPOS>ATOM
      1 C1          0.4440    2.5140    7.5200 C.2       1 EYA         0.1467
      2 C2          1.3930    1.6860    8.3200 C.3       1 EYA         0.0501
      3 C3          2.8530    1.9660    7.9800 C.3       1 EYA         0.0203
      4 C4          3.3760    3.3670    8.2300 C.2       1 EYA         0.0379
      5 C5          0.0600    4.1130    5.9060 C.ar      1 EYA         0.0126
      6 C6          0.5910    4.9750    4.9440 C.ar      1 EYA        -0.0538
      7 C7         -0.2550    5.7710    4.1890 C.ar      1 EYA        -0.0665
      8 C8         -1.6200    5.7140    4.3810 C.ar      1 EYA        -0.0653
      9 O1          4.2550    3.8450    7.5080 O.co2     1 EYA        -0.5688
     10 N1          0.9370    3.3300    6.6560 N.2       1 EYA        -0.3080
     11 N          -0.9220    2.3790    7.7620 N.am      1 EYA        -0.1828
     12 C          -1.4110    1.4190    8.7370 C.3       1 EYA         0.0598
     13 O           2.8620    3.9560    9.3100 O.co2     1 EYA        -0.5688
     14 O2         -3.0340    3.0930    7.3410 O.2       1 EYA        -0.3856
     15 C11        -1.8570    3.1630    7.0770 C.2       1 EYA         0.2379
     16 C10        -1.3210    4.0620    6.0970 C.ar      1 EYA         0.0599
     17 C9         -2.1630    4.8730    5.3310 C.ar      1 EYA        -0.0503
     18 H1          1.1840    0.6239    8.1242 H         1 EYA         0.0582
     19 H2          1.2333    1.9005    9.3870 H         1 EYA         0.0582
     20 H3          2.9889    1.7502    6.9100 H         1 EYA         0.0465
     21 H4          3.4678    1.2743    8.5746 H         1 EYA         0.0465
     22 H5          1.6628    5.0211    4.7884 H         1 EYA         0.0554
     23 H6          0.1575    6.4417    3.4440 H         1 EYA         0.0627
     24 H7         -2.2727    6.3362    3.7795 H         1 EYA         0.0553
     25 H8         -0.5597    0.8856    9.1851 H         1 EYA         0.0591
     26 H9         -2.0752    0.6970    8.2395 H         1 EYA         0.0591
     27 H10        -1.9681    1.9476    9.5245 H         1 EYA         0.0591
     28 H11        -3.2360    4.8416    5.4822 H         1 EYA         0.0643
@<TRIPOS>BOND
     1    1    2 1  
     2   10    1 2  
     3    1   11 1  
     4    2    3 1  
     5    3    4 1  
     6    4    9 ar 
     7    4   13 ar 
     8    5    6 ar 
     9    5   10 1  
    10    5   16 ar 
    11    6    7 ar 
    12    7    8 ar 
    13    8   17 ar 
    14   11   12 1  
    15   11   15 am 
    16   15   14 2  
    17   15   16 1  
    18   16   17 ar 
    19    2   18 1  
    20    2   19 1  
    21    3   20 1  
    22    3   21 1  
    23    6   22 1  
    24    7   23 1  
    25    8   24 1  
    26   12   25 1  
    27   12   26 1  
    28   12   27 1  
    29   17   28 1  
@<TRIPOS>SUBSTRUCTURE
     1 EYA         1

