### 
### Created by X-TOOL on Wed Jan  1 15:39:35 2020
### 

@<TRIPOS>MOLECULE
6cee_ligand
   28    29     1     0     0
SMALL
GAST_HUCK


@<TRIPOS>ATOM
      1 C8         -1.1330    5.4470    4.4780 C.ar      1 EYM        -0.0755
      2 C5          3.4560    3.5230    8.2840 C.2       1 EYM         0.0376
      3 C6         -0.3750    3.9490    6.2030 C.ar      1 EYM         0.0574
      4 N1          0.6870    3.2900    6.8130 N.2       1 EYM        -0.2821
      5 C2          0.4410    2.4750    7.7870 C.2       1 EYM         0.1185
      6 C4          2.9430    2.1410    7.9900 C.3       1 EYM         0.0161
      7 O2         -1.1080    1.4200    9.2540 O.2       1 EYM        -0.3753
      8 C1         -0.9350    2.1810    8.3120 C.2       1 EYM         0.2628
      9 C3          1.5800    1.8200    8.4990 C.3       1 EYM         0.0279
     10 O1          2.9850    4.1170    9.3660 O.co2     1 EYM        -0.5688
     11 O           4.2900    3.9870    7.5610 O.co2     1 EYM        -0.5688
     12 C11        -1.7070    3.7600    6.6140 C.ar      1 EYM         0.0956
     13 N          -1.9480    2.8690    7.6890 N.am      1 EYM        -0.2115
     14 C          -3.2930    2.7290    8.2540 C.3       1 EYM         0.0487
     15 C10        -2.7380    4.4190    5.9430 C.ar      1 EYM        -0.0368
     16 C9         -2.4400    5.2570    4.8800 C.ar      1 EYM        -0.0748
     17 C7         -0.0980    4.8030    5.1350 C.ar      1 EYM        -0.0555
     18 H1         -0.9158    6.1039    3.6435 H         1 EYM         0.0501
     19 H2          3.6452    1.4211    8.4358 H         1 EYM         0.0462
     20 H3          2.9312    2.0134    6.8975 H         1 EYM         0.0462
     21 H4          1.4413    0.7313    8.4247 H         1 EYM         0.0532
     22 H5          1.5355    2.1240    9.5552 H         1 EYM         0.0532
     23 H6         -3.2720    1.9950    9.0730 H         1 EYM         0.0567
     24 H7         -3.9855    2.3854    7.4715 H         1 EYM         0.0567
     25 H8         -3.6309    3.7014    8.6416 H         1 EYM         0.0567
     26 H9         -3.7672    4.2761    6.2518 H         1 EYM         0.0511
     27 H10        -3.2413    5.7684    4.3590 H         1 EYM         0.0572
     28 H11         0.9268    4.9623    4.8197 H         1 EYM         0.0575
@<TRIPOS>BOND
     1    1   16 ar 
     2   17    1 ar 
     3    6    2 1  
     4    2   10 ar 
     5    2   11 ar 
     6    4    3 1  
     7    3   12 ar 
     8    3   17 ar 
     9    5    4 2  
    10    5    8 1  
    11    9    5 1  
    12    6    9 1  
    13    8    7 2  
    14    8   13 am 
    15   12   13 1  
    16   12   15 ar 
    17   13   14 1  
    18   15   16 ar 
    19    1   18 1  
    20    6   19 1  
    21    6   20 1  
    22    9   21 1  
    23    9   22 1  
    24   14   23 1  
    25   14   24 1  
    26   14   25 1  
    27   15   26 1  
    28   16   27 1  
    29   17   28 1  
@<TRIPOS>SUBSTRUCTURE
     1 EYM         1

