### 
### Created by X-TOOL on Wed Jan  1 15:39:35 2020
### 

@<TRIPOS>MOLECULE
6cef_ligand
   22    23     1     0     0
SMALL
GAST_HUCK


@<TRIPOS>ATOM
      1 C1          3.3510    2.1770    8.2960 C.3       1 EYJ         0.0183
      2 C2          2.3600    1.5830    7.3790 C.3       1 EYJ         0.0338
      3 C3          0.9850    2.1560    7.5070 C.2       1 EYJ         0.0991
      4 C6         -2.9320    4.4750    6.7450 C.ar      1 EYJ        -0.0730
      5 C4         -0.7990    3.3830    7.0270 C.ar      1 EYJ         0.0222
      6 O1          3.0930    4.3320    9.2180 O.co2     1 EYJ        -0.5688
      7 C           3.5320    3.6680    8.2730 C.2       1 EYJ         0.0378
      8 O           4.2430    4.1570    7.2750 O.co2     1 EYJ        -0.5688
      9 S          -0.2140    1.3340    8.4810 S.3       1 EYJ         0.0081
     10 C9         -1.4050    2.4780    7.9060 C.ar      1 EYJ         0.0527
     11 N           0.5770    3.1830    6.8260 N.2       1 EYJ        -0.3079
     12 C8         -2.7570    2.5770    8.2230 C.ar      1 EYJ        -0.0503
     13 C7         -3.5120    3.5780    7.6320 C.ar      1 EYJ        -0.0722
     14 C5         -1.5750    4.3830    6.4300 C.ar      1 EYJ        -0.0588
     15 H1          4.3261    1.7260    8.0597 H         1 EYJ         0.0465
     16 H2          3.0569    1.8995    9.3190 H         1 EYJ         0.0465
     17 H3          2.3042    0.5037    7.5837 H         1 EYJ         0.0561
     18 H4          2.7056    1.7431    6.3471 H         1 EYJ         0.0561
     19 H5         -3.5374    5.2527    6.2936 H         1 EYJ         0.0552
     20 H6         -3.2117    1.8828    8.9204 H         1 EYJ         0.0565
     21 H7         -4.5674    3.6615    7.8650 H         1 EYJ         0.0552
     22 H8         -1.1270    5.0791    5.7301 H         1 EYJ         0.0558
@<TRIPOS>BOND
     1    2    1 1  
     2    1    7 1  
     3    3    2 1  
     4    3    9 1  
     5   11    3 2  
     6    4   13 ar 
     7   14    4 ar 
     8    5   10 ar 
     9    5   11 1  
    10    5   14 ar 
    11    7    6 ar 
    12    7    8 ar 
    13    9   10 1  
    14   10   12 ar 
    15   12   13 ar 
    16    1   15 1  
    17    1   16 1  
    18    2   17 1  
    19    2   18 1  
    20    4   19 1  
    21   12   20 1  
    22   13   21 1  
    23   14   22 1  
@<TRIPOS>SUBSTRUCTURE
     1 EYJ         1

