### 
### Created by X-TOOL on Wed Jan  1 15:39:35 2020
### 

@<TRIPOS>MOLECULE
6cex_ligand
   30    30     1     0     0
SMALL
GAST_HUCK


@<TRIPOS>ATOM
      1 C3'       -33.8820   -0.4150  -55.7070 C.3       1 NHE        -0.0480
      2 C2'       -34.7940   -1.0310  -56.7390 C.3       1 NHE        -0.0097
      3 C1'       -34.4230   -2.4440  -57.0750 C.3       1 NHE        -0.0226
      4 C6'       -34.3340   -3.0730  -55.8750 C.3       1 NHE        -0.0097
      5 N         -35.4840   -3.0950  -57.8400 N.4       1 NHE         0.2302
      6 C1        -35.1440   -4.3530  -58.5170 C.3       1 NHE        -0.0166
      7 C2        -36.4080   -5.1620  -58.8450 C.3       1 NHE         0.0706
      8 S         -36.0040   -6.6240  -59.8180 S.o2      1 NHE        -0.1866
      9 O1        -35.8170   -6.2650  -61.2280 O.co2     1 NHE        -0.4844
     10 O2        -37.0580   -7.6000  -59.9950 O.co2     1 NHE        -0.4844
     11 O3        -34.7850   -7.2150  -59.2360 O.co2     1 NHE        -0.4844
     12 C5'       -33.2790   -2.4910  -55.1620 C.3       1 NHE        -0.0480
     13 C4'       -33.7810   -1.2950  -54.6120 C.3       1 NHE        -0.0527
     14 H1        -34.2980    0.5466  -55.3720 H         1 NHE         0.0267
     15 H2        -32.8857   -0.2514  -56.1437 H         1 NHE         0.0267
     16 H3        -34.7440   -0.4271  -57.6570 H         1 NHE         0.0320
     17 H4        -35.8226   -1.0213  -56.3492 H         1 NHE         0.0320
     18 H5        -33.4720   -2.4824  -57.6265 H         1 NHE         0.0850
     19 H6        -34.1357   -4.1441  -56.0281 H         1 NHE         0.0320
     20 H7        -35.2744   -2.9501  -55.3178 H         1 NHE         0.0320
     21 H8        -35.7931   -2.4445  -58.5452 H         1 NHE         0.2017
     22 H9        -36.2425   -3.2873  -57.2046 H         1 NHE         0.2017
     23 H10       -34.4950   -4.9508  -57.8602 H         1 NHE         0.0829
     24 H11       -34.6102   -4.1255  -59.4515 H         1 NHE         0.0829
     25 H12       -37.1017   -4.5291  -59.4178 H         1 NHE         0.0521
     26 H13       -36.8880   -5.4759  -57.9063 H         1 NHE         0.0521
     27 H14       -32.4374   -2.2753  -55.8367 H         1 NHE         0.0267
     28 H15       -32.9432   -3.1662  -54.3611 H         1 NHE         0.0267
     29 H16       -34.7678   -1.4618  -54.1556 H         1 NHE         0.0265
     30 H17       -33.0898   -0.8955  -53.8553 H         1 NHE         0.0265
@<TRIPOS>BOND
     1    1    2 1  
     2    1   13 1  
     3    2    3 1  
     4    3    4 1  
     5    3    5 1  
     6    4   12 1  
     7    5    6 1  
     8    6    7 1  
     9    7    8 1  
    10    8    9 ar 
    11    8   10 ar 
    12    8   11 ar 
    13   12   13 1  
    14    1   14 1  
    15    1   15 1  
    16    2   16 1  
    17    2   17 1  
    18    3   18 1  
    19    4   19 1  
    20    4   20 1  
    21    5   21 1  
    22    5   22 1  
    23    6   23 1  
    24    6   24 1  
    25    7   25 1  
    26    7   26 1  
    27   12   27 1  
    28   12   28 1  
    29   13   29 1  
    30   13   30 1  
@<TRIPOS>SUBSTRUCTURE
     1 NHE         1

