### 
### Created by X-TOOL on Wed Jan  1 15:39:36 2020
### 

@<TRIPOS>MOLECULE
6cf5_ligand
   30    30     1     0     0
SMALL
GAST_HUCK


@<TRIPOS>ATOM
      1 C3'        -7.8330  -10.2350   49.8000 C.3       1 NHE        -0.0480
      2 C2'        -9.0470  -11.1420   49.7770 C.3       1 NHE        -0.0097
      3 C1'        -8.8500  -12.2190   48.7210 C.3       1 NHE        -0.0226
      4 C6'        -7.6190  -13.0450   49.0800 C.3       1 NHE        -0.0097
      5 N         -10.0340  -13.0850   48.5870 N.4       1 NHE         0.2302
      6 C1        -11.2950  -12.3320   48.6810 C.3       1 NHE        -0.0166
      7 C2        -12.1380  -12.8810   49.8340 C.3       1 NHE         0.0706
      8 S         -12.6090  -14.6160   49.4880 S.o2      1 NHE        -0.1866
      9 O1        -13.8880  -14.6220   48.6500 O.co2     1 NHE        -0.4844
     10 O2        -11.4890  -15.3340   48.7230 O.co2     1 NHE        -0.4844
     11 O3        -12.8530  -15.3310   50.8160 O.co2     1 NHE        -0.4844
     12 C5'        -6.3890  -12.1500   49.1460 C.3       1 NHE        -0.0480
     13 C4'        -6.6030  -11.0450   50.1720 C.3       1 NHE        -0.0527
     14 H1         -7.9851   -9.4375   50.5422 H         1 NHE         0.0267
     15 H2         -7.6904   -9.7878   48.8052 H         1 NHE         0.0267
     16 H3         -9.9428  -10.5509   49.5362 H         1 NHE         0.0320
     17 H4         -9.1726  -11.6130   50.7631 H         1 NHE         0.0320
     18 H5         -8.6749  -11.7279   47.7524 H         1 NHE         0.0850
     19 H6         -7.4646  -13.8195   48.3143 H         1 NHE         0.0320
     20 H7         -7.7742  -13.5227   50.0586 H         1 NHE         0.0320
     21 H8        -10.0143  -13.7757   49.3208 H         1 NHE         0.2017
     22 H9         -9.9983  -13.5455   47.6910 H         1 NHE         0.2017
     23 H10       -11.8533  -12.4343   47.7387 H         1 NHE         0.0829
     24 H11       -11.0741  -11.2699   48.8629 H         1 NHE         0.0829
     25 H12       -13.0468  -12.2712   49.9444 H         1 NHE         0.0521
     26 H13       -11.5537  -12.8402   50.7651 H         1 NHE         0.0521
     27 H14        -6.2124  -11.7002   48.1578 H         1 NHE         0.0267
     28 H15        -5.5155  -12.7522   49.4362 H         1 NHE         0.0267
     29 H16        -6.7462  -11.4920   51.1668 H         1 NHE         0.0265
     30 H17        -5.7223  -10.3862   50.1893 H         1 NHE         0.0265
@<TRIPOS>BOND
     1    1    2 1  
     2    1   13 1  
     3    2    3 1  
     4    3    4 1  
     5    3    5 1  
     6    4   12 1  
     7    5    6 1  
     8    6    7 1  
     9    7    8 1  
    10    8    9 ar 
    11    8   10 ar 
    12    8   11 ar 
    13   12   13 1  
    14    1   14 1  
    15    1   15 1  
    16    2   16 1  
    17    2   17 1  
    18    3   18 1  
    19    4   19 1  
    20    4   20 1  
    21    5   21 1  
    22    5   22 1  
    23    6   23 1  
    24    6   24 1  
    25    7   25 1  
    26    7   26 1  
    27   12   27 1  
    28   12   28 1  
    29   13   29 1  
    30   13   30 1  
@<TRIPOS>SUBSTRUCTURE
     1 NHE         1

