### 
### Created by X-TOOL on Wed Jan  1 15:39:36 2020
### 

@<TRIPOS>MOLECULE
6cfc_ligand
   63    64     1     0     0
SMALL
GAST_HUCK


@<TRIPOS>ATOM
      1 C1        -42.2150   24.2610   -4.8540 C.3       1 BLG         0.1854
      2 C2        -43.4210   23.5300   -4.4950 C.3       1 BLG         0.1211
      3 C3        -44.2870   23.3950   -5.7600 C.3       1 BLG         0.1135
      4 C4        -44.5800   24.7800   -6.3280 C.3       1 BLG         0.1409
      5 C5        -43.2650   25.5160   -6.5560 C.3       1 BLG         0.1154
      6 O5        -42.5710   25.5540   -5.2880 O.3       1 BLG        -0.3407
      7 O1        -41.3820   24.4520   -3.7010 O.3       1 BLG        -0.3397
      8 N2        -42.9870   22.1960   -4.0050 N.am      1 BLG        -0.2766
      9 C7        -43.1770   21.8370   -2.7320 C.2       1 BLG         0.1733
     10 O7        -43.7400   22.5280   -1.8770 O.2       1 BLG        -0.3974
     11 C8        -42.6200   20.4740   -2.3780 C.3       1 BLG         0.0257
     12 O3        -45.4990   22.7290   -5.4130 O.3       1 BLG        -0.3866
     13 O4        -45.2400   24.5850   -7.5590 O.3       1 BLG        -0.2571
     14 S4        -46.7420   24.9420   -7.6970 S.o2      1 BLG        -0.0733
     15 O41       -47.0310   26.1810   -6.8940 O.co2     1 BLG        -0.4611
     16 O42       -47.5740   23.8220   -7.1560 O.co2     1 BLG        -0.4611
     17 O43       -47.0720   25.1900   -9.1610 O.co2     1 BLG        -0.4611
     18 C6        -43.3910   26.9440   -7.1120 C.3       1 BLG         0.0731
     19 O6        -44.1390   27.6430   -6.1290 O.3       1 BLG        -0.3924
     20 CA        -39.1870   23.7890   -2.9490 C.3       1 BLG         0.0302
     21 CB        -39.9920   24.5260   -4.0140 C.3       1 BLG         0.1135
     22 CG        -39.4850   25.9420   -3.9130 C.3       1 BLG         0.0396
     23 CD        -38.0050   25.7220   -3.8030 C.3       1 BLG         0.0697
     24 N         -37.8540   24.4250   -3.0580 N.4       1 BLG         0.2518
     25 C9        -39.1770   22.2970   -3.2530 C.3       1 BLG         0.0893
     26 O9        -38.2480   22.1240   -4.3630 O.3       1 BLG        -0.3894
     27 C10       -37.2900   26.8980   -3.0610 C.2       1 BLG         0.2247
     28 O10       -37.5360   27.1500   -1.8720 O.2       1 BLG        -0.3909
     29 N3        -36.3880   27.5490   -3.7990 N.am      1 BLG        -0.2809
     30 C11       -35.4800   28.5680   -3.2770 C.3       1 BLG         0.0474
     31 C12       -34.2750   27.7280   -2.8160 C.3       1 BLG         0.0508
     32 S         -32.9150   28.6870   -2.0600 S.o2      1 BLG        -0.1896
     33 OS1       -31.7290   27.7640   -1.8100 O.co2     1 BLG        -0.4845
     34 OS2       -33.3460   29.2320   -0.6920 O.co2     1 BLG        -0.4845
     35 OS3       -32.5190   29.7880   -3.0610 O.co2     1 BLG        -0.4845
     36 H1        -41.6687   23.7200   -5.6407 H         1 BLG         0.0935
     37 H2        -43.9807   24.0598   -3.7101 H         1 BLG         0.0633
     38 H3        -43.7482   22.8021   -6.5137 H         1 BLG         0.0646
     39 H4        -45.2164   25.3537   -5.6382 H         1 BLG         0.0673
     40 H5        -42.6713   24.9327   -7.2752 H         1 BLG         0.0648
     41 H6        -42.5466   21.5580   -4.6367 H         1 BLG         0.1857
     42 H7        -42.8196   20.2605   -1.3175 H         1 BLG         0.0467
     43 H8        -41.5346   20.4639   -2.5560 H         1 BLG         0.0467
     44 H9        -43.1013   19.7075   -3.0032 H         1 BLG         0.0467
     45 H10       -46.0411   22.6364   -6.1876 H         1 BLG         0.2100
     46 H11       -43.9221   26.9408   -8.0753 H         1 BLG         0.0584
     47 H12       -42.3983   27.3997   -7.2421 H         1 BLG         0.0584
     48 H13       -43.6701   27.6239   -5.3030 H         1 BLG         0.2095
     49 H14       -39.6095   23.9492   -1.9461 H         1 BLG         0.0900
     50 H15       -39.8109   24.1099   -5.0160 H         1 BLG         0.0658
     51 H16       -39.8833   26.4489   -3.0217 H         1 BLG         0.0373
     52 H17       -39.7390   26.5249   -4.8106 H         1 BLG         0.0373
     53 H18       -37.5682   25.6277   -4.8081 H         1 BLG         0.1100
     54 H19       -37.2264   23.8159   -3.5592 H         1 BLG         0.2040
     55 H20       -37.4855   24.6028   -2.1368 H         1 BLG         0.2040
     56 H21       -40.1834   21.9577   -3.5394 H         1 BLG         0.0614
     57 H22       -38.8347   21.7295   -2.3751 H         1 BLG         0.0614
     58 H23       -38.2025   21.2042   -4.5960 H         1 BLG         0.2097
     59 H24       -36.3299   27.3249   -4.7718 H         1 BLG         0.1853
     60 H25       -35.9327   29.1111   -2.4344 H         1 BLG         0.0535
     61 H26       -35.1905   29.2831   -4.0611 H         1 BLG         0.0535
     62 H27       -33.8733   27.1968   -3.6915 H         1 BLG         0.0488
     63 H28       -34.6310   26.9970   -2.0751 H         1 BLG         0.0488
@<TRIPOS>BOND
     1    1    2 1  
     2    1    6 1  
     3    1    7 1  
     4    2    3 1  
     5    2    8 1  
     6    3    4 1  
     7    3   12 1  
     8    4    5 1  
     9    4   13 1  
    10    5    6 1  
    11    5   18 1  
    12    7   21 1  
    13    8    9 am 
    14    9   10 2  
    15    9   11 1  
    16   13   14 1  
    17   14   15 ar 
    18   14   16 ar 
    19   14   17 ar 
    20   18   19 1  
    21   21   20 1  
    22   20   24 1  
    23   20   25 1  
    24   21   22 1  
    25   22   23 1  
    26   23   24 1  
    27   23   27 1  
    28   25   26 1  
    29   27   28 2  
    30   27   29 am 
    31   29   30 1  
    32   30   31 1  
    33   31   32 1  
    34   32   33 ar 
    35   32   34 ar 
    36   32   35 ar 
    37    1   36 1  
    38    2   37 1  
    39    3   38 1  
    40    4   39 1  
    41    5   40 1  
    42    8   41 1  
    43   11   42 1  
    44   11   43 1  
    45   11   44 1  
    46   12   45 1  
    47   18   46 1  
    48   18   47 1  
    49   19   48 1  
    50   20   49 1  
    51   21   50 1  
    52   22   51 1  
    53   22   52 1  
    54   23   53 1  
    55   24   54 1  
    56   24   55 1  
    57   25   56 1  
    58   25   57 1  
    59   26   58 1  
    60   29   59 1  
    61   30   60 1  
    62   30   61 1  
    63   31   62 1  
    64   31   63 1  
@<TRIPOS>SUBSTRUCTURE
     1 BLG         1

