### 
### Created by X-TOOL on Wed Jan  1 15:39:35 2020
### 

@<TRIPOS>MOLECULE
6cfd_ligand
  107   111     1     0     0
SMALL
GAST_HUCK


@<TRIPOS>ATOM
      1 C8         -1.1740  100.9150    3.5270 C.3       1 EZA         0.1390
      2 C5         -2.4610  103.1930   -0.6740 C.2       1 EZA        -0.0596
      3 C6         -1.5790  102.4130   -0.0120 C.2       1 EZA        -0.0028
      4 N6         -1.8260  105.4360    7.2320 N.am      1 EZA        -0.2498
      5 N1         -0.9440  101.2110    2.1740 N.am      1 EZA        -0.2687
      6 C2         -2.0150  105.5390   -3.6650 C.3       1 EZA        -0.0534
      7 N3          2.7750  103.6060    2.4850 N.am      1 EZA        -0.2482
      8 C4         -2.2490  103.5330   -2.1110 C.3       1 EZA        -0.0148
      9 C1         -3.2910  105.2560   -4.4540 C.3       1 EZA        -0.0651
     10 C3         -1.9880  105.0560   -2.2140 C.3       1 EZA        -0.0398
     11 C7         -1.8820  102.1120    1.4560 C.2       1 EZA         0.1782
     12 O1         -2.8750  102.5890    1.9850 O.2       1 EZA        -0.4010
     13 C9         -0.4340   99.6710    4.0410 C.3       1 EZA         0.0195
     14 C10        -1.1550   98.4430    3.5610 C.ar      1 EZA        -0.0423
     15 C11        -2.2800   97.9450    4.2120 C.ar      1 EZA        -0.0308
     16 C12        -2.9450   96.8220    3.7090 C.ar      1 EZA         0.1242
     17 F1         -4.0360   96.3170    4.2910 F         1 EZA        -0.1863
     18 C13        -2.4950   96.1720    2.5760 C.ar      1 EZA        -0.0019
     19 C14        -1.3720   96.6860    1.9550 C.ar      1 EZA         0.1242
     20 F2         -0.9550   96.0880    0.8820 F         1 EZA        -0.1863
     21 C15        -0.6900   97.8090    2.4010 C.ar      1 EZA        -0.0308
     22 C16        -0.6840  102.1410    4.2750 C.2       1 EZA         0.2059
     23 O2          0.3870  102.1250    4.8680 O.2       1 EZA        -0.3942
     24 N2         -1.5340  103.3530    4.2660 N.am      1 EZA        -0.2611
     25 C17        -1.1100  104.5210    4.9620 C.3       1 EZA         0.1588
     26 C18        -0.7200  105.6290    4.0080 C.3       1 EZA         0.1168
     27 O3          0.4750  105.2930    3.2840 O.3       1 EZA        -0.2703
     28 C19         1.8070  105.3370    3.8860 C.2       1 EZA         0.2600
     29 O4          2.0220  105.7240    5.0130 O.2       1 EZA        -0.3678
     30 C20         2.7510  104.9250    2.9890 C.3       1 EZA         0.1452
     31 C21         3.0310  105.8690    1.9460 C.3       1 EZA        -0.0064
     32 C22         2.2350  105.1910    0.8550 C.3       1 EZA        -0.0189
     33 C23         2.5990  105.6920   -0.5970 C.3       1 EZA        -0.0604
     34 C24         2.4430  103.7470    1.0370 C.3       1 EZA         0.0396
     35 C25         2.9970  102.3550    3.1880 C.2       1 EZA         0.2062
     36 O5          2.9540  101.3050    2.5670 O.2       1 EZA        -0.3942
     37 C26         3.3530  102.3480    4.6440 C.3       1 EZA         0.1284
     38 C27         4.5840  101.5960    4.9340 C.3       1 EZA        -0.0244
     39 N4          2.6310  103.0000    5.7190 N.am      1 EZA        -0.2640
     40 C28         3.3060  103.7480    6.8020 C.2       1 EZA         0.2041
     41 O6          4.5120  103.8830    6.7820 O.2       1 EZA        -0.3944
     42 C29         2.4910  104.3840    7.9180 C.3       1 EZA         0.1337
     43 C30         3.3800  104.5060    9.1270 C.3       1 EZA        -0.0121
     44 C31         3.2610  103.3780   10.1200 C.3       1 EZA        -0.0470
     45 C32         2.9000  102.1200    9.4770 C.3       1 EZA        -0.0321
     46 C33         1.5730  102.2450    8.7660 C.3       1 EZA         0.0367
     47 N5          1.3630  103.6170    8.2770 N.am      1 EZA        -0.2498
     48 C34        -0.0700  104.0720    8.1970 C.2       1 EZA         0.2066
     49 O7         -0.9210  103.2520    8.5210 O.2       1 EZA        -0.3942
     50 C35        -0.4650  105.4240    7.7510 C.3       1 EZA         0.1340
     51 C36        -0.5470  106.3390    8.9300 C.3       1 EZA        -0.0104
     52 C37        -1.9060  106.9450    8.9110 C.3       1 EZA        -0.0281
     53 C38        -2.7670  105.9740    8.2180 C.3       1 EZA         0.0369
     54 C39        -2.2170  105.0150    5.8800 C.2       1 EZA         0.2091
     55 O8         -3.3940  105.0770    5.5100 O.2       1 EZA        -0.3941
     56 H1         -2.2521  100.7710    3.6911 H         1 EZA         0.0821
     57 H2         -3.3364  103.5779   -0.1530 H         1 EZA         0.0846
     58 H3         -0.6913  102.0161   -0.5023 H         1 EZA         0.0472
     59 H4         -0.1565  100.8192    1.6982 H         1 EZA         0.1865
     60 H5         -1.8615  106.6282   -3.6574 H         1 EZA         0.0265
     61 H6         -1.1808  105.0548   -4.1938 H         1 EZA         0.0265
     62 H7         -3.1446  103.2685   -2.6924 H         1 EZA         0.0488
     63 H8         -1.3821  102.9794   -2.5008 H         1 EZA         0.0488
     64 H9         -3.1854  105.6500   -5.4756 H         1 EZA         0.0230
     65 H10        -4.1438  105.7438   -3.9593 H         1 EZA         0.0230
     66 H11        -3.4632  104.1704   -4.4957 H         1 EZA         0.0230
     67 H12        -2.7645  105.5897   -1.6464 H         1 EZA         0.0296
     68 H13        -1.0007  105.2782   -1.7829 H         1 EZA         0.0296
     69 H14        -0.4141   99.6813    5.1408 H         1 EZA         0.0472
     70 H15         0.5962   99.6686    3.6556 H         1 EZA         0.0472
     71 H16        -2.6420   98.4291    5.1118 H         1 EZA         0.0508
     72 H17        -3.0017   95.2950    2.1898 H         1 EZA         0.0532
     73 H18         0.1762   98.1845    1.8683 H         1 EZA         0.0508
     74 H19        -2.4037  103.3516    3.7725 H         1 EZA         0.1884
     75 H20        -0.2327  104.2608    5.5725 H         1 EZA         0.0827
     76 H21        -0.5451  106.5514    4.5812 H         1 EZA         0.0662
     77 H22        -1.5395  105.7918    3.2925 H         1 EZA         0.0662
     78 H23         3.6604  104.9498    3.6074 H         1 EZA         0.0818
     79 H24         4.1036  105.9265    1.7089 H         1 EZA         0.0317
     80 H25         2.6523  106.8753    2.1781 H         1 EZA         0.0317
     81 H26         1.1694  105.4125    1.0142 H         1 EZA         0.0320
     82 H27         1.9830  105.1569   -1.3347 H         1 EZA         0.0233
     83 H28         3.6628  105.4961   -0.7966 H         1 EZA         0.0233
     84 H29         2.4048  106.7721   -0.6717 H         1 EZA         0.0233
     85 H30         1.5292  103.1868    0.7897 H         1 EZA         0.0527
     86 H31         3.2731  103.3901    0.4096 H         1 EZA         0.0527
     87 H32         2.7313  101.4536    4.7971 H         1 EZA         0.0797
     88 H33         4.7882  101.6296    6.0144 H         1 EZA         0.0277
     89 H34         5.4259  102.0460    4.3876 H         1 EZA         0.0277
     90 H35         4.4581  100.5502    4.6170 H         1 EZA         0.0277
     91 H36         1.6328  102.9415    5.7287 H         1 EZA         0.1883
     92 H37         2.1572  105.3811    7.5949 H         1 EZA         0.0802
     93 H38         3.1273  105.4437    9.6435 H         1 EZA         0.0312
     94 H39         4.4233  104.5476    8.7810 H         1 EZA         0.0312
     95 H40         2.4867  103.6346   10.8579 H         1 EZA         0.0268
     96 H41         4.2268  103.2513   10.6310 H         1 EZA         0.0268
     97 H42         2.8274  101.3319   10.2409 H         1 EZA         0.0285
     98 H43         3.6772  101.8519    8.7462 H         1 EZA         0.0285
     99 H44         0.7646  101.9848    9.4651 H         1 EZA         0.0524
    100 H45         1.5561  101.5523    7.9117 H         1 EZA         0.0524
    101 H46         0.2498  105.7941    7.0013 H         1 EZA         0.0802
    102 H47         0.2189  107.1248    8.8534 H         1 EZA         0.0313
    103 H48        -0.3985  105.7716    9.8606 H         1 EZA         0.0313
    104 H49        -1.8917  107.9011    8.3672 H         1 EZA         0.0287
    105 H50        -2.2655  107.1121    9.9371 H         1 EZA         0.0287
    106 H51        -3.1292  105.1923    8.9019 H         1 EZA         0.0524
    107 H52        -3.6247  106.4647    7.7348 H         1 EZA         0.0524
@<TRIPOS>BOND
     1    1    5 1  
     2    1   13 1  
     3   22    1 1  
     4    3    2 2  
     5    2    8 1  
     6   11    3 1  
     7    4   50 1  
     8    4   53 1  
     9   54    4 am 
    10    5   11 am 
    11    6    9 1  
    12   10    6 1  
    13   30    7 1  
    14    7   34 1  
    15    7   35 am 
    16    8   10 1  
    17   11   12 2  
    18   13   14 1  
    19   14   15 ar 
    20   14   21 ar 
    21   15   16 ar 
    22   16   17 1  
    23   16   18 ar 
    24   19   18 ar 
    25   19   20 1  
    26   21   19 ar 
    27   22   23 2  
    28   24   22 am 
    29   25   24 1  
    30   26   25 1  
    31   25   54 1  
    32   27   26 1  
    33   28   27 1  
    34   28   29 2  
    35   28   30 1  
    36   30   31 1  
    37   31   32 1  
    38   32   33 1  
    39   32   34 1  
    40   35   36 2  
    41   35   37 1  
    42   37   38 1  
    43   37   39 1  
    44   39   40 am 
    45   40   41 2  
    46   40   42 1  
    47   42   43 1  
    48   42   47 1  
    49   43   44 1  
    50   44   45 1  
    51   45   46 1  
    52   46   47 1  
    53   47   48 am 
    54   48   49 2  
    55   48   50 1  
    56   50   51 1  
    57   51   52 1  
    58   52   53 1  
    59   54   55 2  
    60    1   56 1  
    61    2   57 1  
    62    3   58 1  
    63    5   59 1  
    64    6   60 1  
    65    6   61 1  
    66    8   62 1  
    67    8   63 1  
    68    9   64 1  
    69    9   65 1  
    70    9   66 1  
    71   10   67 1  
    72   10   68 1  
    73   13   69 1  
    74   13   70 1  
    75   15   71 1  
    76   18   72 1  
    77   21   73 1  
    78   24   74 1  
    79   25   75 1  
    80   26   76 1  
    81   26   77 1  
    82   30   78 1  
    83   31   79 1  
    84   31   80 1  
    85   32   81 1  
    86   33   82 1  
    87   33   83 1  
    88   33   84 1  
    89   34   85 1  
    90   34   86 1  
    91   37   87 1  
    92   38   88 1  
    93   38   89 1  
    94   38   90 1  
    95   39   91 1  
    96   42   92 1  
    97   43   93 1  
    98   43   94 1  
    99   44   95 1  
   100   44   96 1  
   101   45   97 1  
   102   45   98 1  
   103   46   99 1  
   104   46  100 1  
   105   50  101 1  
   106   51  102 1  
   107   51  103 1  
   108   52  104 1  
   109   52  105 1  
   110   53  106 1  
   111   53  107 1  
@<TRIPOS>SUBSTRUCTURE
     1 EZA         1

