### 
### Created by X-TOOL on Wed Jan  1 15:39:38 2020
### 

@<TRIPOS>MOLECULE
6cgp_ligand
   41    43     1     0     0
SMALL
GAST_HUCK


@<TRIPOS>ATOM
      1 C10       -23.4890   19.1300   23.7490 C.ar      1 F1Y         0.0373
      2 C13       -24.0630   17.7860   23.4560 C.2       1 F1Y         0.2175
      3 C20       -17.6730   23.0540   27.6600 C.2       1 F1Y        -0.0680
      4 C21       -17.3690   23.4770   26.3890 C.2       1 F1Y        -0.0268
      5 C22       -18.4300   23.5340   25.4080 C.2       1 F1Y         0.1221
      6 C01       -18.5390   22.1700   21.2400 C.3       1 F1Y        -0.0641
      7 C02       -19.4680   23.3620   20.9440 C.3       1 F1Y        -0.0509
      8 C03       -20.1050   24.1110   22.1550 C.3       1 F1Y        -0.0304
      9 C04       -19.6960   23.7790   23.6000 C.2       1 F1Y         0.0065
     10 C05       -20.5420   23.3210   24.6330 C.2       1 F1Y         0.1812
     11 C07       -22.4150   21.7440   24.3260 C.ar      1 F1Y         0.0594
     12 C08       -23.7840   21.4670   24.4580 C.ar      1 F1Y        -0.0357
     13 C09       -24.2940   20.1890   24.1730 C.ar      1 F1Y        -0.0536
     14 C11       -22.1230   19.4320   23.6240 C.ar      1 F1Y        -0.0536
     15 C12       -21.5990   20.6940   23.9010 C.ar      1 F1Y        -0.0357
     16 C18       -20.0150   22.7290   27.0830 C.2       1 F1Y         0.0758
     17 C19       -18.9890   22.6810   28.0070 C.2       1 F1Y        -0.0332
     18 N06       -21.9220   23.0310   24.6170 N.pl3     1 F1Y        -0.2617
     19 N15       -23.3300   16.7400   22.8320 N.am      1 F1Y        -0.1654
     20 N17       -19.7140   23.1630   25.7750 N.pl3     1 F1Y        -0.1892
     21 N23       -18.3860   23.9200   24.0840 N.2       1 F1Y        -0.3554
     22 O14       -25.2500   17.5320   23.7610 O.2       1 F1Y        -0.3914
     23 O16       -23.9810   15.5520   22.6180 O.3       1 F1Y        -0.2723
     24 H1        -16.8863   23.0057   28.4115 H         1 F1Y         0.0585
     25 H2        -16.3517   23.7631   26.1259 H         1 F1Y         0.0558
     26 H3        -18.1704   21.7485   20.2932 H         1 F1Y         0.0231
     27 H4        -19.0963   21.3990   21.7922 H         1 F1Y         0.0231
     28 H5        -17.6866   22.5110   21.8459 H         1 F1Y         0.0231
     29 H6        -20.2930   22.9871   20.3204 H         1 F1Y         0.0277
     30 H7        -18.8833   24.0991   20.3741 H         1 F1Y         0.0277
     31 H8        -21.1900   23.9416   22.0911 H         1 F1Y         0.0358
     32 H9        -19.8915   25.1800   22.0081 H         1 F1Y         0.0358
     33 H10       -24.4583   22.2504   24.7847 H         1 F1Y         0.0534
     34 H11       -25.3583   20.0180   24.2873 H         1 F1Y         0.0633
     35 H12       -21.4468   18.6500   23.2980 H         1 F1Y         0.0633
     36 H13       -20.5348   20.8636   23.7838 H         1 F1Y         0.0534
     37 H14       -21.0285   22.4397   27.3570 H         1 F1Y         0.1158
     38 H15       -19.1999   22.3490   29.0225 H         1 F1Y         0.0522
     39 H16       -22.5917   23.7854   24.8250 H         1 F1Y         0.2057
     40 H17       -22.3761   16.8656   22.5595 H         1 F1Y         0.2208
     41 H18       -24.2695   15.1959   23.4501 H         1 F1Y         0.2490
@<TRIPOS>BOND
     1    1    2 1  
     2   13    1 ar 
     3    1   14 ar 
     4    2   19 am 
     5    2   22 2  
     6    4    3 2  
     7    3   17 1  
     8    5    4 1  
     9   20    5 1  
    10    5   21 2  
    11    7    6 1  
    12    8    7 1  
    13    9    8 1  
    14   10    9 2  
    15    9   21 1  
    16   18   10 1  
    17   10   20 1  
    18   12   11 ar 
    19   11   15 ar 
    20   11   18 1  
    21   12   13 ar 
    22   14   15 ar 
    23   17   16 2  
    24   16   20 1  
    25   19   23 1  
    26    3   24 1  
    27    4   25 1  
    28    6   26 1  
    29    6   27 1  
    30    6   28 1  
    31    7   29 1  
    32    7   30 1  
    33    8   31 1  
    34    8   32 1  
    35   12   33 1  
    36   13   34 1  
    37   14   35 1  
    38   15   36 1  
    39   16   37 1  
    40   17   38 1  
    41   18   39 1  
    42   19   40 1  
    43   23   41 1  
@<TRIPOS>SUBSTRUCTURE
     1 F1Y         1

