### 
### Created by X-TOOL on Mon Sep 10 21:12:46 2018
### 

@<TRIPOS>MOLECULE
6cgt_ligand
  133   140     1     0     0
SMALL
GAST_HUCK


@<TRIPOS>ATOM
      1 C1         14.4730   19.4970    5.4140 C.3       1 GLC         0.1854
      2 C2         13.5670   20.3150    6.4470 C.3       1 GLC         0.1339
      3 C3         13.8030   19.9070    7.9330 C.3       1 GLC         0.1144
      4 C4         13.7680   18.4120    8.0500 C.3       1 GLC         0.1184
      5 C5         14.8490   17.8800    7.1490 C.3       1 GLC         0.1134
      6 C6         15.1800   16.4330    7.3090 C.3       1 GLC         0.0730
      7 O1         15.7920   19.8940    5.5670 O.3       1 GLC        -0.3649
      8 O2         13.8460   21.6980    6.3150 O.3       1 GLC        -0.3841
      9 O3         12.7990   20.4840    8.7490 O.3       1 GLC        -0.3864
     10 O4         13.9770   18.0040    9.4240 O.3       1 GLC        -0.3401
     11 O5         14.4650   18.0930    5.7920 O.3       1 GLC        -0.3407
     12 O6         14.1120   15.6310    6.9180 O.3       1 GLC        -0.3924
     13 C1         12.8790   17.4470   10.0880 C.3       1 DAG         0.1886
     14 C2         12.6740   18.1060   11.4230 C.3       1 DAG         0.1370
     15 C3         13.6560   17.6120   12.5040 C.3       1 DAG         0.1304
     16 C4         13.6860   16.1160   12.5560 C.3       1 DAG         0.0335
     17 C5         14.0470   15.5790   11.1850 C.3       1 DAG         0.1038
     18 C6         14.0860   14.0610   11.1560 C.3       1 DAG        -0.0332
     19 O2         12.8650   19.4720   11.2220 O.3       1 DAG        -0.3840
     20 O3         13.2360   18.0970   13.7610 O.3       1 DAG        -0.3834
     21 N4         14.6650   15.6490   13.5320 N.4       1 DAG         0.2389
     22 O5         13.0540   15.9880   10.2000 O.3       1 DAG        -0.3401
     23 C1         14.3140   15.3700   14.9640 C.3       1 OPG         0.0365
     24 C2         15.2220   14.2660   15.4960 C.3       1 OPG         0.1283
     25 O2         16.5920   14.5650   15.2320 O.3       1 OPG        -0.3834
     26 C3         14.8630   12.9310   14.8740 C.3       1 OPG         0.1154
     27 O3         15.8930   12.0030   15.2180 O.3       1 OPG        -0.3863
     28 C4         13.4850   12.4050   15.3990 C.3       1 OPG         0.1238
     29 O4         13.0640   11.2600   14.6050 O.3       1 OPG        -0.3398
     30 C5         12.3570   13.5040   15.3480 C.3       1 OPG         0.1528
     31 O8         12.0810   14.2170   14.1500 O.3       1 OPG        -0.3537
     32 C7         11.2870   13.3320   16.4070 C.3       1 OPG         0.0785
     33 C6         12.8390   14.9360   15.1510 C.3       1 OPG         0.1380
     34 O7         11.8060   12.7650   17.5900 O.3       1 OPG        -0.3920
     35 C1         12.5240   10.1460   15.2520 C.3       1 GLC         0.1885
     36 C2         13.3290    8.9560   14.9150 C.3       1 GLC         0.1341
     37 C3         13.3130    8.7180   13.4120 C.3       1 GLC         0.1144
     38 C4         11.8840    8.5140   12.9370 C.3       1 GLC         0.1184
     39 C5         11.0430    9.7530   13.3900 C.3       1 GLC         0.1134
     40 C6          9.5520    9.6590   13.0730 C.3       1 GLC         0.0730
     41 O2         14.6530    9.1590   15.3540 O.3       1 GLC        -0.3841
     42 O3         14.0820    7.5910   13.1010 O.3       1 GLC        -0.3864
     43 O4         11.8760    8.4180   11.4760 O.3       1 GLC        -0.3401
     44 O5         11.1560    9.9620   14.8210 O.3       1 GLC        -0.3405
     45 O6          8.9290    8.5350   13.7090 O.3       1 GLC        -0.3924
     46 C1         12.1100    7.1900   10.8730 C.3       1 DAG         0.1886
     47 C2         12.2540    7.3900    9.3340 C.3       1 DAG         0.1370
     48 C3         10.9240    7.8860    8.7410 C.3       1 DAG         0.1304
     49 C4          9.7620    6.9920    9.2100 C.3       1 DAG         0.0335
     50 C5          9.7600    6.8470   10.7170 C.3       1 DAG         0.1038
     51 C6          8.6810    5.9330   11.2270 C.3       1 DAG        -0.0332
     52 O2         13.2870    8.3360    9.0630 O.3       1 DAG        -0.3840
     53 O3         11.0030    7.8520    7.3110 O.3       1 DAG        -0.3834
     54 N4          8.5230    7.6070    8.7960 N.4       1 DAG         0.2389
     55 O5         11.0340    6.3060   11.1580 O.3       1 DAG        -0.3401
     56 C1          7.4520    6.8440    8.1480 C.3       1 OPG         0.0365
     57 C2          7.5420    6.9980    6.6160 C.3       1 OPG         0.1283
     58 O2          8.7630    6.4390    6.0920 O.3       1 OPG        -0.3834
     59 C3          7.4480    8.5120    6.2890 C.3       1 OPG         0.1150
     60 O3          7.8320    8.7350    4.9200 O.3       1 OPG        -0.3863
     61 C4          5.9600    9.0500    6.5590 C.3       1 OPG         0.1173
     62 O4          5.9560   10.4780    6.5650 O.3       1 OPG        -0.3861
     63 C5          5.3230    8.5590    7.9310 C.3       1 OPG         0.1525
     64 O8          5.9700    8.7760    9.2320 O.3       1 OPG        -0.3537
     65 C7          3.8030    8.2800    7.7990 C.3       1 OPG         0.0784
     66 C6          6.1010    7.4320    8.6390 C.3       1 OPG         0.1380
     67 O7          3.5230    7.4460    6.6760 O.3       1 OPG        -0.3920
     68 H1         14.1207   19.6427    4.3822 H         1 GLC         0.0935
     69 H2         12.5109   20.1323    6.1996 H         1 GLC         0.0671
     70 H3         14.7878   20.2727    8.2590 H         1 GLC         0.0648
     71 H4         12.7905   18.0363    7.7135 H         1 GLC         0.0651
     72 H5         15.7632   18.4551    7.3573 H         1 GLC         0.0647
     73 H6         15.4131   16.2319    8.3650 H         1 GLC         0.0584
     74 H7         16.0558   16.1935    6.6881 H         1 GLC         0.0584
     75 H8         16.0561   19.7697    6.4711 H         1 GLC         0.2126
     76 H9         14.7493   21.8623    6.5588 H         1 GLC         0.2101
     77 H10        12.9485   20.2384    9.6544 H         1 GLC         0.2100
     78 H11        13.9092   15.7986    6.0052 H         1 GLC         0.2095
     79 H12        11.9800   17.6334    9.4822 H         1 GLC         0.0938
     80 H13        11.6466   17.9154   11.7667 H         1 GLC         0.0672
     81 H14        14.6643   17.9891   12.2782 H         1 GLC         0.0679
     82 H15        12.6903   15.7463   12.8421 H         1 GLC         0.0903
     83 H16        15.0339   15.9743   10.9025 H         1 GLC         0.0652
     84 H17        14.3512   13.7203   10.1443 H         1 GLC         0.0257
     85 H18        13.0974   13.6635   11.4293 H         1 GLC         0.0257
     86 H19        14.8376   13.6997   11.8733 H         1 GLC         0.0257
     87 H20        12.7051   19.9360   12.0354 H         1 GLC         0.2101
     88 H21        13.8451   17.8080   14.4303 H         1 GLC         0.2102
     89 H22        15.3917   16.3472   13.5540 H         1 GLC         0.2023
     90 H23        15.0374   14.7879   13.1634 H         1 GLC         0.2023
     91 H24        14.4822   16.2878   15.5465 H         1 GLC         0.0904
     92 H25        15.0816   14.1955   16.5847 H         1 GLC         0.0678
     93 H26        16.7227   14.6443   14.2944 H         1 GLC         0.2102
     94 H27        14.8110   13.0402   13.7807 H         1 GLC         0.0648
     95 H28        16.7241   12.3140   14.8788 H         1 GLC         0.2100
     96 H29        13.6132   12.0878   16.4444 H         1 GLC         0.0654
     97 H30        10.4988   12.6737   16.0129 H         1 GLC         0.0588
     98 H31        10.8581   14.3171   16.6429 H         1 GLC         0.0588
     99 H32        12.3392   15.7342   15.7195 H         1 GLC         0.0685
    100 H33        12.4842   13.3308   17.9400 H         1 GLC         0.2095
    101 H34        12.5452   10.3052   16.3402 H         1 GLC         0.0938
    102 H35        12.9073    8.0763   15.4233 H         1 GLC         0.0671
    103 H36        13.7392    9.5957   12.9042 H         1 GLC         0.0648
    104 H37        11.4663    7.5948   13.3737 H         1 GLC         0.0651
    105 H38        11.4488   10.6327   12.8691 H         1 GLC         0.0647
    106 H39         9.4274    9.5629   11.9843 H         1 GLC         0.0584
    107 H40         9.0584   10.5792   13.4188 H         1 GLC         0.0584
    108 H41        15.0194    9.9160   14.9122 H         1 GLC         0.2101
    109 H42        14.0794    7.4569   12.1605 H         1 GLC         0.2100
    110 H43         9.0254    8.6120   14.6509 H         1 GLC         0.2095
    111 H44        13.0422    6.7618   11.2700 H         1 GLC         0.0938
    112 H45        12.5171    6.4279    8.8702 H         1 GLC         0.0672
    113 H46        10.7423    8.9189    9.0727 H         1 GLC         0.0679
    114 H47         9.8571    5.9975    8.7498 H         1 GLC         0.0903
    115 H48         9.6141    7.8440   11.1582 H         1 GLC         0.0652
    116 H49         8.7382    5.8745   12.3240 H         1 GLC         0.0257
    117 H50         8.8180    4.9291   10.7987 H         1 GLC         0.0257
    118 H51         7.6972    6.3265   10.9317 H         1 GLC         0.0257
    119 H52        14.1052    8.0241    9.4315 H         1 GLC         0.2101
    120 H53        10.1877    8.1710    6.9422 H         1 GLC         0.2102
    121 H54         8.7743    8.3413    8.1528 H         1 GLC         0.2023
    122 H55         8.1182    8.0112    9.6259 H         1 GLC         0.2023
    123 H56         7.5272    5.7808    8.4201 H         1 GLC         0.0904
    124 H57         6.6931    6.4738    6.1528 H         1 GLC         0.0678
    125 H58         9.5065    6.8845    6.4811 H         1 GLC         0.2102
    126 H59         8.1421    9.0596    6.9435 H         1 GLC         0.0648
    127 H60         8.7252    8.4384    4.7905 H         1 GLC         0.2100
    128 H61         5.3209    8.6927    5.7381 H         1 GLC         0.0651
    129 H62         5.0732   10.7904    6.7252 H         1 GLC         0.2100
    130 H63         3.2729    9.2359    7.6759 H         1 GLC         0.0588
    131 H64         3.4501    7.7800    8.7130 H         1 GLC         0.0588
    132 H65         5.5277    6.6034    9.0802 H         1 GLC         0.0685
    133 H66         3.9747    6.6165    6.7785 H         1 GLC         0.2095
@<TRIPOS>BOND
     1    1    2 1  
     2    1    7 1  
     3    1   11 1  
     4    2    3 1  
     5    2    8 1  
     6    3    4 1  
     7    3    9 1  
     8    4    5 1  
     9    4   10 1  
    10    5    6 1  
    11    5   11 1  
    12    6   12 1  
    13   10   13 1  
    14   13   14 1  
    15   13   22 1  
    16   14   15 1  
    17   14   19 1  
    18   15   16 1  
    19   15   20 1  
    20   16   17 1  
    21   16   21 1  
    22   17   18 1  
    23   17   22 1  
    24   21   23 1  
    25   23   24 1  
    26   23   33 1  
    27   24   25 1  
    28   24   26 1  
    29   26   27 1  
    30   26   28 1  
    31   28   29 1  
    32   28   30 1  
    33   29   35 1  
    34   30   31 1  
    35   30   32 1  
    36   30   33 1  
    37   31   33 1  
    38   32   34 1  
    39   35   36 1  
    40   35   44 1  
    41   36   37 1  
    42   36   41 1  
    43   37   38 1  
    44   37   42 1  
    45   38   39 1  
    46   38   43 1  
    47   39   40 1  
    48   39   44 1  
    49   40   45 1  
    50   43   46 1  
    51   46   47 1  
    52   46   55 1  
    53   47   48 1  
    54   47   52 1  
    55   48   49 1  
    56   48   53 1  
    57   49   50 1  
    58   49   54 1  
    59   50   51 1  
    60   50   55 1  
    61   54   56 1  
    62   56   57 1  
    63   56   66 1  
    64   57   58 1  
    65   57   59 1  
    66   59   60 1  
    67   59   61 1  
    68   61   62 1  
    69   61   63 1  
    70   63   64 1  
    71   63   65 1  
    72   63   66 1  
    73   64   66 1  
    74   65   67 1  
    75    1   68 1  
    76    2   69 1  
    77    3   70 1  
    78    4   71 1  
    79    5   72 1  
    80    6   73 1  
    81    6   74 1  
    82    7   75 1  
    83    8   76 1  
    84    9   77 1  
    85   12   78 1  
    86   13   79 1  
    87   14   80 1  
    88   15   81 1  
    89   16   82 1  
    90   17   83 1  
    91   18   84 1  
    92   18   85 1  
    93   18   86 1  
    94   19   87 1  
    95   20   88 1  
    96   21   89 1  
    97   21   90 1  
    98   23   91 1  
    99   24   92 1  
   100   25   93 1  
   101   26   94 1  
   102   27   95 1  
   103   28   96 1  
   104   32   97 1  
   105   32   98 1  
   106   33   99 1  
   107   34  100 1  
   108   35  101 1  
   109   36  102 1  
   110   37  103 1  
   111   38  104 1  
   112   39  105 1  
   113   40  106 1  
   114   40  107 1  
   115   41  108 1  
   116   42  109 1  
   117   45  110 1  
   118   46  111 1  
   119   47  112 1  
   120   48  113 1  
   121   49  114 1  
   122   50  115 1  
   123   51  116 1  
   124   51  117 1  
   125   51  118 1  
   126   52  119 1  
   127   53  120 1  
   128   54  121 1  
   129   54  122 1  
   130   56  123 1  
   131   57  124 1  
   132   58  125 1  
   133   59  126 1  
   134   60  127 1  
   135   61  128 1  
   136   62  129 1  
   137   65  130 1  
   138   65  131 1  
   139   66  132 1  
   140   67  133 1  
@<TRIPOS>SUBSTRUCTURE
     1 GLC         1

