### 
### Created by X-TOOL on Wed Jan  1 15:39:35 2020
### 

@<TRIPOS>MOLECULE
6chh_ligand
   71    74     1     0     0
SMALL
GAST_HUCK


@<TRIPOS>ATOM
      1 C4          2.8480    1.8640   -9.5840 C.ar      1 F0P         0.1613
      2 C14        -7.3590   -3.6600   -7.9480 C.2       1 F0P         0.2008
      3 C5          3.2980    1.3190  -10.7800 C.ar      1 F0P         0.1045
      4 C6          4.6250    0.9420  -10.8920 C.ar      1 F0P         0.1298
      5 C11        -8.7940   -2.2510   -6.5120 C.ar      1 F0P        -0.0489
      6 C7         -6.8460   -0.2610   -6.2900 C.ar      1 F0P        -0.0325
      7 C8          1.1730    1.7730  -10.9620 C.2       1 F0P         0.1123
      8 C9         -8.0800   -0.1180   -5.6530 C.ar      1 F0P        -0.0559
      9 C10        -9.0580   -1.1070   -5.7630 C.ar      1 F0P        -0.0629
     10 C12        -7.5660   -2.3980   -7.1460 C.ar      1 F0P         0.0429
     11 C13        -6.5790   -1.4080   -7.0520 C.ar      1 F0P        -0.0405
     12 N1          5.4500    1.1160   -9.8380 N.ar      1 F0P        -0.2698
     13 C3         -5.8590    0.8780   -6.1160 C.3       1 F0P         0.0222
     14 N3          3.7120    2.0250   -8.5610 N.ar      1 F0P        -0.2714
     15 N          -1.6530    2.4520   -1.6420 N.4       1 F0P         0.2327
     16 CA         -2.8660    3.2340   -1.9910 C.3       1 F0P         0.0285
     17 C          -4.1310    2.5450   -1.4800 C.2       1 F0P         0.0844
     18 O          -4.0150    1.5760   -0.6980 O.co2     1 F0P        -0.5643
     19 CB         -2.8220    3.4850   -3.5120 C.3       1 F0P         0.0072
     20 CG         -3.0440    1.9860   -5.5570 C.3       1 F0P        -0.0314
     21 ND         -3.6820    1.9360   -6.9000 N.4       1 F0P         0.2386
     22 CE         -4.7030    0.8740   -7.1160 C.3       1 F0P        -0.0221
     23 OXT        -5.2760    2.9590   -1.7770 O.co2     1 F0P        -0.5643
     24 C1         -3.7750    2.7580   -4.4580 C.3       1 F0P        -0.0058
     25 C1'         0.6660    2.7260   -8.6900 C.3       1 F0P         0.2011
     26 C2          4.9950    1.6520   -8.6910 C.ar      1 F0P         0.0533
     27 C2'        -0.2520    3.8170   -9.2010 C.3       1 F0P         0.1386
     28 C3'        -1.3440    3.8270   -8.1430 C.3       1 F0P         0.1174
     29 C4'        -1.3550    2.3980   -7.5980 C.3       1 F0P         0.1300
     30 C5'        -2.6350    1.6350   -7.8950 C.3       1 F0P        -0.0022
     31 N16        -6.0770   -4.2530   -8.0640 N.am      1 F0P        -0.3001
     32 N6          5.0900    0.3990  -12.0410 N.pl3     1 F0P        -0.3152
     33 N7          2.2460    1.2640  -11.6200 N.2       1 F0P        -0.2958
     34 N9          1.5480    2.1430   -9.7250 N.pl3     1 F0P        -0.1919
     35 O15        -8.3240   -4.1560   -8.4950 O.2       1 F0P        -0.3849
     36 O2'         0.4700    5.0220   -9.1720 O.3       1 F0P        -0.3836
     37 O3'        -0.9560    4.6620   -7.0570 O.3       1 F0P        -0.3863
     38 O4'        -0.2460    1.7390   -8.2030 O.3       1 F0P        -0.3338
     39 H1         -9.5461   -3.0266   -6.6005 H         1 F0P         0.0611
     40 H2          0.1682    1.8667  -11.3712 H         1 F0P         0.1349
     41 H3         -8.2806    0.7713   -5.0664 H         1 F0P         0.0592
     42 H4        -10.0155   -0.9859   -5.2695 H         1 F0P         0.0611
     43 H5         -5.6278   -1.5261   -7.5582 H         1 F0P         0.0607
     44 H6         -5.4365    0.8146   -5.1024 H         1 F0P         0.0479
     45 H7         -6.4056    1.8261   -6.2267 H         1 F0P         0.0479
     46 H8         -0.8351    2.9275   -1.9899 H         1 F0P         0.2010
     47 H9         -1.7120    1.5363   -2.0591 H         1 F0P         0.2010
     48 H10        -1.5883    2.3614   -0.6402 H         1 F0P         0.2010
     49 H11        -2.8085    4.2112   -1.4892 H         1 F0P         0.1024
     50 H12        -1.8029    3.2334   -3.8409 H         1 F0P         0.0340
     51 H13        -2.9988    4.5610   -3.6564 H         1 F0P         0.0340
     52 H14        -2.0526    2.4465   -5.6798 H         1 F0P         0.0814
     53 H15        -2.9262    0.9492   -5.2091 H         1 F0P         0.0814
     54 H16        -4.1004    2.8346   -7.0832 H         1 F0P         0.2036
     55 H17        -5.1232    1.0043   -8.1242 H         1 F0P         0.0838
     56 H18        -4.1994   -0.1018   -7.0519 H         1 F0P         0.0838
     57 H19        -4.4359    3.5000   -4.9298 H         1 F0P         0.0320
     58 H20        -4.3786    2.0490   -3.8724 H         1 F0P         0.0320
     59 H21         1.2929    3.1144   -7.8738 H         1 F0P         0.0996
     60 H22         5.6757    1.7849   -7.8579 H         1 F0P         0.0996
     61 H23        -0.6457    3.6117  -10.2074 H         1 F0P         0.0676
     62 H24        -2.3162    4.1302   -8.5588 H         1 F0P         0.0649
     63 H25        -1.2192    2.4303   -6.5069 H         1 F0P         0.0678
     64 H26        -2.9977    1.9190   -8.8939 H         1 F0P         0.0841
     65 H27        -2.4216    0.5561   -7.8754 H         1 F0P         0.0841
     66 H28        -5.9595   -5.0892   -8.5997 H         1 F0P         0.1808
     67 H29        -5.2899   -3.8352   -7.6101 H         1 F0P         0.1808
     68 H30         6.0790    0.1212  -12.1160 H         1 F0P         0.1820
     69 H31         4.4549    0.2635  -12.8405 H         1 F0P         0.1820
     70 H32         0.8686    5.1305   -8.3165 H         1 F0P         0.2101
     71 H33        -0.0935    4.4045   -6.7535 H         1 F0P         0.2100
@<TRIPOS>BOND
     1    1    3 ar 
     2    1   14 ar 
     3   34    1 1  
     4   10    2 1  
     5    2   31 am 
     6    2   35 2  
     7    3    4 ar 
     8   33    3 1  
     9    4   12 ar 
    10    4   32 1  
    11    9    5 ar 
    12   10    5 ar 
    13    6    8 ar 
    14    6   11 ar 
    15   13    6 1  
    16    7   33 2  
    17   34    7 1  
    18    8    9 ar 
    19   11   10 ar 
    20   26   12 ar 
    21   22   13 1  
    22   14   26 ar 
    23   16   15 1  
    24   16   17 1  
    25   19   16 1  
    26   17   18 ar 
    27   17   23 ar 
    28   24   19 1  
    29   21   20 1  
    30   20   24 1  
    31   21   22 1  
    32   30   21 1  
    33   27   25 1  
    34   25   34 1  
    35   25   38 1  
    36   28   27 1  
    37   27   36 1  
    38   29   28 1  
    39   28   37 1  
    40   29   30 1  
    41   29   38 1  
    42    5   39 1  
    43    7   40 1  
    44    8   41 1  
    45    9   42 1  
    46   11   43 1  
    47   13   44 1  
    48   13   45 1  
    49   15   46 1  
    50   15   47 1  
    51   15   48 1  
    52   16   49 1  
    53   19   50 1  
    54   19   51 1  
    55   20   52 1  
    56   20   53 1  
    57   21   54 1  
    58   22   55 1  
    59   22   56 1  
    60   24   57 1  
    61   24   58 1  
    62   25   59 1  
    63   26   60 1  
    64   27   61 1  
    65   28   62 1  
    66   29   63 1  
    67   30   64 1  
    68   30   65 1  
    69   31   66 1  
    70   31   67 1  
    71   32   68 1  
    72   32   69 1  
    73   36   70 1  
    74   37   71 1  
@<TRIPOS>SUBSTRUCTURE
     1 F0P         1

