### 
### Created by X-TOOL on Wed Jan  1 15:39:36 2020
### 

@<TRIPOS>MOLECULE
6chl_ligand
   36    38     1     0     0
SMALL
GAST_HUCK


@<TRIPOS>ATOM
      1 C1        170.1530  168.8840   55.3990 C.2       1 EXJ         0.0677
      2 C2        171.0800  169.6280   54.7270 C.2       1 EXJ         0.0200
      3 C3        171.3310  171.0140   55.0270 C.2       1 EXJ         0.2310
      4 C13       169.8630  175.0090   58.4920 C.3       1 EXJ         0.0922
      5 C14       169.3830  175.7830   59.7370 C.3       1 EXJ         0.1043
      6 C15       169.9450  177.1270   59.8440 C.1       1 EXJ         0.0941
      7 C16       169.4450  175.6780   57.1940 C.ar      1 EXJ        -0.0165
      8 C17       168.1810  175.4420   56.6620 C.ar      1 EXJ        -0.0443
      9 C18       167.8220  176.0310   55.4650 C.ar      1 EXJ         0.0338
     10 C19       168.6820  176.8680   54.7790 C.ar      1 EXJ        -0.0548
     11 C20       169.9410  177.1090   55.3120 C.ar      1 EXJ        -0.0680
     12 C21       170.3210  176.5140   56.5070 C.ar      1 EXJ        -0.0580
     13 N4        170.5440  171.4860   56.0970 N.am      1 EXJ        -0.0898
     14 C5        169.6190  170.7540   56.7530 C.2       1 EXJ         0.2851
     15 N6        169.4180  169.4580   56.4060 N.pl3     1 EXJ        -0.2099
     16 N7        170.6190  172.7360   56.6550 N.2       1 EXJ        -0.1855
     17 C8        169.7100  172.6400   57.6120 C.2       1 EXJ         0.1335
     18 N9        169.0490  171.4520   57.7170 N.2       1 EXJ        -0.2712
     19 C10       169.8660  167.4440   55.1100 C.3       1 EXJ         0.0054
     20 O11       172.0760  171.7790   54.4180 O.2       1 EXJ        -0.3972
     21 N12       169.3960  173.6260   58.5700 N.pl3     1 EXJ        -0.2985
     22 CL        166.2570  175.6790   54.7910 Cl        1 EXJ        -0.0725
     23 N23       170.3730  178.1670   59.9700 N.1       1 EXJ        -0.3033
     24 H1        171.6530  169.1538   53.9316 H         1 EXJ         0.0224
     25 H2        170.9627  174.9942   58.5108 H         1 EXJ         0.0730
     26 H3        169.6713  175.2135   60.6328 H         1 EXJ         0.0602
     27 H4        168.2871  175.8671   59.6928 H         1 EXJ         0.0602
     28 H5        167.4815  174.7992   57.1842 H         1 EXJ         0.0562
     29 H6        168.3797  177.3266   53.8445 H         1 EXJ         0.0565
     30 H7        170.6304  177.7648   54.7926 H         1 EXJ         0.0599
     31 H8        171.3098  176.7021   56.9094 H         1 EXJ         0.0559
     32 H9        168.7082  168.9004   56.9022 H         1 EXJ         0.2337
     33 H10       170.5125  167.0988   54.2897 H         1 EXJ         0.0488
     34 H11       168.8115  167.3317   54.8178 H         1 EXJ         0.0488
     35 H12       170.0631  166.8430   56.0100 H         1 EXJ         0.0488
     36 H13       168.8047  173.3567   59.3692 H         1 EXJ         0.1776
@<TRIPOS>BOND
     1    1    2 2  
     2   15    1 1  
     3    1   19 1  
     4    3    2 1  
     5   13    3 am 
     6    3   20 2  
     7    4    5 1  
     8    4    7 1  
     9   21    4 1  
    10    5    6 1  
    11    6   23 3  
    12    7    8 ar 
    13    7   12 ar 
    14    8    9 ar 
    15    9   10 ar 
    16    9   22 1  
    17   11   10 ar 
    18   12   11 ar 
    19   14   13 1  
    20   16   13 1  
    21   14   15 1  
    22   18   14 2  
    23   17   16 2  
    24   17   18 1  
    25   17   21 1  
    26    2   24 1  
    27    4   25 1  
    28    5   26 1  
    29    5   27 1  
    30    8   28 1  
    31   10   29 1  
    32   11   30 1  
    33   12   31 1  
    34   15   32 1  
    35   19   33 1  
    36   19   34 1  
    37   19   35 1  
    38   21   36 1  
@<TRIPOS>SUBSTRUCTURE
     1 EXJ         1

