### 
### Created by X-TOOL on Wed Jan  1 15:39:37 2020
### 

@<TRIPOS>MOLECULE
6chm_ligand
   42    43     1     0     0
SMALL
GAST_HUCK


@<TRIPOS>ATOM
      1 C1         12.1430  162.6680   35.8760 C.ar      1 F1V         0.0724
      2 C2         13.1510  161.7000   35.8260 C.ar      1 F1V        -0.0456
      3 C3         12.9260  160.4990   35.1730 C.ar      1 F1V        -0.0495
      4 O1          7.8710  164.5470   32.9330 O.2       1 F1V        -0.3443
      5 C11        11.1180  164.2870   31.2660 C.3       1 F1V        -0.0535
      6 C12         9.2370  165.6570   30.3750 C.3       1 F1V        -0.0535
      7 C13        10.1880  166.1830   32.6010 C.3       1 F1V        -0.0535
      8 C14        10.6660  161.2570   34.6180 C.ar      1 F1V        -0.0313
      9 C15        10.9120  162.4670   35.2640 C.ar      1 F1V        -0.0487
     10 C9          8.7820  164.1200   32.2350 C.2       1 F1V         0.2011
     11 C10         9.8340  165.0500   31.6330 C.3       1 F1V         0.0429
     12 N1          8.8980  162.8280   31.9050 N.am      1 F1V        -0.2846
     13 C8          7.9420  161.8140   32.3310 C.3       1 F1V         0.0350
     14 C7          8.1930  161.3650   33.7570 C.3       1 F1V        -0.0168
     15 C6          9.5260  160.7010   33.9410 C.2       1 F1V        -0.0483
     16 O          12.2050  163.8740   36.5230 O.3       1 F1V        -0.3302
     17 C          13.3870  164.1910   37.2310 C.3       1 F1V         0.0567
     18 C4         11.6860  160.2860   34.5760 C.ar      1 F1V         0.0512
     19 N          11.1960  159.2030   33.8880 N.pl3     1 F1V        -0.2936
     20 C5          9.9020  159.4620   33.5190 C.2       1 F1V         0.0141
     21 H1         14.1083  161.8893   36.2981 H         1 F1V         0.0482
     22 H2         13.6993  159.7407   35.1277 H         1 F1V         0.0526
     23 H3         11.8503  164.9867   30.8368 H         1 F1V         0.0221
     24 H4         10.8821  163.5054   30.5289 H         1 F1V         0.0221
     25 H5         11.5400  163.8233   32.1698 H         1 F1V         0.0221
     26 H6          8.3180  166.2040   30.6324 H         1 F1V         0.0221
     27 H7          8.9989  164.8566   29.6590 H         1 F1V         0.0221
     28 H8          9.9617  166.3500   29.9227 H         1 F1V         0.0221
     29 H9         10.6222  165.7591   33.5185 H         1 F1V         0.0221
     30 H10         9.2783  166.7478   32.8529 H         1 F1V         0.0221
     31 H11        10.9178  166.8557   32.1269 H         1 F1V         0.0221
     32 H12        10.1533  163.2408   35.2887 H         1 F1V         0.0435
     33 H13         9.6746  162.5463   31.3415 H         1 F1V         0.1858
     34 H14         8.0259  160.9434   31.6640 H         1 F1V         0.0536
     35 H15         6.9266  162.2315   32.2631 H         1 F1V         0.0536
     36 H16         7.4051  160.6528   34.0433 H         1 F1V         0.0367
     37 H17         8.1475  162.2459   34.4142 H         1 F1V         0.0367
     38 H18        13.2829  165.1842   37.6922 H         1 F1V         0.0573
     39 H19        14.2400  164.1969   36.5365 H         1 F1V         0.0573
     40 H20        13.5577  163.4387   38.0151 H         1 F1V         0.0573
     41 H21        11.7160  158.3379   33.6830 H         1 F1V         0.2193
     42 H22         9.2641  158.7740   32.9661 H         1 F1V         0.0790
@<TRIPOS>BOND
     1    1    2 ar 
     2    9    1 ar 
     3    1   16 1  
     4    3    2 ar 
     5   18    3 ar 
     6   10    4 2  
     7   11    5 1  
     8   11    6 1  
     9   11    7 1  
    10    8    9 ar 
    11   15    8 1  
    12    8   18 ar 
    13   10   11 1  
    14   12   10 am 
    15   13   12 1  
    16   14   13 1  
    17   14   15 1  
    18   15   20 2  
    19   16   17 1  
    20   18   19 1  
    21   19   20 1  
    22    2   21 1  
    23    3   22 1  
    24    5   23 1  
    25    5   24 1  
    26    5   25 1  
    27    6   26 1  
    28    6   27 1  
    29    6   28 1  
    30    7   29 1  
    31    7   30 1  
    32    7   31 1  
    33    9   32 1  
    34   12   33 1  
    35   13   34 1  
    36   13   35 1  
    37   14   36 1  
    38   14   37 1  
    39   17   38 1  
    40   17   39 1  
    41   17   40 1  
    42   19   41 1  
    43   20   42 1  
@<TRIPOS>SUBSTRUCTURE
     1 F1V         1

