### 
### Created by X-TOOL on Wed Jan  1 15:39:35 2020
### 

@<TRIPOS>MOLECULE
6chn_ligand
   58    61     1     0     0
SMALL
GAST_HUCK


@<TRIPOS>ATOM
      1 C1        147.0390   28.3060   35.8480 C.2       1 F1D         0.3218
      2 C2        146.0050   27.0290   33.9880 C.3       1 F1D         0.0385
      3 C3        146.8270   26.2970   32.9190 C.3       1 F1D        -0.0017
      4 O1        146.6790   29.3880   35.4420 O.2       1 F1D        -0.3774
      5 O2        146.1630   24.0280   33.5880 O.3       1 F1D        -0.3164
      6 O3        145.9970   27.9580   29.3370 O.2       1 F1D        -0.3972
      7 C11       143.4590   23.7830   31.1650 C.ar      1 F1D        -0.0258
      8 C12       144.1850   24.0760   32.3150 C.ar      1 F1D        -0.0300
      9 C13       142.0420   24.3110   30.9810 C.3       1 F1D         0.0898
     10 C14       141.0030   23.3190   31.5470 C.3       1 F1D         0.1041
     11 C15       141.0400   22.0540   30.8190 C.1       1 F1D         0.0941
     12 C16       142.6590   26.7650   31.3330 C.2       1 F1D         0.1335
     13 C17       145.3600   28.5900   30.1770 C.2       1 F1D         0.2310
     14 C18       145.6780   29.8800   30.6980 C.2       1 F1D         0.0200
     15 C19       144.9340   30.5010   31.6540 C.2       1 F1D         0.0677
     16 C20       145.3080   31.8140   32.2770 C.3       1 F1D         0.0054
     17 C21       143.4470   28.6550   31.6990 C.2       1 F1D         0.2851
     18 N5        143.8020   29.8890   32.1440 N.pl3     1 F1D        -0.2099
     19 N4        144.1970   28.0420   30.7560 N.am      1 F1D        -0.0898
     20 N3        143.6840   26.7980   30.4960 N.2       1 F1D        -0.1855
     21 N6        142.4550   27.8830   32.0980 N.2       1 F1D        -0.2712
     22 N2        141.8220   25.6410   31.5570 N.pl3     1 F1D        -0.2987
     23 N1        141.0990   21.0940   30.2330 N.1       1 F1D        -0.3033
     24 C10       144.0570   23.0090   30.1740 C.ar      1 F1D        -0.0692
     25 C9        145.3480   22.5270   30.3340 C.ar      1 F1D        -0.0771
     26 C8        146.0710   22.8190   31.4790 C.ar      1 F1D        -0.0401
     27 C7        145.4860   23.6120   32.4610 C.ar      1 F1D         0.0849
     28 C4        147.3000   24.9470   33.4330 C.3       1 F1D         0.0847
     29 C5        148.0300   25.0710   34.7550 C.3       1 F1D        -0.0017
     30 C6        147.1670   25.8170   35.7720 C.3       1 F1D         0.0385
     31 N         146.7560   27.1310   35.2460 N.am      1 F1D        -0.2487
     32 O         147.7590   28.1170   36.9610 O.3       1 F1D        -0.2671
     33 C         148.3160   29.3100   37.5570 C.3       1 F1D         0.0663
     34 H1        145.0729   26.4737   34.1688 H         1 F1D         0.0522
     35 H2        145.7653   28.0405   33.6284 H         1 F1D         0.0522
     36 H3        147.7020   26.9091   32.6549 H         1 F1D         0.0313
     37 H4        146.2031   26.1445   32.0260 H         1 F1D         0.0313
     38 H5        143.7329   24.6696   33.1013 H         1 F1D         0.0479
     39 H6        141.8701   24.3944   29.8977 H         1 F1D         0.0728
     40 H7        139.9986   23.7580   31.4552 H         1 F1D         0.0602
     41 H8        141.2254   23.1307   32.6077 H         1 F1D         0.0602
     42 H9        146.5582   30.3922   30.3122 H         1 F1D         0.0224
     43 H10       144.5461   32.0987   33.0175 H         1 F1D         0.0488
     44 H11       145.3672   32.5867   31.4963 H         1 F1D         0.0488
     45 H12       146.2848   31.7191   32.7739 H         1 F1D         0.0488
     46 H13       143.2233   30.3674   32.8491 H         1 F1D         0.2337
     47 H14       141.0022   25.7687   32.1673 H         1 F1D         0.1776
     48 H15       143.5079   22.7806   29.2677 H         1 F1D         0.0465
     49 H16       145.7945   21.9171   29.5570 H         1 F1D         0.0572
     50 H17       147.0767   22.4356   31.6078 H         1 F1D         0.0486
     51 H18       147.9948   24.5237   32.6927 H         1 F1D         0.0651
     52 H19       148.9681   25.6243   34.6006 H         1 F1D         0.0313
     53 H20       148.2563   24.0657   35.1398 H         1 F1D         0.0313
     54 H21       147.7446   25.9634   36.6967 H         1 F1D         0.0522
     55 H22       146.2697   25.2195   35.9908 H         1 F1D         0.0522
     56 H23       148.8839   29.0384   38.4591 H         1 F1D         0.0575
     57 H24       147.5022   29.9981   37.8294 H         1 F1D         0.0575
     58 H25       148.9860   29.8015   36.8362 H         1 F1D         0.0575
@<TRIPOS>BOND
     1    1    4 2  
     2   31    1 am 
     3    1   32 1  
     4    3    2 1  
     5    2   31 1  
     6   28    3 1  
     7   27    5 1  
     8    5   28 1  
     9   13    6 2  
    10    7    8 ar 
    11    9    7 1  
    12    7   24 ar 
    13    8   27 ar 
    14    9   10 1  
    15   22    9 1  
    16   10   11 1  
    17   11   23 3  
    18   12   20 2  
    19   21   12 1  
    20   12   22 1  
    21   13   14 1  
    22   19   13 am 
    23   15   14 2  
    24   15   16 1  
    25   18   15 1  
    26   17   18 1  
    27   17   19 1  
    28   17   21 2  
    29   19   20 1  
    30   24   25 ar 
    31   25   26 ar 
    32   26   27 ar 
    33   28   29 1  
    34   29   30 1  
    35   30   31 1  
    36   32   33 1  
    37    2   34 1  
    38    2   35 1  
    39    3   36 1  
    40    3   37 1  
    41    8   38 1  
    42    9   39 1  
    43   10   40 1  
    44   10   41 1  
    45   14   42 1  
    46   16   43 1  
    47   16   44 1  
    48   16   45 1  
    49   18   46 1  
    50   22   47 1  
    51   24   48 1  
    52   25   49 1  
    53   26   50 1  
    54   28   51 1  
    55   29   52 1  
    56   29   53 1  
    57   30   54 1  
    58   30   55 1  
    59   33   56 1  
    60   33   57 1  
    61   33   58 1  
@<TRIPOS>SUBSTRUCTURE
     1 F1D         1

