### 
### Created by X-TOOL on Wed Jan  1 15:39:35 2020
### 

@<TRIPOS>MOLECULE
6cho_ligand
   50    53     1     0     0
SMALL
GAST_HUCK


@<TRIPOS>ATOM
      1 C1        146.9440  162.0450   35.3480 C.ar      1 F14         0.0803
      2 C2        147.3010  160.9270   36.0940 C.ar      1 F14        -0.0404
      3 C3        146.7360  159.6960   35.8060 C.ar      1 F14        -0.0367
      4 O1        145.2400  158.3340   34.5640 O.3       1 F14        -0.2667
      5 O2        145.7550  161.9490   29.0330 O.2       1 F14        -0.3972
      6 C11       143.4140  157.8620   31.4160 C.ar      1 F14        -0.0274
      7 C12       143.7570  158.2800   32.7010 C.ar      1 F14        -0.0261
      8 C13       142.0760  158.2610   30.8140 C.3       1 F14         0.0636
      9 C14       140.9670  157.2720   31.1670 C.3       1 F14        -0.0330
     10 C15       142.4870  160.7430   31.1120 C.2       1 F14         0.1335
     11 C16       145.1820  162.5520   29.9450 C.2       1 F14         0.2310
     12 C17       145.5050  163.8510   30.4810 C.2       1 F14         0.0200
     13 C18       144.7750  164.4520   31.4650 C.2       1 F14         0.0677
     14 C19       145.1250  165.7760   32.0770 C.3       1 F14         0.0054
     15 C20       143.2990  162.5880   31.5240 C.2       1 F14         0.2851
     16 N3        143.6620  163.8190   31.9710 N.pl3     1 F14        -0.2099
     17 N2        144.0450  161.9920   30.5590 N.am      1 F14        -0.0898
     18 N1        143.5140  160.7550   30.2770 N.2       1 F14        -0.1855
     19 N4        142.2890  161.8330   31.9100 N.2       1 F14        -0.2712
     20 N         141.6650  159.6110   31.2210 N.pl3     1 F14        -0.3010
     21 C10       144.3070  157.0660   30.7080 C.ar      1 F14        -0.0689
     22 C9        145.5150  156.6720   31.2840 C.ar      1 F14        -0.0764
     23 C8        145.8420  157.0680   32.5760 C.ar      1 F14        -0.0360
     24 C7        144.9600  157.8860   33.2700 C.ar      1 F14         0.1067
     25 C4        145.8190  159.5860   34.7730 C.ar      1 F14         0.1049
     26 C5        145.4730  160.7010   34.0150 C.ar      1 F14        -0.0367
     27 C6        146.0430  161.9330   34.3010 C.ar      1 F14        -0.0404
     28 O         147.4740  163.2950   35.5480 O.3       1 F14        -0.3279
     29 C         148.5070  163.4400   36.5280 C.3       1 F14         0.0571
     30 H1        148.0204  161.0190   36.8996 H         1 F14         0.0518
     31 H2        147.0099  158.8222   36.3861 H         1 F14         0.0527
     32 H3        143.0800  158.9166   33.2591 H         1 F14         0.0487
     33 H4        142.1954  158.2591   29.7205 H         1 F14         0.0704
     34 H5        140.0222  157.6023   30.7106 H         1 F14         0.0273
     35 H6        140.8501  157.2268   32.2598 H         1 F14         0.0273
     36 H7        141.2298  156.2746   30.7848 H         1 F14         0.0273
     37 H8        146.3714  164.3767   30.0822 H         1 F14         0.0224
     38 H9        144.3792  166.0344   32.8432 H         1 F14         0.0488
     39 H10       145.1318  166.5506   31.2961 H         1 F14         0.0488
     40 H11       146.1206  165.7140   32.5406 H         1 F14         0.0488
     41 H12       143.0979  164.2838   32.6967 H         1 F14         0.2337
     42 H13       140.7188  159.7339   31.6088 H         1 F14         0.1775
     43 H14       144.0629  156.7490   29.7006 H         1 F14         0.0468
     44 H15       146.2034  156.0528   30.7203 H         1 F14         0.0573
     45 H16       146.7696  156.7438   33.0338 H         1 F14         0.0494
     46 H17       144.7603  160.6069   33.2037 H         1 F14         0.0527
     47 H18       145.7850  162.8034   33.7087 H         1 F14         0.0518
     48 H19       148.8262  164.4918   36.5714 H         1 F14         0.0573
     49 H20       149.3643  162.8078   36.2535 H         1 F14         0.0573
     50 H21       148.1245  163.1320   37.5123 H         1 F14         0.0573
@<TRIPOS>BOND
     1    2    1 ar 
     2    1   27 ar 
     3    1   28 1  
     4    3    2 ar 
     5   25    3 ar 
     6   24    4 1  
     7    4   25 1  
     8   11    5 2  
     9    6    7 ar 
    10    8    6 1  
    11    6   21 ar 
    12    7   24 ar 
    13    8    9 1  
    14   20    8 1  
    15   10   18 2  
    16   19   10 1  
    17   10   20 1  
    18   11   12 1  
    19   17   11 am 
    20   13   12 2  
    21   13   14 1  
    22   16   13 1  
    23   15   16 1  
    24   15   17 1  
    25   15   19 2  
    26   17   18 1  
    27   21   22 ar 
    28   22   23 ar 
    29   23   24 ar 
    30   25   26 ar 
    31   26   27 ar 
    32   28   29 1  
    33    2   30 1  
    34    3   31 1  
    35    7   32 1  
    36    8   33 1  
    37    9   34 1  
    38    9   35 1  
    39    9   36 1  
    40   12   37 1  
    41   14   38 1  
    42   14   39 1  
    43   14   40 1  
    44   16   41 1  
    45   20   42 1  
    46   21   43 1  
    47   22   44 1  
    48   23   45 1  
    49   26   46 1  
    50   27   47 1  
    51   29   48 1  
    52   29   49 1  
    53   29   50 1  
@<TRIPOS>SUBSTRUCTURE
     1 F14         1

