### 
### Created by X-TOOL on Wed Jan  1 15:39:35 2020
### 

@<TRIPOS>MOLECULE
6chp_ligand
   60    63     1     0     0
SMALL
GAST_HUCK


@<TRIPOS>ATOM
      1 C1         12.5960  164.5850   36.1150 C.2       1 F0Y         0.3218
      2 C2         11.9450  163.2960   34.1280 C.3       1 F0Y         0.0362
      3 C3         11.1520  161.9960   34.1080 C.3       1 F0Y        -0.0279
      4 O1         11.9510  165.5530   35.7890 O.2       1 F0Y        -0.3774
      5 C11         9.3350  159.6970   32.7010 C.ar      1 F0Y        -0.0569
      6 C12         7.3550  160.0800   31.1640 C.3       1 F0Y         0.1008
      7 C13         6.2310  159.1420   31.6890 C.3       1 F0Y         0.1057
      8 C14         6.2950  157.7990   31.1110 C.1       1 F0Y         0.0942
      9 C15         7.9120  162.4950   31.6110 C.2       1 F0Y         0.2202
     10 C16         9.5740  163.7940   30.9660 C.ar      1 F0Y         0.0946
     11 C17        10.6720  164.4350   30.4040 C.ar      1 F0Y        -0.0309
     12 C18        10.9940  165.6930   30.8900 C.ar      1 F0Y        -0.0490
     13 C19        10.2220  166.2730   31.9120 C.ar      1 F0Y         0.0023
     14 C20        10.5890  167.5970   32.5150 C.3       1 F0Y        -0.0222
     15 C21         8.8450  164.4190   31.9650 C.ar      1 F0Y         0.0696
     16 C22        12.7890  160.9720   35.6790 C.3       1 F0Y        -0.0279
     17 C23        13.5460  162.3070   35.7170 C.3       1 F0Y         0.0362
     18 N1          6.3460  156.7510   30.7020 N.1       1 F0Y        -0.3033
     19 N2          7.1210  161.4090   31.7400 N.pl3     1 F0Y        -0.2565
     20 N5          7.8200  163.5890   32.3420 N.2       1 F0Y        -0.2976
     21 N4          9.1460  165.6480   32.4320 N.ar      1 F0Y        -0.3159
     22 N3          8.9540  162.5760   30.7480 N.pl3     1 F0Y        -0.2255
     23 C10         8.7350  159.5080   31.4600 C.ar      1 F0Y        -0.0221
     24 C9          9.4160  158.7690   30.4990 C.ar      1 F0Y        -0.0650
     25 C8         10.6680  158.2320   30.7800 C.ar      1 F0Y        -0.0751
     26 C7         11.2520  158.4380   32.0240 C.ar      1 F0Y        -0.0673
     27 C6         10.5960  159.1790   32.9980 C.ar      1 F0Y        -0.0495
     28 C5         11.2470  159.4700   34.3290 C.3       1 F0Y        -0.0178
     29 C4         12.0480  160.7800   34.3570 C.3       1 F0Y        -0.0278
     30 N          12.6710  163.4460   35.3950 N.am      1 F0Y        -0.2489
     31 O          13.3470  164.5110   37.2260 O.3       1 F0Y        -0.2671
     32 C          13.5830  165.7690   37.9030 C.3       1 F0Y         0.0663
     33 H1         11.2528  164.1423   34.0070 H         1 F0Y         0.0522
     34 H2         12.6665  163.2908   33.2977 H         1 F0Y         0.0522
     35 H3         10.6701  161.8879   33.1251 H         1 F0Y         0.0289
     36 H4         10.3813  162.0369   34.8918 H         1 F0Y         0.0289
     37 H5          8.8071  160.2635   33.4596 H         1 F0Y         0.0495
     38 H6          7.2625  160.1613   30.0709 H         1 F0Y         0.0748
     39 H7          5.2567  159.5864   31.4375 H         1 F0Y         0.0603
     40 H8          6.3250  159.0588   32.7818 H         1 F0Y         0.0603
     41 H9         11.2537  163.9695   29.6166 H         1 F0Y         0.0645
     42 H10        11.8423  166.2302   30.4814 H         1 F0Y         0.0546
     43 H11         9.8560  167.8622   33.2911 H         1 F0Y         0.0403
     44 H12        10.5892  168.3693   31.7317 H         1 F0Y         0.0403
     45 H13        11.5908  167.5302   32.9644 H         1 F0Y         0.0403
     46 H14        12.0599  160.9520   36.5024 H         1 F0Y         0.0289
     47 H15        13.5089  160.1502   35.8067 H         1 F0Y         0.0289
     48 H16        14.3662  162.2712   34.9850 H         1 F0Y         0.0522
     49 H17        13.9606  162.4517   36.7255 H         1 F0Y         0.0522
     50 H18         6.2648  161.5252   32.3006 H         1 F0Y         0.1939
     51 H19         9.2326  161.8636   30.0582 H         1 F0Y         0.2322
     52 H20         8.9683  158.6104   29.5246 H         1 F0Y         0.0500
     53 H21        11.1891  157.6517   30.0272 H         1 F0Y         0.0582
     54 H22        12.2280  158.0166   32.2359 H         1 F0Y         0.0499
     55 H23        11.9296  158.6416   34.5691 H         1 F0Y         0.0428
     56 H24        10.4591  159.5295   35.0943 H         1 F0Y         0.0428
     57 H25        12.7940  160.7312   33.5501 H         1 F0Y         0.0324
     58 H26        14.2046  165.5950   38.7937 H         1 F0Y         0.0575
     59 H27        12.6213  166.2078   38.2071 H         1 F0Y         0.0575
     60 H28        14.1025  166.4598   37.2226 H         1 F0Y         0.0575
@<TRIPOS>BOND
     1    1    4 2  
     2   30    1 am 
     3    1   31 1  
     4    3    2 1  
     5    2   30 1  
     6   29    3 1  
     7    5   23 ar 
     8   27    5 ar 
     9    6    7 1  
    10    6   19 1  
    11   23    6 1  
    12    7    8 1  
    13    8   18 3  
    14   19    9 1  
    15    9   20 2  
    16    9   22 1  
    17   10   11 ar 
    18   10   15 ar 
    19   22   10 1  
    20   11   12 ar 
    21   12   13 ar 
    22   13   14 1  
    23   21   13 ar 
    24   20   15 1  
    25   15   21 ar 
    26   16   17 1  
    27   29   16 1  
    28   17   30 1  
    29   23   24 ar 
    30   25   24 ar 
    31   26   25 ar 
    32   27   26 ar 
    33   28   27 1  
    34   28   29 1  
    35   31   32 1  
    36    2   33 1  
    37    2   34 1  
    38    3   35 1  
    39    3   36 1  
    40    5   37 1  
    41    6   38 1  
    42    7   39 1  
    43    7   40 1  
    44   11   41 1  
    45   12   42 1  
    46   14   43 1  
    47   14   44 1  
    48   14   45 1  
    49   16   46 1  
    50   16   47 1  
    51   17   48 1  
    52   17   49 1  
    53   19   50 1  
    54   22   51 1  
    55   24   52 1  
    56   25   53 1  
    57   26   54 1  
    58   28   55 1  
    59   28   56 1  
    60   29   57 1  
    61   32   58 1  
    62   32   59 1  
    63   32   60 1  
@<TRIPOS>SUBSTRUCTURE
     1 F0Y         1

