### 
### Created by X-TOOL on Wed Jan  1 15:39:35 2020
### 

@<TRIPOS>MOLECULE
6chq_ligand
   44    47     1     0     0
SMALL
GAST_HUCK


@<TRIPOS>ATOM
      1 C1         38.5700  168.9960   49.3530 C.ar      1 F0V        -0.0424
      2 C2         39.3520  169.6120   50.3310 C.ar      1 F0V        -0.0684
      3 C3         38.7960  170.1670   51.4720 C.ar      1 F0V        -0.0429
      4 C11        34.5970  169.9120   55.6690 C.2       1 F0V         0.2072
      5 C12        34.6490  171.9790   56.1420 C.2       1 F0V         0.0661
      6 C13        34.2870  173.2540   56.8390 C.3       1 F0V         0.0297
      7 C14        33.5440  174.1900   55.9160 C.ar      1 F0V        -0.0299
      8 C15        34.2400  175.0680   55.0910 C.ar      1 F0V        -0.0582
      9 C16        33.5790  175.7870   54.1060 C.ar      1 F0V        -0.0682
     10 C17        32.2120  175.6540   53.9470 C.ar      1 F0V        -0.0685
     11 C18        31.5050  174.8110   54.7830 C.ar      1 F0V        -0.0682
     12 C19        32.1650  174.0890   55.7650 C.ar      1 F0V        -0.0582
     13 CL         36.1690  168.0320   48.5320 Cl        1 F0V        -0.0798
     14 C6         37.1880  168.9530   49.5920 C.ar      1 F0V         0.0327
     15 C          39.1980  168.4590   48.0930 C.3       1 F0V        -0.0355
     16 C5         36.6070  169.5350   50.7050 C.ar      1 F0V        -0.0292
     17 C4         37.4200  170.1300   51.6690 C.ar      1 F0V         0.0657
     18 N          36.8610  170.6270   52.8740 N.pl3     1 F0V        -0.2262
     19 C7         36.1390  169.9060   53.8240 C.2       1 F0V         0.2396
     20 N4         35.4360  170.5720   54.7980 N.pl3     1 F0V        -0.0937
     21 N1         34.4000  168.5880   55.6240 N.2       1 F0V        -0.2836
     22 C9         35.0860  167.9150   54.7090 C.2       1 F0V         0.0082
     23 C10        34.8160  166.4480   54.6150 C.3       1 F0V        -0.0139
     24 C8         35.9750  168.5320   53.8150 C.2       1 F0V         0.0275
     25 N3         35.4690  171.9150   55.1010 N.2       1 F0V        -0.1906
     26 N2         34.0930  170.7930   56.5350 N.2       1 F0V        -0.3011
     27 H1         40.4263  169.6576   50.1938 H         1 F0V         0.0531
     28 H2         39.4357  170.6316   52.2136 H         1 F0V         0.0528
     29 H3         35.2072  173.7473   57.1851 H         1 F0V         0.0606
     30 H4         33.6482  173.0212   57.7037 H         1 F0V         0.0606
     31 H5         35.3093  175.1914   55.2193 H         1 F0V         0.0561
     32 H6         34.1358  176.4551   53.4590 H         1 F0V         0.0600
     33 H7         31.6975  176.2083   53.1704 H         1 F0V         0.0561
     34 H8         30.4312  174.7141   54.6705 H         1 F0V         0.0600
     35 H9         31.6001  173.4383   56.4227 H         1 F0V         0.0561
     36 H10        40.2875  168.6045   48.1356 H         1 F0V         0.0372
     37 H11        38.7903  168.9946   47.2230 H         1 F0V         0.0372
     38 H12        38.9748  167.3859   48.0006 H         1 F0V         0.0372
     39 H13        35.5298  169.5284   50.8263 H         1 F0V         0.0530
     40 H14        37.0038  171.6284   53.0681 H         1 F0V         0.2246
     41 H15        35.4432  166.0097   53.8248 H         1 F0V         0.0455
     42 H16        33.7552  166.2851   54.3737 H         1 F0V         0.0455
     43 H17        35.0509  165.9695   55.5772 H         1 F0V         0.0455
     44 H18        36.5398  167.9249   53.1091 H         1 F0V         0.0408
@<TRIPOS>BOND
     1    2    1 ar 
     2   14    1 ar 
     3    1   15 1  
     4    3    2 ar 
     5   17    3 ar 
     6   20    4 1  
     7    4   21 1  
     8    4   26 2  
     9    5    6 1  
    10    5   25 2  
    11   26    5 1  
    12    6    7 1  
    13    7    8 ar 
    14    7   12 ar 
    15    8    9 ar 
    16    9   10 ar 
    17   11   10 ar 
    18   12   11 ar 
    19   14   13 1  
    20   16   14 ar 
    21   17   16 ar 
    22   18   17 1  
    23   19   18 1  
    24   19   20 1  
    25   19   24 2  
    26   20   25 1  
    27   21   22 2  
    28   22   23 1  
    29   22   24 1  
    30    2   27 1  
    31    3   28 1  
    32    6   29 1  
    33    6   30 1  
    34    8   31 1  
    35    9   32 1  
    36   10   33 1  
    37   11   34 1  
    38   12   35 1  
    39   15   36 1  
    40   15   37 1  
    41   15   38 1  
    42   16   39 1  
    43   18   40 1  
    44   23   41 1  
    45   23   42 1  
    46   23   43 1  
    47   24   44 1  
@<TRIPOS>SUBSTRUCTURE
     1 F0V         1

