### 
### Created by X-TOOL on Wed Jan  1 15:39:36 2020
### 

@<TRIPOS>MOLECULE
6cis_ligand
   98   104     1     0     0
SMALL
GAST_HUCK


@<TRIPOS>ATOM
      1 O1         10.2310    6.1140   -2.2700 O.2       1 X26        -0.3767
      2 C27         9.2360    6.8250   -2.4630 C.2       1 X26         0.2275
      3 N1          8.4160    6.5290   -3.4680 N.am      1 X26        -0.2228
      4 C28         8.6100    5.2910   -4.2110 C.3       1 X26         0.0413
      5 C19         7.3700    7.3680   -3.9060 C.ar      1 X26         0.1307
      6 C18         7.1520    7.5630   -5.2800 C.ar      1 X26         0.0207
      7 N4          6.1300    8.3420   -5.7010 N.ar      1 X26        -0.2872
      8 C26         9.0180    7.9950   -1.5600 C.ar      1 X26         0.0789
      9 C25        10.1520    8.6530   -1.0350 C.ar      1 X26        -0.0510
     10 C24        10.0130    9.7330   -0.1610 C.ar      1 X26        -0.0679
     11 C23         8.7440   10.1980    0.1700 C.ar      1 X26        -0.0674
     12 C22         7.6100    9.5800   -0.3370 C.ar      1 X26        -0.0325
     13 C21         7.6800    8.4690   -1.1670 C.ar      1 X26         0.0860
     14 N2          6.4570    7.9630   -1.6410 N.pl3     1 X26        -0.2380
     15 C29         5.2660    7.8860   -0.7720 C.3       1 X26         0.0596
     16 C20         6.3750    7.9850   -3.0170 C.ar      1 X26         0.1650
     17 N3          5.3780    8.7480   -3.5100 N.ar      1 X26        -0.2472
     18 C17         5.2500    8.9090   -4.8410 C.ar      1 X26         0.1790
     19 N5          4.2660    9.6980   -5.3500 N.pl3     1 X26        -0.2525
     20 C14         3.0300    9.9550   -4.7980 C.ar      1 X26         0.0980
     21 C13         1.9890   10.3170   -5.7450 C.ar      1 X26         0.1206
     22 C12         0.6900   10.5660   -5.3150 C.ar      1 X26        -0.0229
     23 C15         2.7250    9.9560   -3.4430 C.ar      1 X26        -0.0406
     24 C16         1.4150   10.2190   -3.0330 C.ar      1 X26        -0.0628
     25 C11         0.3970   10.5230   -3.9470 C.ar      1 X26         0.0287
     26 C2         -3.4180   10.2690   -3.6300 C.3       1 X26         0.0382
     27 C1         -4.0500    8.9710   -3.1130 C.3       1 X26         0.0107
     28 C3         -1.8100    8.9590   -4.9750 C.3       1 X26         0.0382
     29 C4         -2.4560    7.6670   -4.4610 C.3       1 X26         0.0107
     30 C          -3.9430    7.8070   -4.1040 C.3       1 X26        -0.0167
     31 C31         4.1960    6.9730   -1.3370 C.3       1 X26        -0.0258
     32 O2          2.3910   10.3410   -7.0730 O.3       1 X26        -0.3185
     33 C5          1.4470   10.1800   -8.1440 C.3       1 X26         0.0733
     34 C6         -1.0000   10.7640   -3.4400 C.2       1 X26         0.1959
     35 O3         -1.1910   11.5490   -2.5210 O.2       1 X26        -0.3902
     36 N6         -2.0080   10.0360   -3.9820 N.am      1 X26        -0.2739
     37 N7         -4.4580    6.5600   -3.5090 N.4       1 X26         0.2449
     38 C30        -5.9280    6.6330   -3.3090 C.3       1 X26         0.0097
     39 C33        -6.4540    5.3360   -2.6970 C.3       1 X26         0.0092
     40 N8         -6.1530    4.1880   -3.5820 N.4       1 X26         0.2405
     41 C35        -4.6890    4.1140   -3.7530 C.3       1 X26         0.0092
     42 C36        -4.1990    5.4130   -4.4050 C.3       1 X26         0.0097
     43 C37        -6.6630    2.9550   -2.9690 C.3       1 X26        -0.0427
     44 C7          5.5960    7.3680    0.6350 C.3       1 X26        -0.0258
     45 C8          4.3130    6.6540    1.0830 C.3       1 X26        -0.0505
     46 C9          0.8010    8.7910   -8.1680 C.3       1 X26        -0.0349
     47 C10         2.2060   10.4450   -9.4310 C.3       1 X26        -0.0349
     48 C32         3.3340    6.6880   -0.0940 C.3       1 X26        -0.0505
     49 H1          9.4492    4.7293   -3.7748 H         1 X26         0.0542
     50 H2          8.8328    5.5254   -5.2624 H         1 X26         0.0542
     51 H3          7.6946    4.6835   -4.1568 H         1 X26         0.0542
     52 H4          7.8042    7.0882   -6.0040 H         1 X26         0.0700
     53 H5         11.1434    8.3151   -1.3143 H         1 X26         0.0638
     54 H6         10.8921   10.2083    0.2589 H         1 X26         0.0529
     55 H7          8.6404   11.0514    0.8304 H         1 X26         0.0622
     56 H8          6.6360    9.9781   -0.0763 H         1 X26         0.0545
     57 H9          4.8525    8.9016   -0.6849 H         1 X26         0.0608
     58 H10         4.4677   10.1554   -6.2505 H         1 X26         0.2125
     59 H11        -0.0895   10.7916   -6.0337 H         1 X26         0.0553
     60 H12         3.4970    9.7544   -2.7092 H         1 X26         0.0514
     61 H13         1.1791   10.1869   -1.9755 H         1 X26         0.0548
     62 H14        -3.4756   11.0395   -2.8470 H         1 X26         0.0523
     63 H15        -3.9645   10.6106   -4.5215 H         1 X26         0.0523
     64 H16        -5.1144    9.1584   -2.9085 H         1 X26         0.0339
     65 H17        -3.5426    8.6831   -2.1805 H         1 X26         0.0339
     66 H18        -2.2765    9.2485   -5.9282 H         1 X26         0.0523
     67 H19        -0.7332    8.7950   -5.1286 H         1 X26         0.0523
     68 H20        -1.9136    7.3446   -3.5600 H         1 X26         0.0339
     69 H21        -2.3594    6.8983   -5.2419 H         1 X26         0.0339
     70 H22        -4.5231    8.0360   -5.0101 H         1 X26         0.0852
     71 H23         4.6322    6.0480   -1.7421 H         1 X26         0.0291
     72 H24         3.6127    7.4775   -2.1213 H         1 X26         0.0291
     73 H25         0.6475   10.9270   -8.0311 H         1 X26         0.0640
     74 H26        -4.0030    6.4084   -2.6224 H         1 X26         0.2040
     75 H27        -6.4170    6.7983   -4.2804 H         1 X26         0.0868
     76 H28        -6.1597    7.4705   -2.6346 H         1 X26         0.0868
     77 H29        -7.5430    5.4142   -2.5627 H         1 X26         0.0868
     78 H30        -5.9746    5.1758   -1.7200 H         1 X26         0.0868
     79 H31        -6.5925    4.3222   -4.4791 H         1 X26         0.2035
     80 H32        -4.4351    3.2590   -4.3969 H         1 X26         0.0868
     81 H33        -4.2083    3.9893   -2.7715 H         1 X26         0.0868
     82 H34        -3.1186    5.3384   -4.5976 H         1 X26         0.0868
     83 H35        -4.7311    5.5663   -5.3554 H         1 X26         0.0868
     84 H36        -7.7540    3.0289   -2.8498 H         1 X26         0.0778
     85 H37        -6.1952    2.8148   -1.9834 H         1 X26         0.0778
     86 H38        -6.4220    2.0976   -3.6146 H         1 X26         0.0778
     87 H39         5.8353    8.2016    1.3116 H         1 X26         0.0291
     88 H40         6.4426    6.6663    0.6040 H         1 X26         0.0291
     89 H41         3.8771    7.1729    1.9494 H         1 X26         0.0266
     90 H42         4.5380    5.6121    1.3546 H         1 X26         0.0266
     91 H43         0.0917    8.7310   -9.0066 H         1 X26         0.0258
     92 H44         0.2661    8.6190   -7.2223 H         1 X26         0.0258
     93 H45         1.5813    8.0258   -8.2924 H         1 X26         0.0258
     94 H46         1.5250   10.3342  -10.2877 H         1 X26         0.0258
     95 H47         3.0325    9.7252   -9.5241 H         1 X26         0.0258
     96 H48         2.6106   11.4677   -9.4142 H         1 X26         0.0258
     97 H49         2.8210    5.7203   -0.1955 H         1 X26         0.0266
     98 H50         2.5891    7.4848    0.0484 H         1 X26         0.0266
@<TRIPOS>BOND
     1    2    1 2  
     2    3    2 am 
     3    8    2 1  
     4    3    4 1  
     5    5    3 1  
     6    6    5 ar 
     7   16    5 ar 
     8    7    6 ar 
     9   18    7 ar 
    10    8    9 ar 
    11   13    8 ar 
    12    9   10 ar 
    13   11   10 ar 
    14   12   11 ar 
    15   13   12 ar 
    16   14   13 1  
    17   14   15 1  
    18   16   14 1  
    19   15   31 1  
    20   15   44 1  
    21   17   16 ar 
    22   18   17 ar 
    23   19   18 1  
    24   20   19 1  
    25   21   20 ar 
    26   23   20 ar 
    27   22   21 ar 
    28   21   32 1  
    29   25   22 ar 
    30   24   23 ar 
    31   25   24 ar 
    32   34   25 1  
    33   26   27 1  
    34   36   26 1  
    35   27   30 1  
    36   28   29 1  
    37   36   28 1  
    38   29   30 1  
    39   30   37 1  
    40   31   48 1  
    41   32   33 1  
    42   33   46 1  
    43   33   47 1  
    44   34   35 2  
    45   34   36 am 
    46   37   38 1  
    47   37   42 1  
    48   38   39 1  
    49   39   40 1  
    50   40   41 1  
    51   40   43 1  
    52   41   42 1  
    53   44   45 1  
    54   45   48 1  
    55    4   49 1  
    56    4   50 1  
    57    4   51 1  
    58    6   52 1  
    59    9   53 1  
    60   10   54 1  
    61   11   55 1  
    62   12   56 1  
    63   15   57 1  
    64   19   58 1  
    65   22   59 1  
    66   23   60 1  
    67   24   61 1  
    68   26   62 1  
    69   26   63 1  
    70   27   64 1  
    71   27   65 1  
    72   28   66 1  
    73   28   67 1  
    74   29   68 1  
    75   29   69 1  
    76   30   70 1  
    77   31   71 1  
    78   31   72 1  
    79   33   73 1  
    80   37   74 1  
    81   38   75 1  
    82   38   76 1  
    83   39   77 1  
    84   39   78 1  
    85   40   79 1  
    86   41   80 1  
    87   41   81 1  
    88   42   82 1  
    89   42   83 1  
    90   43   84 1  
    91   43   85 1  
    92   43   86 1  
    93   44   87 1  
    94   44   88 1  
    95   45   89 1  
    96   45   90 1  
    97   46   91 1  
    98   46   92 1  
    99   46   93 1  
   100   47   94 1  
   101   47   95 1  
   102   47   96 1  
   103   48   97 1  
   104   48   98 1  
@<TRIPOS>SUBSTRUCTURE
     1 X26         1

