### 
### Created by X-TOOL on Wed Jan  1 15:39:35 2020
### 

@<TRIPOS>MOLECULE
6ciy_ligand
   89    95     1     0     0
SMALL
GAST_HUCK


@<TRIPOS>ATOM
      1 C1         -2.7570    7.7090   -4.7200 C.3       1 F3J         0.0107
      2 C2         -1.7500    8.3260   -3.7550 C.3       1 F3J         0.0382
      3 C3         -3.3740   10.2060   -3.7280 C.3       1 F3J         0.0382
      4 C4         -4.2020    9.0230   -3.2230 C.3       1 F3J         0.0107
      5 C5          1.0630    9.0190   -8.0470 C.3       1 F3J         0.0570
      6 C6         -0.9640   10.6270   -3.5190 C.2       1 F3J         0.1959
      7 C7          5.4300    7.5550    0.6700 C.3       1 F3J        -0.0257
      8 C11         0.4190   10.2490   -3.9920 C.ar      1 F3J         0.0287
      9 C12         0.6080    9.8570   -5.3290 C.ar      1 F3J        -0.0230
     10 C13         1.8720    9.4840   -5.7840 C.ar      1 F3J         0.1199
     11 C14         3.0270    9.5090   -4.8610 C.ar      1 F3J         0.0980
     12 C15         2.8130    9.9260   -3.5400 C.ar      1 F3J        -0.0406
     13 C16         1.5190   10.2830   -3.1170 C.ar      1 F3J        -0.0628
     14 C17         5.2790    8.5030   -4.8470 C.ar      1 F3J         0.1790
     15 C18         7.2370    7.1970   -5.1530 C.ar      1 F3J         0.0207
     16 C19         7.4710    7.1660   -3.7760 C.ar      1 F3J         0.1307
     17 C20         6.4660    7.8590   -2.9310 C.ar      1 F3J         0.1650
     18 C21         7.7510    8.4920   -1.0480 C.ar      1 F3J         0.0860
     19 C22         7.6920    9.6080   -0.2110 C.ar      1 F3J        -0.0325
     20 C25        10.2380    8.5970   -0.8900 C.ar      1 F3J        -0.0510
     21 O1         10.3820    6.1840   -2.0830 O.2       1 F3J        -0.3767
     22 C27         9.3640    6.8130   -2.3160 C.2       1 F3J         0.2275
     23 N1          8.5700    6.4340   -3.3100 N.am      1 F3J        -0.2228
     24 C28         8.7890    5.1550   -3.9950 C.3       1 F3J         0.0413
     25 N4          6.1780    7.8720   -5.6360 N.ar      1 F3J        -0.2872
     26 C26         9.1060    7.9920   -1.4290 C.ar      1 F3J         0.0789
     27 C24        10.1130    9.6870   -0.0360 C.ar      1 F3J        -0.0679
     28 C23         8.8560   10.1810    0.3000 C.ar      1 F3J        -0.0674
     29 N2          6.5220    8.0230   -1.5470 N.pl3     1 F3J        -0.2380
     30 C29         5.2870    8.0920   -0.7530 C.3       1 F3J         0.0596
     31 N3          5.4430    8.5090   -3.5160 N.ar      1 F3J        -0.2472
     32 N5          4.2320    9.1570   -5.4080 N.pl3     1 F3J        -0.2525
     33 C          -4.1860    7.8620   -4.2120 C.3       1 F3J        -0.0167
     34 C31         4.2510    7.0160   -1.0740 C.3       1 F3J        -0.0257
     35 C32         4.2100    6.6700    0.4140 C.3       1 F3J        -0.0481
     36 O2          2.1100    9.0860   -7.0800 O.3       1 F3J        -0.3244
     37 O3         -1.1500   11.7150   -2.9950 O.2       1 F3J        -0.3902
     38 N6         -1.9770    9.7720   -3.6750 N.am      1 F3J        -0.2739
     39 N7         -4.6750    6.6190   -3.5690 N.4       1 F3J         0.2449
     40 C30        -6.1150    6.7350   -3.2680 C.3       1 F3J         0.0097
     41 C33        -6.6040    5.4820   -2.5380 C.3       1 F3J         0.0092
     42 N8         -6.3730    4.2870   -3.3740 N.4       1 F3J         0.2405
     43 C35        -4.9440    4.1770   -3.7220 C.3       1 F3J         0.0092
     44 C36        -4.4820    5.4450   -4.4420 C.3       1 F3J         0.0097
     45 C37        -6.8080    3.0870   -2.6390 C.3       1 F3J        -0.0427
     46 H1         -2.5317    6.6385   -4.8352 H         1 F3J         0.0339
     47 H2         -2.6694    8.2092   -5.6957 H         1 F3J         0.0339
     48 H3         -0.7292    8.1341   -4.1171 H         1 F3J         0.0523
     49 H4         -1.8755    7.8789   -2.7578 H         1 F3J         0.0523
     50 H5         -3.5266   11.0830   -3.0818 H         1 F3J         0.0523
     51 H6         -3.6571   10.4577   -4.7607 H         1 F3J         0.0523
     52 H7         -5.2413    9.3519   -3.0758 H         1 F3J         0.0339
     53 H8         -3.7865    8.6803   -2.2639 H         1 F3J         0.0339
     54 H9          1.4738    8.6795   -9.0093 H         1 F3J         0.0573
     55 H10         0.6141   10.0155   -8.1711 H         1 F3J         0.0573
     56 H11         0.2939    8.3102   -7.7062 H         1 F3J         0.0573
     57 H12         5.2877    8.3095    1.4577 H         1 F3J         0.0291
     58 H13         6.3624    7.0019    0.8562 H         1 F3J         0.0291
     59 H14        -0.2348    9.8447   -6.0106 H         1 F3J         0.0553
     60 H15         3.6434    9.9735   -2.8448 H         1 F3J         0.0514
     61 H16         1.3664   10.5924   -2.0893 H         1 F3J         0.0548
     62 H17         7.9065    6.6789   -5.8301 H         1 F3J         0.0700
     63 H18         6.7288   10.0345    0.0449 H         1 F3J         0.0545
     64 H19        11.2223    8.2162   -1.1375 H         1 F3J         0.0638
     65 H20         8.0314    5.0262   -4.7820 H         1 F3J         0.0542
     66 H21         8.7078    4.3320   -3.2697 H         1 F3J         0.0542
     67 H22         9.7919    5.1480   -4.4468 H         1 F3J         0.0542
     68 H23        11.0015   10.1557    0.3713 H         1 F3J         0.0529
     69 H24         8.7803   11.0280    0.9723 H         1 F3J         0.0622
     70 H25         4.8860    9.1151   -0.8016 H         1 F3J         0.0608
     71 H26         4.3626    9.4297   -6.3926 H         1 F3J         0.2125
     72 H27        -4.8456    8.0982   -5.0600 H         1 F3J         0.0852
     73 H28         4.6212    6.2059   -1.7195 H         1 F3J         0.0291
     74 H29         3.3035    7.4025   -1.4776 H         1 F3J         0.0291
     75 H30         3.2973    7.0084    0.9263 H         1 F3J         0.0267
     76 H31         4.3779    5.6045    0.6296 H         1 F3J         0.0267
     77 H32        -4.1652    6.4780   -2.7110 H         1 F3J         0.2040
     78 H33        -6.6748    6.8498   -4.2079 H         1 F3J         0.0868
     79 H34        -6.2834    7.6158   -2.6310 H         1 F3J         0.0868
     80 H35        -7.6798    5.5783   -2.3299 H         1 F3J         0.0868
     81 H36        -6.0554    5.3751   -1.5906 H         1 F3J         0.0868
     82 H37        -6.9114    4.3684   -4.2222 H         1 F3J         0.2035
     83 H38        -4.7953    3.3091   -4.3812 H         1 F3J         0.0868
     84 H39        -4.3543    4.0446   -2.8029 H         1 F3J         0.0868
     85 H40        -3.4160    5.3515   -4.6966 H         1 F3J         0.0868
     86 H41        -5.0690    5.5754   -5.3631 H         1 F3J         0.0868
     87 H42        -7.8742    3.1793   -2.3846 H         1 F3J         0.0778
     88 H43        -6.2180    2.9884   -1.7159 H         1 F3J         0.0778
     89 H44        -6.6568    2.1971   -3.2676 H         1 F3J         0.0778
@<TRIPOS>BOND
     1    2    1 1  
     2    1   33 1  
     3   38    2 1  
     4    3    4 1  
     5   38    3 1  
     6    4   33 1  
     7   36    5 1  
     8    8    6 1  
     9    6   37 2  
    10    6   38 am 
    11   30    7 1  
    12    7   35 1  
    13    9    8 ar 
    14   13    8 ar 
    15   10    9 ar 
    16   11   10 ar 
    17   10   36 1  
    18   11   12 ar 
    19   32   11 1  
    20   12   13 ar 
    21   14   25 ar 
    22   31   14 ar 
    23   14   32 1  
    24   16   15 ar 
    25   15   25 ar 
    26   17   16 ar 
    27   16   23 1  
    28   29   17 1  
    29   17   31 ar 
    30   18   19 ar 
    31   18   26 ar 
    32   29   18 1  
    33   19   28 ar 
    34   26   20 ar 
    35   20   27 ar 
    36   22   21 2  
    37   22   23 am 
    38   26   22 1  
    39   23   24 1  
    40   28   27 ar 
    41   29   30 1  
    42   30   34 1  
    43   33   39 1  
    44   34   35 1  
    45   39   40 1  
    46   39   44 1  
    47   40   41 1  
    48   41   42 1  
    49   42   43 1  
    50   42   45 1  
    51   43   44 1  
    52    1   46 1  
    53    1   47 1  
    54    2   48 1  
    55    2   49 1  
    56    3   50 1  
    57    3   51 1  
    58    4   52 1  
    59    4   53 1  
    60    5   54 1  
    61    5   55 1  
    62    5   56 1  
    63    7   57 1  
    64    7   58 1  
    65    9   59 1  
    66   12   60 1  
    67   13   61 1  
    68   15   62 1  
    69   19   63 1  
    70   20   64 1  
    71   24   65 1  
    72   24   66 1  
    73   24   67 1  
    74   27   68 1  
    75   28   69 1  
    76   30   70 1  
    77   32   71 1  
    78   33   72 1  
    79   34   73 1  
    80   34   74 1  
    81   35   75 1  
    82   35   76 1  
    83   39   77 1  
    84   40   78 1  
    85   40   79 1  
    86   41   80 1  
    87   41   81 1  
    88   42   82 1  
    89   43   83 1  
    90   43   84 1  
    91   44   85 1  
    92   44   86 1  
    93   45   87 1  
    94   45   88 1  
    95   45   89 1  
@<TRIPOS>SUBSTRUCTURE
     1 F3J         1

