### 
### Created by X-TOOL on Wed Jan  1 15:39:35 2020
### 

@<TRIPOS>MOLECULE
6cj1_ligand
   91    96     1     0     0
SMALL
GAST_HUCK


@<TRIPOS>ATOM
      1 C11         0.3140   10.1340   -4.1710 C.ar      1 F2S         0.0287
      2 C12         0.4600    9.6110   -5.4620 C.ar      1 F2S        -0.0230
      3 C13         1.7180    9.2360   -5.9230 C.ar      1 F2S         0.1199
      4 C14         2.8980    9.4090   -5.0500 C.ar      1 F2S         0.0980
      5 C15         2.7100    9.9590   -3.7910 C.ar      1 F2S        -0.0406
      6 C16         1.4240   10.3080   -3.3440 C.ar      1 F2S        -0.0628
      7 O1         10.2520    6.1600   -2.1620 O.2       1 F2S        -0.3767
      8 C27         9.2430    6.8290   -2.3910 C.2       1 F2S         0.2275
      9 N1          8.4780    6.5050   -3.4100 N.am      1 F2S        -0.2228
     10 C28         8.6720    5.2620   -4.1390 C.3       1 F2S         0.0413
     11 C19         7.3860    7.2370   -3.8910 C.ar      1 F2S         0.1307
     12 C18         7.1920    7.2700   -5.2710 C.ar      1 F2S         0.0207
     13 N4          6.1180    7.9050   -5.7580 N.ar      1 F2S        -0.2872
     14 C26         8.9580    8.0110   -1.5180 C.ar      1 F2S         0.0789
     15 C25        10.0740    8.6410   -0.9820 C.ar      1 F2S        -0.0510
     16 C24         9.9300    9.7490   -0.1620 C.ar      1 F2S        -0.0679
     17 C23         8.6730   10.2470    0.1530 C.ar      1 F2S        -0.0674
     18 C22         7.5320    9.6520   -0.3500 C.ar      1 F2S        -0.0325
     19 C21         7.6070    8.5160   -1.1700 C.ar      1 F2S         0.0860
     20 N2          6.4100    7.9740   -1.6800 N.pl3     1 F2S        -0.2383
     21 C29         5.1810    7.7270   -0.9160 C.3       1 F2S         0.0565
     22 C20         6.3480    7.8670   -3.0580 C.ar      1 F2S         0.1650
     23 N3          5.3030    8.4770   -3.6400 N.ar      1 F2S        -0.2472
     24 C17         5.1760    8.4760   -4.9710 C.ar      1 F2S         0.1790
     25 N5          4.1190    9.0820   -5.5720 N.pl3     1 F2S        -0.2525
     26 C2         -3.4220   10.0790   -3.7140 C.3       1 F2S         0.0382
     27 C1         -4.3020    8.8920   -3.3430 C.3       1 F2S         0.0107
     28 C3         -1.7900    8.1960   -3.5030 C.3       1 F2S         0.0382
     29 C4         -2.6320    7.5030   -4.5710 C.3       1 F2S         0.0107
     30 C          -4.1110    7.6660   -4.2330 C.3       1 F2S        -0.0167
     31 C31         4.3130    6.7390    1.2010 C.3       1 F2S        -0.0628
     32 C32         5.5660    7.0870    0.4140 C.3       1 F2S        -0.0289
     33 O2          1.9280    8.7060   -7.1710 O.3       1 F2S        -0.3244
     34 C5          0.8690    8.2540   -8.0260 C.3       1 F2S         0.0570
     35 C6         -1.0530   10.5210   -3.6880 C.2       1 F2S         0.1959
     36 O3         -1.2400   11.6610   -3.3260 O.2       1 F2S        -0.3902
     37 N6         -2.0370    9.6320   -3.6550 N.am      1 F2S        -0.2739
     38 N7         -4.6050    6.4720   -3.5210 N.4       1 F2S         0.2449
     39 C30        -4.3850    5.2480   -4.3200 C.3       1 F2S         0.0097
     40 C33        -4.9270    4.0100   -3.6020 C.3       1 F2S         0.0092
     41 N8         -6.3540    4.1710   -3.2580 N.4       1 F2S         0.2405
     42 C35        -6.5650    5.4060   -2.4860 C.3       1 F2S         0.0092
     43 C36        -6.0520    6.6160   -3.2660 C.3       1 F2S         0.0097
     44 C37        -6.7950    3.0450   -2.4200 C.3       1 F2S        -0.0427
     45 C7          4.3750    9.0100   -0.7380 C.3       1 F2S        -0.0378
     46 H1         -0.4074    9.4983   -6.1023 H         1 F2S         0.0553
     47 H2          3.5646   10.1216   -3.1442 H         1 F2S         0.0514
     48 H3          1.2935   10.7159   -2.3482 H         1 F2S         0.0548
     49 H4          9.5384    4.7255   -3.7249 H         1 F2S         0.0542
     50 H5          8.8517    5.4841   -5.2012 H         1 F2S         0.0542
     51 H6          7.7727    4.6360   -4.0423 H         1 F2S         0.0542
     52 H7          7.8983    6.7899   -5.9386 H         1 F2S         0.0700
     53 H8         11.0649    8.2632   -1.2068 H         1 F2S         0.0638
     54 H9         10.8123   10.2342    0.2395 H         1 F2S         0.0529
     55 H10         8.5858   11.1120    0.8005 H         1 F2S         0.0622
     56 H11         6.5619   10.0702   -0.1069 H         1 F2S         0.0545
     57 H12         4.5573    7.0141   -1.4752 H         1 F2S         0.0605
     58 H13         4.2569    9.3306   -6.5620 H         1 F2S         0.2125
     59 H14        -3.5817   10.9021   -3.0020 H         1 F2S         0.0523
     60 H15        -3.6630   10.4220   -4.7310 H         1 F2S         0.0523
     61 H16        -5.3535    9.2076   -3.4124 H         1 F2S         0.0339
     62 H17        -4.0732    8.6041   -2.3063 H         1 F2S         0.0339
     63 H18        -0.7234    7.9745   -3.6553 H         1 F2S         0.0523
     64 H19        -2.0946    7.8609   -2.5006 H         1 F2S         0.0523
     65 H20        -2.3781    6.4332   -4.6019 H         1 F2S         0.0339
     66 H21        -2.4273    7.9569   -5.5518 H         1 F2S         0.0339
     67 H22        -4.6825    7.7970   -5.1637 H         1 F2S         0.0852
     68 H23         4.5976    6.2781    2.1584 H         1 F2S         0.0231
     69 H24         3.7005    6.0324    0.6217 H         1 F2S         0.0231
     70 H25         3.7342    7.6546    1.3925 H         1 F2S         0.0231
     71 H26         6.1777    7.7927    0.9951 H         1 F2S         0.0289
     72 H27         6.1441    6.1706    0.2243 H         1 F2S         0.0289
     73 H28         1.2941    7.8742   -8.9668 H         1 F2S         0.0573
     74 H29         0.1897    9.0916   -8.2425 H         1 F2S         0.0573
     75 H30         0.3110    7.4495   -7.5247 H         1 F2S         0.0573
     76 H31        -4.1158    6.3869   -2.6438 H         1 F2S         0.2040
     77 H32        -3.3057    5.1200   -4.4895 H         1 F2S         0.0868
     78 H33        -4.8980    5.3545   -5.2872 H         1 F2S         0.0868
     79 H34        -4.3515    3.8509   -2.6782 H         1 F2S         0.0868
     80 H35        -4.8135    3.1358   -4.2599 H         1 F2S         0.0868
     81 H36        -6.8991    4.2020   -4.1053 H         1 F2S         0.2035
     82 H37        -6.0231    5.3338   -1.5315 H         1 F2S         0.0868
     83 H38        -7.6399    5.5311   -2.2889 H         1 F2S         0.0868
     84 H39        -6.5864    6.6851   -4.2250 H         1 F2S         0.0868
     85 H40        -6.2301    7.5299   -2.6802 H         1 F2S         0.0868
     86 H41        -6.6511    2.1020   -2.9677 H         1 F2S         0.0778
     87 H42        -7.8600    3.1667   -2.1731 H         1 F2S         0.0778
     88 H43        -6.2036    3.0244   -1.4927 H         1 F2S         0.0778
     89 H44         3.4625    8.7930   -0.1633 H         1 F2S         0.0256
     90 H45         4.1001    9.4103   -1.7250 H         1 F2S         0.0256
     91 H46         4.9811    9.7518   -0.1973 H         1 F2S         0.0256
@<TRIPOS>BOND
     1    1    2 ar 
     2    1    6 ar 
     3   35    1 1  
     4    2    3 ar 
     5    3    4 ar 
     6    3   33 1  
     7    5    4 ar 
     8    4   25 1  
     9    6    5 ar 
    10    8    7 2  
    11    9    8 am 
    12   14    8 1  
    13    9   10 1  
    14   11    9 1  
    15   12   11 ar 
    16   22   11 ar 
    17   13   12 ar 
    18   24   13 ar 
    19   14   15 ar 
    20   19   14 ar 
    21   15   16 ar 
    22   17   16 ar 
    23   18   17 ar 
    24   19   18 ar 
    25   20   19 1  
    26   20   21 1  
    27   22   20 1  
    28   21   32 1  
    29   21   45 1  
    30   23   22 ar 
    31   24   23 ar 
    32   25   24 1  
    33   26   27 1  
    34   37   26 1  
    35   27   30 1  
    36   28   29 1  
    37   37   28 1  
    38   29   30 1  
    39   30   38 1  
    40   32   31 1  
    41   33   34 1  
    42   35   36 2  
    43   35   37 am 
    44   38   39 1  
    45   38   43 1  
    46   39   40 1  
    47   40   41 1  
    48   41   42 1  
    49   41   44 1  
    50   42   43 1  
    51    2   46 1  
    52    5   47 1  
    53    6   48 1  
    54   10   49 1  
    55   10   50 1  
    56   10   51 1  
    57   12   52 1  
    58   15   53 1  
    59   16   54 1  
    60   17   55 1  
    61   18   56 1  
    62   21   57 1  
    63   25   58 1  
    64   26   59 1  
    65   26   60 1  
    66   27   61 1  
    67   27   62 1  
    68   28   63 1  
    69   28   64 1  
    70   29   65 1  
    71   29   66 1  
    72   30   67 1  
    73   31   68 1  
    74   31   69 1  
    75   31   70 1  
    76   32   71 1  
    77   32   72 1  
    78   34   73 1  
    79   34   74 1  
    80   34   75 1  
    81   38   76 1  
    82   39   77 1  
    83   39   78 1  
    84   40   79 1  
    85   40   80 1  
    86   41   81 1  
    87   42   82 1  
    88   42   83 1  
    89   43   84 1  
    90   43   85 1  
    91   44   86 1  
    92   44   87 1  
    93   44   88 1  
    94   45   89 1  
    95   45   90 1  
    96   45   91 1  
@<TRIPOS>SUBSTRUCTURE
     1 F2S         1

