### 
### Created by X-TOOL on Mon Aug  2 16:12:48 2021
### 

@<TRIPOS>MOLECULE
6cjp_ligand
   61    64     1     0     0
SMALL
GAST_HUCK


@<TRIPOS>ATOM
      1 C10        19.6730   24.0080   52.9970 C.3       1 F5S         0.0231
      2 C13        22.0170   26.1340   54.0430 C.2       1 F5S        -0.0770
      3 C15        24.5820   26.1800   54.2980 C.2       1 F5S        -0.0398
      4 C17        25.2950   23.4560   52.8610 C.3       1 F5S         0.1037
      5 C22        16.7410   24.9390   55.8360 C.3       1 F5S         0.1178
      6 C24        16.3770   27.4220   55.9970 C.ar      1 F5S        -0.0660
      7 C26        15.3780   28.6500   54.1840 C.ar      1 F5S         0.0837
      8 C28        14.5300   30.0860   52.3830 C.3       1 F5S         0.0579
      9 O01        21.6880   24.8640   48.5030 O.3       1 F5S        -0.3317
     10 C02        20.7150   25.1940   49.4690 C.ar      1 F5S         0.0965
     11 C03        20.6840   24.4920   50.6690 C.ar      1 F5S         0.0820
     12 C04        21.7430   23.4000   50.8420 C.2       1 F5S         0.2448
     13 O05        22.4140   23.2780   52.0840 O.3       1 F5S        -0.2788
     14 C06        23.2310   22.1550   52.2150 C.3       1 F5S         0.0858
     15 C07        23.2370   21.6650   53.6510 C.3       1 F5S        -0.0343
     16 O08        22.0050   22.6690   49.9020 O.2       1 F5S        -0.3726
     17 C09        19.7300   24.8040   51.6620 C.ar      1 F5S        -0.0262
     18 C11        19.8970   24.7330   54.3300 C.2       1 F5S         0.0480
     19 C12        21.2700   25.2550   54.7730 C.2       1 F5S        -0.0540
     20 C14        23.3430   26.6190   54.6370 C.2       1 F5S        -0.0683
     21 C16        24.8260   24.9300   53.1670 C.3       1 F5S         0.1202
     22 O18        25.9700   24.6240   52.2240 O.3       1 F5S        -0.3491
     23 C19        24.6200   22.5800   51.8210 C.3       1 F5S         0.0091
     24 N20        18.8880   24.8710   55.1840 N.2       1 F5S        -0.1749
     25 O21        17.6340   24.4040   54.8700 O.3       1 F5S        -0.2424
     26 C23        16.2540   26.2540   55.2530 C.ar      1 F5S        -0.0212
     27 C25        15.9400   28.6230   55.4560 C.ar      1 F5S        -0.0395
     28 O27        14.9470   29.9130   53.7190 O.3       1 F5S        -0.3257
     29 C29        15.2580   27.4720   53.4420 C.ar      1 F5S        -0.0395
     30 C30        15.7000   26.2720   53.9760 C.ar      1 F5S        -0.0660
     31 C31        18.7970   25.8170   51.3990 C.ar      1 F5S        -0.0346
     32 C32        18.8350   26.5180   50.1830 C.ar      1 F5S         0.0786
     33 O33        17.9090   27.5490   49.9180 O.3       1 F5S        -0.3340
     34 C34        19.7940   26.2080   49.2200 C.ar      1 F5S        -0.0056
     35 H1         20.4384   23.2207   52.9307 H         1 F5S         0.0593
     36 H2         18.6759   23.5465   53.0497 H         1 F5S         0.0593
     37 H3         21.6801   26.4802   53.0670 H         1 F5S         0.0580
     38 H4         25.4499   26.6430   54.7653 H         1 F5S         0.0784
     39 H5         25.7502   22.8502   53.6584 H         1 F5S         0.0658
     40 H6         17.2631   25.1107   56.7889 H         1 F5S         0.0784
     41 H7         15.8957   24.2543   55.9992 H         1 F5S         0.0784
     42 H8         16.8102   27.3949   56.9903 H         1 F5S         0.0531
     43 H9         14.2361   31.1339   52.2234 H         1 F5S         0.0575
     44 H10        13.6715   29.4293   52.1788 H         1 F5S         0.0575
     45 H11        15.3571   29.8299   51.7046 H         1 F5S         0.0575
     46 H12        21.5826   25.4259   47.7442 H         1 F5S         0.2506
     47 H13        22.8764   21.3507   51.5536 H         1 F5S         0.0645
     48 H14        23.8857   20.7805   53.7339 H         1 F5S         0.0258
     49 H15        22.2131   21.3982   53.9517 H         1 F5S         0.0258
     50 H16        23.6167   22.4610   54.3085 H         1 F5S         0.0258
     51 H17        21.6711   24.9047   55.7229 H         1 F5S         0.0499
     52 H18        23.2864   27.3895   55.4045 H         1 F5S         0.0453
     53 H19        23.8841   25.0850   52.6203 H         1 F5S         0.0839
     54 H20        25.2325   21.6785   51.6725 H         1 F5S         0.0322
     55 H21        24.5592   23.1416   50.8771 H         1 F5S         0.0322
     56 H22        16.0367   29.5405   56.0251 H         1 F5S         0.0525
     57 H23        14.8201   27.4968   52.4507 H         1 F5S         0.0525
     58 H24        15.6151   25.3550   53.4041 H         1 F5S         0.0531
     59 H25        18.0424   26.0603   52.1383 H         1 F5S         0.0410
     60 H26        18.0785   27.9116   49.0565 H         1 F5S         0.2497
     61 H27        19.8225   26.7529   48.2833 H         1 F5S         0.0424
@<TRIPOS>BOND
     1    1   17 1  
     2   18    1 1  
     3   19    2 2  
     4    2   20 1  
     5   20    3 2  
     6    3   21 1  
     7   21    4 1  
     8   22    4 1  
     9    4   23 1  
    10   25    5 1  
    11    5   26 1  
    12   26    6 ar 
    13    6   27 ar 
    14   27    7 ar 
    15    7   28 1  
    16    7   29 ar 
    17   28    8 1  
    18   10    9 1  
    19   11   10 ar 
    20   10   34 ar 
    21   11   12 1  
    22   17   11 ar 
    23   12   13 1  
    24   12   16 2  
    25   13   14 1  
    26   14   15 1  
    27   14   23 1  
    28   17   31 ar 
    29   18   19 1  
    30   24   18 2  
    31   21   22 1  
    32   24   25 1  
    33   26   30 ar 
    34   29   30 ar 
    35   31   32 ar 
    36   32   33 1  
    37   32   34 ar 
    38    1   35 1  
    39    1   36 1  
    40    2   37 1  
    41    3   38 1  
    42    4   39 1  
    43    5   40 1  
    44    5   41 1  
    45    6   42 1  
    46    8   43 1  
    47    8   44 1  
    48    8   45 1  
    49    9   46 1  
    50   14   47 1  
    51   15   48 1  
    52   15   49 1  
    53   15   50 1  
    54   19   51 1  
    55   20   52 1  
    56   21   53 1  
    57   23   54 1  
    58   23   55 1  
    59   27   56 1  
    60   29   57 1  
    61   30   58 1  
    62   31   59 1  
    63   33   60 1  
    64   34   61 1  
@<TRIPOS>SUBSTRUCTURE
     1 F5S         1

