### 
### Created by X-TOOL on Mon Aug  2 16:12:48 2021
### 

@<TRIPOS>MOLECULE
6cjr_ligand
   60    63     1     0     0
SMALL
GAST_HUCK


@<TRIPOS>ATOM
      1 C8         21.5640  108.0920  -97.3890 C.3       1 E0G         0.0366
      2 C5         20.5620  107.6730  -99.7500 C.ar      1 E0G         0.0584
      3 C6         19.4910  107.1700 -100.4520 C.ar      1 E0G         0.0626
      4 N1         17.6150  105.4640 -100.3560 N.am      1 E0G        -0.3030
      5 C2         20.3070  107.8660 -102.5780 C.ar      1 E0G        -0.0266
      6 O2         18.2090  106.7620  -98.5040 O.2       1 E0G        -0.3941
      7 N2         20.5590  107.4910  -98.2770 N.pl3     1 E0G        -0.3163
      8 N3         22.3950  109.1120 -102.5800 N.pl3     1 E0G        -0.1136
      9 C3         21.4230  108.3980 -101.9130 C.ar      1 E0G         0.1253
     10 C4         21.5420  108.3130 -100.5010 C.ar      1 E0G         0.0031
     11 N4         23.8040  108.9870 -102.4720 N.2       1 E0G        -0.1373
     12 C10        22.2500  110.2760  -96.2410 C.3       1 E0G        -0.0248
     13 C11        22.5220  109.5180  -94.9300 C.3       1 E0G         0.0554
     14 C12        22.5720  107.9750  -95.0690 C.3       1 E0G        -0.0248
     15 C13        21.5410  107.3620  -96.0400 C.3       1 E0G        -0.0280
     16 C14        24.4080  109.9470 -103.2530 C.2       1 E0G         0.1265
     17 C15        23.4050  110.7410 -103.8230 C.2       1 E0G         0.0713
     18 C16        22.1630  110.2030 -103.3850 C.2       1 E0G         0.1327
     19 C19        22.1180  112.5480 -105.3420 C.3       1 E0G         0.0241
     20 C21        19.6980  112.6240 -105.0940 C.3       1 E0G        -0.0554
     21 C1         19.3210  107.2300 -101.8220 C.ar      1 E0G        -0.0535
     22 F1         26.5050  109.2670 -102.4570 F         1 E0G        -0.2212
     23 O1         24.4350  112.4880 -105.1570 O.2       1 E0G        -0.3969
     24 F2         26.4720  109.8820 -104.6310 F         1 E0G        -0.2212
     25 F3         26.2800  111.3520 -102.9620 F         1 E0G        -0.2212
     26 O3         23.7560  110.0110  -94.4160 O.3       1 E0G        -0.3918
     27 C7         18.3960  106.4630  -99.6580 C.2       1 E0G         0.1914
     28 C9         21.2430  109.5710  -97.1690 C.3       1 E0G        -0.0280
     29 C17        20.8530  110.9480 -103.9000 C.3       1 E0G         0.0310
     30 C18        20.9880  112.3570 -104.3700 C.3       1 E0G        -0.0045
     31 C20        23.4020  111.9940 -104.8130 C.2       1 E0G         0.1124
     32 C22        21.2200  113.2670 -103.1750 C.3       1 E0G        -0.0554
     33 C23        25.9520  110.1020 -103.3810 C.3       1 E0G         0.3829
     34 H1         22.5609  107.9967  -97.8440 H         1 E0G         0.0551
     35 H2         16.8865  104.9744  -99.8769 H         1 E0G         0.1802
     36 H3         17.8040  105.2635 -101.3173 H         1 E0G         0.1802
     37 H4         20.2131  107.9473 -103.6549 H         1 E0G         0.0521
     38 H5         19.8159  106.9150  -97.8564 H         1 E0G         0.1782
     39 H6         22.4016  108.7494 -100.0054 H         1 E0G         0.0517
     40 H7         23.2015  110.3863  -96.7817 H         1 E0G         0.0291
     41 H8         21.8531  111.2708  -95.9905 H         1 E0G         0.0291
     42 H9         21.7162  109.7595  -94.2213 H         1 E0G         0.0593
     43 H10        22.4009  107.5393  -94.0736 H         1 E0G         0.0291
     44 H11        23.5764  107.6989  -95.4225 H         1 E0G         0.0291
     45 H12        21.7824  106.3008  -96.1998 H         1 E0G         0.0288
     46 H13        20.5362  107.4474  -95.6005 H         1 E0G         0.0288
     47 H14        22.2458  113.6237 -105.5332 H         1 E0G         0.0485
     48 H15        21.8694  112.0353 -106.2829 H         1 E0G         0.0485
     49 H16        18.8542  112.4901 -104.4011 H         1 E0G         0.0238
     50 H17        19.5971  111.9217 -105.9346 H         1 E0G         0.0238
     51 H18        19.6986  113.6555 -105.4760 H         1 E0G         0.0238
     52 H19        18.4478  106.7960 -102.2956 H         1 E0G         0.0627
     53 H20        23.7096  110.9566  -94.3367 H         1 E0G         0.2098
     54 H21        20.2410  109.6491  -96.7220 H         1 E0G         0.0288
     55 H22        21.2502  110.0797  -98.1443 H         1 E0G         0.0288
     56 H23        20.1293  110.9475 -103.0716 H         1 E0G         0.0515
     57 H24        20.4509  110.3606 -104.7386 H         1 E0G         0.0515
     58 H25        21.3198  114.3068 -103.5199 H         1 E0G         0.0238
     59 H26        22.1409  112.9629 -102.6558 H         1 E0G         0.0238
     60 H27        20.3672  113.1900 -102.4845 H         1 E0G         0.0238
@<TRIPOS>BOND
     1    7    1 1  
     2    1   15 1  
     3    1   28 1  
     4    2    3 ar 
     5    2    7 1  
     6   10    2 ar 
     7   21    3 ar 
     8    3   27 1  
     9   27    4 am 
    10    9    5 ar 
    11    5   21 ar 
    12   27    6 2  
    13    8    9 1  
    14    8   11 1  
    15   18    8 1  
    16    9   10 ar 
    17   16   11 2  
    18   12   13 1  
    19   28   12 1  
    20   14   13 1  
    21   13   26 1  
    22   15   14 1  
    23   17   16 1  
    24   16   33 1  
    25   17   18 2  
    26   31   17 1  
    27   18   29 1  
    28   19   30 1  
    29   19   31 1  
    30   30   20 1  
    31   33   22 1  
    32   31   23 2  
    33   33   24 1  
    34   33   25 1  
    35   29   30 1  
    36   30   32 1  
    37    1   34 1  
    38    4   35 1  
    39    4   36 1  
    40    5   37 1  
    41    7   38 1  
    42   10   39 1  
    43   12   40 1  
    44   12   41 1  
    45   13   42 1  
    46   14   43 1  
    47   14   44 1  
    48   15   45 1  
    49   15   46 1  
    50   19   47 1  
    51   19   48 1  
    52   20   49 1  
    53   20   50 1  
    54   20   51 1  
    55   21   52 1  
    56   26   53 1  
    57   28   54 1  
    58   28   55 1  
    59   29   56 1  
    60   29   57 1  
    61   32   58 1  
    62   32   59 1  
    63   32   60 1  
@<TRIPOS>SUBSTRUCTURE
     1 E0G         1

