### 
### Created by X-TOOL on Wed Jan  1 15:39:35 2020
### 

@<TRIPOS>MOLECULE
6cjv_ligand
   42    43     1     0     0
SMALL
GAST_HUCK


@<TRIPOS>ATOM
      1 C01       -23.2230    8.9990    8.6370 C.3       1 G2Y         0.0907
      2 C02       -24.7120    9.0740    8.7650 C.3       1 G2Y         0.1044
      3 C03       -25.0620    9.6600   10.0930 C.3       1 G2Y         0.1332
      4 C04       -24.5600    8.6740   11.1440 C.3       1 G2Y         0.1911
      5 C06       -22.5750    8.4020    9.9010 C.3       1 G2Y         0.1034
      6 C10       -21.1040    8.6000    9.8750 C.3       1 G2Y         0.0720
      7 C13       -25.2860    8.0710   13.4770 C.3       1 G2Y         0.2152
      8 C14       -23.6320    6.3440   13.1250 C.3       1 G2Y         0.1134
      9 C15       -25.1420    6.5730   13.0540 C.3       1 G2Y         0.1383
     10 C17       -23.0330    7.5360   13.4610 C.3       1 G2Y         0.1038
     11 C18       -26.6680    8.7200   13.4010 C.3       1 G2Y         0.0794
     12 C21       -22.0380    7.4450   14.5860 C.3       1 G2Y         0.0515
     13 O05       -23.0990    8.9660   11.1700 O.3       1 G2Y        -0.3415
     14 O08       -25.2880    9.8660    7.7000 O.3       1 G2Y        -0.3875
     15 O09       -26.4640    9.9380   10.2150 O.3       1 G2Y        -0.3841
     16 O11       -20.6010    7.7520   10.8860 O.3       1 G2Y        -0.3924
     17 O12       -25.2210    8.9130   12.3020 O.3       1 G2Y        -0.3135
     18 O16       -24.1680    8.5940   13.8660 O.3       1 G2Y        -0.3382
     19 O19       -25.7120    6.2570   11.8620 O.3       1 G2Y        -0.3838
     20 O20       -23.4140    5.2480   14.1110 O.3       1 G2Y        -0.3864
     21 CL1       -22.5210   10.6680    8.3120 Cl        1 G2Y        -0.1163
     22 CL2       -21.5630    9.0260   15.3000 Cl        1 G2Y        -0.1227
     23 CL3       -27.2470    8.3900   15.0380 Cl        1 G2Y        -0.1198
     24 H1        -22.9842    8.3464    7.7843 H         1 G2Y         0.0518
     25 H2        -25.1236    8.0557    8.7050 H         1 G2Y         0.0636
     26 H3        -24.5231   10.6112   10.2147 H         1 G2Y         0.0671
     27 H4        -24.7342    7.6312   10.8403 H         1 G2Y         0.0939
     28 H5        -22.7833    7.3219    9.8999 H         1 G2Y         0.0635
     29 H6        -20.8516    9.6489   10.0898 H         1 G2Y         0.0583
     30 H7        -20.6935    8.3175    8.8944 H         1 G2Y         0.0583
     31 H8        -23.2502    6.0230   12.1446 H         1 G2Y         0.0647
     32 H9        -25.6320    5.9427   13.8107 H         1 G2Y         0.0675
     33 H10       -22.5015    7.9057   12.5717 H         1 G2Y         0.0636
     34 H11       -27.3023    8.2434   12.6391 H         1 G2Y         0.0483
     35 H12       -26.6023    9.7995   13.2004 H         1 G2Y         0.0483
     36 H13       -21.1305    6.9562   14.2019 H         1 G2Y         0.0456
     37 H14       -22.4777    6.8275   15.3831 H         1 G2Y         0.0456
     38 H15       -26.2333    9.8811    7.7938 H         1 G2Y         0.2100
     39 H16       -26.9556    9.1313   10.1147 H         1 G2Y         0.2101
     40 H17       -20.9737    8.0033   11.7229 H         1 G2Y         0.2095
     41 H18       -25.3222    6.7858   11.1757 H         1 G2Y         0.2101
     42 H19       -22.4829    5.0781   14.1932 H         1 G2Y         0.2100
@<TRIPOS>BOND
     1    2    1 1  
     2    5    1 1  
     3    1   21 1  
     4    3    2 1  
     5    2   14 1  
     6    4    3 1  
     7    3   15 1  
     8    4   13 1  
     9   17    4 1  
    10    5    6 1  
    11   13    5 1  
    12    6   16 1  
    13    7    9 1  
    14    7   11 1  
    15    7   17 1  
    16    7   18 1  
    17    9    8 1  
    18    8   10 1  
    19    8   20 1  
    20    9   19 1  
    21   10   12 1  
    22   10   18 1  
    23   11   23 1  
    24   12   22 1  
    25    1   24 1  
    26    2   25 1  
    27    3   26 1  
    28    4   27 1  
    29    5   28 1  
    30    6   29 1  
    31    6   30 1  
    32    8   31 1  
    33    9   32 1  
    34   10   33 1  
    35   11   34 1  
    36   11   35 1  
    37   12   36 1  
    38   12   37 1  
    39   14   38 1  
    40   15   39 1  
    41   16   40 1  
    42   19   41 1  
    43   20   42 1  
@<TRIPOS>SUBSTRUCTURE
     1 G2Y         1

