### 
### Created by X-TOOL on Wed Jan  1 15:39:36 2020
### 

@<TRIPOS>MOLECULE
6ckc_ligand
   43    46     1     0     0
SMALL
GAST_HUCK


@<TRIPOS>ATOM
      1 C7        -36.5240  -38.0030   -4.5120 C.2       1 F5J         0.0302
      2 C6        -37.8010  -37.4520   -4.4900 C.2       1 F5J        -0.0543
      3 C1        -28.4240  -41.0240   -6.1780 C.ar      1 F5J        -0.0687
      4 C5        -29.7500  -38.9690   -6.1610 C.ar      1 F5J        -0.0578
      5 C4        -30.8560  -41.1230   -6.1810 C.ar      1 F5J        -0.0578
      6 C3        -28.5040  -39.6220   -6.1730 C.ar      1 F5J        -0.0685
      7 C2        -29.6070  -41.7750   -6.1840 C.ar      1 F5J        -0.0685
      8 C8        -36.8170  -34.1990   -2.2940 C.ar      1 F5J         0.0500
      9 C9        -37.7110  -36.2320   -3.7820 C.ar      1 F5J         0.0433
     10 C10       -30.9300  -39.7200   -6.1670 C.ar      1 F5J        -0.0122
     11 C11       -36.3770  -36.0990   -3.3610 C.ar      1 F5J         0.1399
     12 C12       -38.5940  -35.2210   -3.4130 C.ar      1 F5J         0.1162
     13 C13       -32.5430  -39.1160   -3.6170 C.3       1 F5J         0.1167
     14 C14       -33.9490  -38.8540   -3.0570 C.3       1 F5J         0.1382
     15 C15       -32.4640  -38.2320   -4.8630 C.3       1 F5J         0.1260
     16 C16       -34.2730  -37.4730   -3.5940 C.3       1 F5J         0.1961
     17 C17       -32.2600  -39.0180   -6.1540 C.3       1 F5J         0.1178
     18 N18       -35.8690  -35.1150   -2.5750 N.ar      1 F5J        -0.2771
     19 N19       -38.1160  -34.1730   -2.7040 N.ar      1 F5J        -0.2733
     20 N20       -35.6720  -37.1930   -3.8170 N.pl3     1 F5J        -0.2236
     21 N21       -39.9510  -35.2290   -3.8050 N.pl3     1 F5J        -0.3157
     22 O22       -33.7230  -37.5100   -4.9080 O.3       1 F5J        -0.3348
     23 O23       -31.5000  -38.7060   -2.7260 O.3       1 F5J        -0.3862
     24 O24       -34.0410  -38.9690   -1.6410 O.3       1 F5J        -0.3836
     25 O25       -33.2830  -40.0080   -6.2970 O.3       1 F5J        -0.3766
     26 H1        -36.2473  -38.9335   -5.0056 H         1 F5J         0.0924
     27 H2        -38.6991  -37.8792   -4.9337 H         1 F5J         0.0311
     28 H3        -27.4595  -41.5189   -6.1772 H         1 F5J         0.0559
     29 H4        -29.7955  -37.8860   -6.1471 H         1 F5J         0.0557
     30 H5        -31.7679  -41.7090   -6.1896 H         1 F5J         0.0557
     31 H6        -27.5929  -39.0347   -6.1785 H         1 F5J         0.0599
     32 H7        -29.5612  -42.8580   -6.1910 H         1 F5J         0.0599
     33 H8        -36.5057  -33.3768   -1.6599 H         1 F5J         0.0975
     34 H9        -32.4213  -40.1801   -3.8678 H         1 F5J         0.0650
     35 H10       -34.6521  -39.5832   -3.4858 H         1 F5J         0.0676
     36 H11       -31.6295  -37.5239   -4.7532 H         1 F5J         0.0673
     37 H12       -33.8232  -36.6959   -2.9585 H         1 F5J         0.0991
     38 H13       -32.3070  -38.3197   -7.0026 H         1 F5J         0.0784
     39 H14       -40.5758  -34.4639   -3.5133 H         1 F5J         0.1826
     40 H15       -40.3157  -36.0000   -4.3825 H         1 F5J         0.1826
     41 H16       -31.5268  -39.2409   -1.9414 H         1 F5J         0.2100
     42 H17       -33.4326  -38.3628   -1.2350 H         1 F5J         0.2101
     43 H18       -34.1322  -39.5829   -6.3221 H         1 F5J         0.2131
@<TRIPOS>BOND
     1    1    2 2  
     2   20    1 1  
     3    9    2 1  
     4    6    3 ar 
     5    7    3 ar 
     6    4    6 ar 
     7   10    4 ar 
     8    5    7 ar 
     9   10    5 ar 
    10   18    8 ar 
    11    8   19 ar 
    12   11    9 ar 
    13    9   12 ar 
    14   17   10 1  
    15   11   18 ar 
    16   20   11 1  
    17   12   19 ar 
    18   12   21 1  
    19   14   13 1  
    20   13   15 1  
    21   13   23 1  
    22   16   14 1  
    23   14   24 1  
    24   15   17 1  
    25   15   22 1  
    26   16   20 1  
    27   16   22 1  
    28   17   25 1  
    29    1   26 1  
    30    2   27 1  
    31    3   28 1  
    32    4   29 1  
    33    5   30 1  
    34    6   31 1  
    35    7   32 1  
    36    8   33 1  
    37   13   34 1  
    38   14   35 1  
    39   15   36 1  
    40   16   37 1  
    41   17   38 1  
    42   21   39 1  
    43   21   40 1  
    44   23   41 1  
    45   24   42 1  
    46   25   43 1  
@<TRIPOS>SUBSTRUCTURE
     1 F5J         1

