### 
### Created by X-TOOL on Mon Aug  2 16:11:55 2021
### 

@<TRIPOS>MOLECULE
6ckl_ligand
   36    36     1     0     0
SMALL
GAST_HUCK


@<TRIPOS>ATOM
      1 C1        159.9830   22.5790  -17.2970 C.2       1 DAN         0.0809
      2 C2        160.1910   22.7800  -18.7360 C.2       1 DAN         0.1088
      3 C3        161.3940   22.9450  -19.3430 C.2       1 DAN        -0.0276
      4 C4        161.5010   22.8370  -20.8560 C.3       1 DAN         0.1003
      5 C5        160.2520   23.4700  -21.4330 C.3       1 DAN         0.1064
      6 C6        159.0030   22.7820  -20.8850 C.3       1 DAN         0.1321
      7 C7        157.6700   23.4220  -21.2940 C.3       1 DAN         0.1154
      8 C8        156.4500   22.7920  -20.6510 C.3       1 DAN         0.1068
      9 C9        155.2880   23.1660  -21.5670 C.3       1 DAN         0.0727
     10 C10       159.7680   24.2510  -23.6760 C.2       1 DAN         0.1734
     11 C11       159.8490   23.9560  -25.1270 C.3       1 DAN         0.0257
     12 N5        160.2610   23.3270  -22.8680 N.am      1 DAN        -0.2770
     13 O1A       158.8030   22.6480  -16.8520 O.co2     1 DAN        -0.5623
     14 O1B       160.9420   22.2950  -16.5410 O.co2     1 DAN        -0.5623
     15 O4        162.7000   23.4470  -21.4040 O.3       1 DAN        -0.3807
     16 O6        158.9660   22.6750  -19.4730 O.3       1 DAN        -0.3189
     17 O7        157.6230   24.8090  -20.9900 O.3       1 DAN        -0.3861
     18 O8        156.6040   21.3610  -20.5990 O.3       1 DAN        -0.3869
     19 O9        154.0600   22.6850  -21.0660 O.3       1 DAN        -0.3924
     20 O10       159.2680   25.2860  -23.2890 O.2       1 DAN        -0.3974
     21 H1        162.2812   23.1544  -18.7472 H         1 DAN         0.0480
     22 H2        161.5179   21.7711  -21.1270 H         1 DAN         0.0740
     23 H3        160.2293   24.5372  -21.1672 H         1 DAN         0.0632
     24 H4        159.0184   21.7617  -21.2957 H         1 DAN         0.0697
     25 H5        157.5790   23.3024  -22.3837 H         1 DAN         0.0650
     26 H6        156.2922   23.1875  -19.6368 H         1 DAN         0.0643
     27 H7        155.4630   22.7313  -22.5622 H         1 DAN         0.0584
     28 H8        155.2359   24.2617  -21.6494 H         1 DAN         0.0584
     29 H9        159.4113   24.7897  -25.6956 H         1 DAN         0.0467
     30 H10       159.2934   23.0320  -25.3449 H         1 DAN         0.0467
     31 H11       160.9023   23.8275  -25.4168 H         1 DAN         0.0467
     32 H12       160.6545   22.4987  -23.2669 H         1 DAN         0.1858
     33 H13       162.7095   23.3326  -22.3471 H         1 DAN         0.2127
     34 H14       158.3745   25.2425  -21.3771 H         1 DAN         0.2100
     35 H15       157.3297   21.1423  -20.0262 H         1 DAN         0.2100
     36 H16       154.0966   21.7382  -20.9967 H         1 DAN         0.2095
@<TRIPOS>BOND
     1    2    1 1  
     2    1   13 ar 
     3    1   14 ar 
     4    3    2 2  
     5   16    2 1  
     6    4    3 1  
     7    5    4 1  
     8    4   15 1  
     9    5    6 1  
    10   12    5 1  
    11    6    7 1  
    12    6   16 1  
    13    7    8 1  
    14    7   17 1  
    15    8    9 1  
    16    8   18 1  
    17    9   19 1  
    18   10   11 1  
    19   10   12 am 
    20   10   20 2  
    21    3   21 1  
    22    4   22 1  
    23    5   23 1  
    24    6   24 1  
    25    7   25 1  
    26    8   26 1  
    27    9   27 1  
    28    9   28 1  
    29   11   29 1  
    30   11   30 1  
    31   11   31 1  
    32   12   32 1  
    33   15   33 1  
    34   17   34 1  
    35   18   35 1  
    36   19   36 1  
@<TRIPOS>SUBSTRUCTURE
     1 DAN         1

