### 
### Created by X-TOOL on Wed Jan  1 15:39:36 2020
### 

@<TRIPOS>MOLECULE
6ckr_ligand
   49    52     1     0     0
SMALL
GAST_HUCK


@<TRIPOS>ATOM
      1 C16        12.2080  -13.3290  -12.0920 C.3       1 F5V         0.0618
      2 N14        11.0630  -12.5790  -11.4500 N.pl3     1 F5V        -0.2047
      3 C15        11.1070  -11.6960  -10.4380 C.2       1 F5V         0.0654
      4 N13         9.8020  -12.6930  -11.9290 N.2       1 F5V        -0.2129
      5 C12         9.0680  -11.8900  -11.1480 C.2       1 F5V         0.0069
      6 C11         9.8490  -11.2720  -10.2270 C.2       1 F5V         0.0019
      7 C6          9.3990  -10.3770   -9.2650 C.ar      1 F5V        -0.0407
      8 C1          8.0260  -10.0760   -9.1310 C.ar      1 F5V        -0.0635
      9 C2          7.5290   -9.1520   -8.1640 C.ar      1 F5V        -0.0279
     10 C5         10.2720   -9.7080   -8.3860 C.ar      1 F5V        -0.0655
     11 C4          9.8590   -8.8270   -7.3700 C.ar      1 F5V        -0.0558
     12 C3          8.4640   -8.5210   -7.2670 C.ar      1 F5V         0.0463
     13 C7          7.9780   -7.6200   -6.2610 C.2       1 F5V         0.2316
     14 O17         8.7240   -7.0230   -5.4810 O.2       1 F5V        -0.3903
     15 N8          6.6360   -7.3470   -6.1510 N.am      1 F5V        -0.2063
     16 C18         6.1240   -6.4620   -5.1330 C.3       1 F5V         0.0583
     17 C9          5.7300   -8.0030   -7.0130 C.2       1 F5V         0.0708
     18 C10         6.1340   -8.8680   -8.0050 C.2       1 F5V        -0.0012
     19 C19         5.0880   -9.4290   -8.8450 C.ar      1 F5V        -0.0572
     20 C24         3.9820  -10.0900   -8.2780 C.ar      1 F5V        -0.0519
     21 C20         5.1880   -9.2970  -10.2720 C.ar      1 F5V        -0.0835
     22 C21         4.1720   -9.8310  -11.1190 C.ar      1 F5V        -0.0857
     23 C22         3.0430  -10.5020  -10.5740 C.ar      1 F5V        -0.0535
     24 C23         2.9290  -10.6230   -9.1520 C.ar      1 F5V         0.0530
     25 N25         1.8180  -11.2870   -8.7260 N.am      1 F5V        -0.1940
     26 S26         1.5110  -11.4720   -7.1450 S.o2      1 F5V         0.0570
     27 O29         0.3640  -12.4680   -7.1050 O.2       1 F5V        -0.1502
     28 O28         2.6760  -12.0220   -6.4280 O.2       1 F5V        -0.1502
     29 C27         1.0350   -9.8710   -6.5070 C.3       1 F5V         0.0788
     30 H1         13.1415  -13.1013  -11.5565 H         1 F5V         0.0608
     31 H2         12.3041  -13.0212  -13.1437 H         1 F5V         0.0608
     32 H3         12.0115  -14.4102  -12.0428 H         1 F5V         0.0608
     33 H4         11.9952  -11.3827   -9.8914 H         1 F5V         0.1052
     34 H5          7.9917  -11.7521  -11.2397 H         1 F5V         0.0678
     35 H6          7.3199  -10.5675   -9.7904 H         1 F5V         0.0503
     36 H7         11.3355   -9.8839   -8.5000 H         1 F5V         0.0518
     37 H8         10.5769   -8.3919   -6.6842 H         1 F5V         0.0630
     38 H9          5.0307   -6.3874   -5.2281 H         1 F5V         0.0601
     39 H10         6.5716   -5.4646   -5.2552 H         1 F5V         0.0601
     40 H11         6.3793   -6.8592   -4.1395 H         1 F5V         0.0601
     41 H12         4.6645   -7.8164   -6.8875 H         1 F5V         0.1230
     42 H13         3.9080  -10.2049   -7.2026 H         1 F5V         0.0397
     43 H14         6.0405   -8.7886  -10.7077 H         1 F5V         0.0408
     44 H15         4.2619   -9.7237  -12.1939 H         1 F5V         0.0553
     45 H16         2.2809  -10.9153  -11.2247 H         1 F5V         0.0420
     46 H17         1.1825  -11.6659   -9.3987 H         1 F5V         0.2154
     47 H18         0.8174   -9.9546   -5.4320 H         1 F5V         0.0487
     48 H19         0.1379   -9.5173   -7.0362 H         1 F5V         0.0487
     49 H20         1.8568   -9.1561   -6.6602 H         1 F5V         0.0487
@<TRIPOS>BOND
     1    1    2 1  
     2    2    3 1  
     3    2    4 1  
     4    3    6 2  
     5    4    5 2  
     6    5    6 1  
     7    6    7 1  
     8    7    8 ar 
     9    7   10 ar 
    10    8    9 ar 
    11    9   12 ar 
    12    9   18 1  
    13   10   11 ar 
    14   11   12 ar 
    15   12   13 1  
    16   13   14 2  
    17   13   15 am 
    18   15   16 1  
    19   15   17 1  
    20   17   18 2  
    21   18   19 1  
    22   19   20 ar 
    23   19   21 ar 
    24   20   24 ar 
    25   21   22 ar 
    26   22   23 ar 
    27   23   24 ar 
    28   24   25 1  
    29   25   26 am 
    30   26   27 2  
    31   26   28 2  
    32   26   29 1  
    33    1   30 1  
    34    1   31 1  
    35    1   32 1  
    36    3   33 1  
    37    5   34 1  
    38    8   35 1  
    39   10   36 1  
    40   11   37 1  
    41   16   38 1  
    42   16   39 1  
    43   16   40 1  
    44   17   41 1  
    45   20   42 1  
    46   21   43 1  
    47   22   44 1  
    48   23   45 1  
    49   25   46 1  
    50   29   47 1  
    51   29   48 1  
    52   29   49 1  
@<TRIPOS>SUBSTRUCTURE
     1 F5V         1

