### 
### Created by X-TOOL on Wed Jan  1 15:39:35 2020
### 

@<TRIPOS>MOLECULE
6cks_ligand
   54    57     1     0     0
SMALL
GAST_HUCK


@<TRIPOS>ATOM
      1 C29        15.5150    6.9840   10.0090 C.3       1 F5Y        -0.0455
      2 C28        16.4760    5.9330    9.3830 C.3       1 F5Y         0.0666
      3 S27        17.7020    6.9060    8.4390 S.o2      1 F5Y        -0.0097
      4 O31        18.8740    6.2300    7.7500 O.2       1 F5Y        -0.1708
      5 O30        18.1910    7.9080    9.4080 O.2       1 F5Y        -0.1708
      6 C21        16.8030    7.6340    7.1680 C.ar      1 F5Y         0.0690
      7 C20        16.2620    8.8690    7.3700 C.ar      1 F5Y        -0.0491
      8 C22        16.7010    7.0010    5.9340 C.ar      1 F5Y        -0.0536
      9 C23        15.9600    7.6760    4.9400 C.ar      1 F5Y        -0.0385
     10 C24        15.3760    8.9550    5.1490 C.ar      1 F5Y         0.0894
     11 O25        14.6500    9.6680    4.1940 O.3       1 F5Y        -0.3240
     12 C26        14.5760    9.0910    2.8530 C.3       1 F5Y         0.0586
     13 C19        15.5700    9.5840    6.3780 C.ar      1 F5Y        -0.0071
     14 C10        15.0090   10.8590    6.6770 C.2       1 F5Y        -0.0005
     15 C2         15.4300   12.0600    6.0740 C.ar      1 F5Y        -0.0290
     16 C1         16.4510   12.0680    5.1120 C.ar      1 F5Y        -0.0636
     17 C9         13.9820   10.9540    7.5980 C.2       1 F5Y         0.0662
     18 N8         13.3760   12.2000    7.8910 N.am      1 F5Y        -0.2095
     19 C18        12.2740   12.1510    8.9060 C.3       1 F5Y         0.0572
     20 C7         13.7690   13.3760    7.3490 C.2       1 F5Y         0.2298
     21 O17        13.1700   14.4340    7.6650 O.2       1 F5Y        -0.3914
     22 C3         14.8110   13.3140    6.4360 C.ar      1 F5Y         0.0457
     23 C4         15.2690   14.4900    5.7820 C.ar      1 F5Y        -0.0558
     24 C5         16.2880   14.4610    4.8390 C.ar      1 F5Y        -0.0655
     25 C6         16.9170   13.2590    4.4500 C.ar      1 F5Y        -0.0407
     26 C11        17.9550   13.2360    3.5630 C.2       1 F5Y         0.0018
     27 C12        18.5590   14.3290    2.9790 C.2       1 F5Y         0.0654
     28 C15        18.6680   12.1460    3.1630 C.2       1 F5Y         0.0069
     29 N14        19.6960   12.5630    2.3710 N.2       1 F5Y        -0.2129
     30 N13        19.6070   13.9030    2.2520 N.pl3     1 F5Y        -0.2047
     31 C16        20.5460   14.7620    1.4330 C.3       1 F5Y         0.0617
     32 H1         14.7419    6.4689   10.5981 H         1 F5Y         0.0245
     33 H2         15.0376    7.5674    9.2079 H         1 F5Y         0.0245
     34 H3         16.0859    7.6588   10.6637 H         1 F5Y         0.0245
     35 H4         15.9242    5.2556    8.7147 H         1 F5Y         0.0500
     36 H5         16.9725    5.3471   10.1705 H         1 F5Y         0.0500
     37 H6         16.3716    9.3235    8.3480 H         1 F5Y         0.0533
     38 H7         17.1659    6.0401    5.7454 H         1 F5Y         0.0543
     39 H8         15.8307    7.1983    3.9756 H         1 F5Y         0.0517
     40 H9         13.9791    9.7482    2.2035 H         1 F5Y         0.0577
     41 H10        14.1025    8.0996    2.9060 H         1 F5Y         0.0577
     42 H11        15.5907    8.9911    2.4403 H         1 F5Y         0.0577
     43 H12        16.9157   11.1238    4.8521 H         1 F5Y         0.0504
     44 H13        13.6335   10.0561    8.1063 H         1 F5Y         0.1186
     45 H14        12.1093   11.1092    9.2184 H         1 F5Y         0.0599
     46 H15        11.3499   12.5515    8.4636 H         1 F5Y         0.0599
     47 H16        12.5540   12.7562    9.7808 H         1 F5Y         0.0599
     48 H17        14.8081   15.4400    6.0272 H         1 F5Y         0.0630
     49 H18        16.6108   15.3919    4.3870 H         1 F5Y         0.0518
     50 H19        18.2405   15.3647    3.0882 H         1 F5Y         0.1051
     51 H20        18.4523   11.1129    3.4315 H         1 F5Y         0.0678
     52 H21        21.3023   14.1236    0.9530 H         1 F5Y         0.0608
     53 H22        21.0443   15.4899    2.0901 H         1 F5Y         0.0608
     54 H23        19.9740   15.2968    0.6605 H         1 F5Y         0.0608
@<TRIPOS>BOND
     1    1    2 1  
     2    2    3 1  
     3    3    4 2  
     4    3    5 2  
     5    3    6 1  
     6    6    7 ar 
     7    6    8 ar 
     8    7   13 ar 
     9    8    9 ar 
    10    9   10 ar 
    11   10   11 1  
    12   10   13 ar 
    13   11   12 1  
    14   13   14 1  
    15   14   15 1  
    16   14   17 2  
    17   15   16 ar 
    18   15   22 ar 
    19   16   25 ar 
    20   17   18 1  
    21   18   19 1  
    22   18   20 am 
    23   20   21 2  
    24   20   22 1  
    25   22   23 ar 
    26   23   24 ar 
    27   24   25 ar 
    28   25   26 1  
    29   26   27 2  
    30   26   28 1  
    31   27   30 1  
    32   28   29 2  
    33   29   30 1  
    34   30   31 1  
    35    1   32 1  
    36    1   33 1  
    37    1   34 1  
    38    2   35 1  
    39    2   36 1  
    40    7   37 1  
    41    8   38 1  
    42    9   39 1  
    43   12   40 1  
    44   12   41 1  
    45   12   42 1  
    46   16   43 1  
    47   17   44 1  
    48   19   45 1  
    49   19   46 1  
    50   19   47 1  
    51   23   48 1  
    52   24   49 1  
    53   27   50 1  
    54   28   51 1  
    55   31   52 1  
    56   31   53 1  
    57   31   54 1  
@<TRIPOS>SUBSTRUCTURE
     1 F5Y         1

