### 
### Created by X-TOOL on Wed Jan  1 15:39:35 2020
### 

@<TRIPOS>MOLECULE
6ckw_ligand
   60    63     1     0     0
SMALL
GAST_HUCK


@<TRIPOS>ATOM
      1 C1         29.7740  -15.4730   28.9470 C.ar      1 F6D         0.0978
      2 C2         30.4020  -16.3580   28.0720 C.ar      1 F6D        -0.0394
      3 C3         30.0900  -16.3150   26.7190 C.ar      1 F6D        -0.0776
      4 C11        30.4890   -9.9700   32.0570 C.2       1 F6D         0.0060
      5 C12        31.8560  -10.3140   32.5630 C.3       1 F6D        -0.0143
      6 C13        28.5810   -8.7430   32.2840 C.2       1 F6D         0.2029
      7 C14        26.5890   -8.1040   32.0460 C.2       1 F6D         0.1388
      8 C15        24.1750   -7.6910   31.6650 C.3       1 F6D         0.0940
      9 C16        23.1810   -6.5510   31.9700 C.3       1 F6D         0.1046
     10 C17        21.9100   -6.6770   31.2700 C.1       1 F6D         0.0941
     11 C18        23.6500   -9.0320   32.1650 C.ar      1 F6D        -0.0161
     12 C19        22.9230   -9.8780   31.3310 C.ar      1 F6D        -0.0580
     13 C20        22.4530  -11.0990   31.7940 C.ar      1 F6D        -0.0680
     14 C21        22.7020  -11.4950   33.1020 C.ar      1 F6D        -0.0548
     15 C22        23.4330  -10.6520   33.9210 C.ar      1 F6D         0.0338
     16 C23        23.9110   -9.4350   33.4730 C.ar      1 F6D        -0.0443
     17 CL         23.7150  -11.1070   35.5790 Cl        1 F6D        -0.0725
     18 N5         20.9340   -6.7390   30.7150 N.1       1 F6D        -0.3033
     19 N4         25.4500   -7.3580   32.2960 N.pl3     1 F6D        -0.2929
     20 N3         27.7270   -7.8260   32.7370 N.2       1 F6D        -0.2891
     21 N6         26.6490   -9.0890   31.1650 N.2       1 F6D        -0.1864
     22 N7         27.9520   -9.4980   31.3210 N.pl3     1 F6D        -0.1035
     23 N2         29.8580   -8.9680   32.6710 N.2       1 F6D        -0.2861
     24 C10        29.8980  -10.7340   31.0190 C.2       1 F6D         0.0222
     25 C9         28.5830  -10.4990   30.6300 C.2       1 F6D         0.2197
     26 N1         27.8290  -11.1240   29.6960 N.pl3     1 F6D        -0.2630
     27 C8         28.3840  -12.1910   28.8820 C.3       1 F6D         0.0871
     28 C7         28.1550  -13.5970   29.4670 C.3       1 F6D         0.0295
     29 N          26.7070  -13.8340   29.5470 N.4       1 F6D         0.2330
     30 C6         28.8370  -14.5510   28.4850 C.ar      1 F6D         0.0355
     31 O          30.0120  -15.4380   30.2960 O.3       1 F6D        -0.3248
     32 C          30.9190  -16.4010   30.8290 C.3       1 F6D         0.0578
     33 C5         28.5470  -14.5270   27.1210 C.ar      1 F6D        -0.0634
     34 C4         29.1670  -15.4000   26.2450 C.ar      1 F6D        -0.0795
     35 H1         31.1270  -17.0730   28.4438 H         1 F6D         0.0521
     36 H2         30.5717  -17.0012   26.0319 H         1 F6D         0.0531
     37 H3         32.2642  -11.1504   31.9767 H         1 F6D         0.0454
     38 H4         31.7926  -10.6051   33.6219 H         1 F6D         0.0454
     39 H5         32.5153   -9.4393   32.4620 H         1 F6D         0.0454
     40 H6         24.3197   -7.7587   30.5767 H         1 F6D         0.0733
     41 H7         23.6455   -5.5980   31.6768 H         1 F6D         0.0602
     42 H8         22.9820   -6.5444   33.0518 H         1 F6D         0.0602
     43 H9         22.7220   -9.5793   30.3085 H         1 F6D         0.0559
     44 H10        21.8892  -11.7464   31.1321 H         1 F6D         0.0599
     45 H11        22.3318  -12.4438   33.4733 H         1 F6D         0.0565
     46 H12        24.4856   -8.7977   34.1354 H         1 F6D         0.0562
     47 H13        25.5023   -6.5542   32.9380 H         1 F6D         0.1806
     48 H14        30.4778  -11.5107   30.5224 H         1 F6D         0.0386
     49 H15        26.8485  -10.8391   29.5607 H         1 F6D         0.1954
     50 H16        29.4674  -12.0270   28.7856 H         1 F6D         0.0612
     51 H17        27.9167  -12.1482   27.8871 H         1 F6D         0.0612
     52 H18        28.6036  -13.6896   30.4671 H         1 F6D         0.1012
     53 H19        26.5373  -14.7515   29.9285 H         1 F6D         0.2009
     54 H20        26.3052  -13.7741   28.6245 H         1 F6D         0.2009
     55 H21        26.2852  -13.1391   30.1430 H         1 F6D         0.2009
     56 H22        31.0124  -16.2548   31.9152 H         1 F6D         0.0574
     57 H23        31.9045  -16.2775   30.3563 H         1 F6D         0.0574
     58 H24        30.5396  -17.4135   30.6266 H         1 F6D         0.0574
     59 H25        27.8247  -13.8134   26.7414 H         1 F6D         0.0528
     60 H26        28.9297  -15.3671   25.1878 H         1 F6D         0.0505
@<TRIPOS>BOND
     1    1    2 ar 
     2   30    1 ar 
     3    1   31 1  
     4    2    3 ar 
     5    3   34 ar 
     6    4    5 1  
     7    4   23 2  
     8   24    4 1  
     9    6   20 2  
    10   22    6 1  
    11    6   23 1  
    12    7   19 1  
    13    7   20 1  
    14   21    7 2  
    15    8    9 1  
    16    8   11 1  
    17   19    8 1  
    18    9   10 1  
    19   10   18 3  
    20   11   12 ar 
    21   11   16 ar 
    22   12   13 ar 
    23   13   14 ar 
    24   15   14 ar 
    25   16   15 ar 
    26   15   17 1  
    27   22   21 1  
    28   25   22 1  
    29   25   24 2  
    30   26   25 1  
    31   27   26 1  
    32   28   27 1  
    33   28   29 1  
    34   28   30 1  
    35   30   33 ar 
    36   31   32 1  
    37   33   34 ar 
    38    2   35 1  
    39    3   36 1  
    40    5   37 1  
    41    5   38 1  
    42    5   39 1  
    43    8   40 1  
    44    9   41 1  
    45    9   42 1  
    46   12   43 1  
    47   13   44 1  
    48   14   45 1  
    49   16   46 1  
    50   19   47 1  
    51   24   48 1  
    52   26   49 1  
    53   27   50 1  
    54   27   51 1  
    55   28   52 1  
    56   29   53 1  
    57   29   54 1  
    58   29   55 1  
    59   32   56 1  
    60   32   57 1  
    61   32   58 1  
    62   33   59 1  
    63   34   60 1  
@<TRIPOS>SUBSTRUCTURE
     1 F6D         1

