### 
### Created by X-TOOL on Wed Jan  1 15:39:37 2020
### 

@<TRIPOS>MOLECULE
6ckx_ligand
   61    65     1     0     0
SMALL
GAST_HUCK


@<TRIPOS>ATOM
      1 C5          8.1010  -23.1720   38.6810 C.3       1 8M1         0.0663
      2 C7          9.5700  -22.7310   38.7600 C.3       1 8M1        -0.0225
      3 C8          9.7830  -21.6730   39.8590 C.3       1 8M1        -0.0269
      4 C17        12.9550  -20.3010   44.2090 C.ar      1 8M1         0.0227
      5 C20        15.0910  -22.0870   44.1300 C.ar      1 8M1        -0.0562
      6 C21        13.9160  -22.4440   43.5340 C.ar      1 8M1        -0.0411
      7 C22        12.8140  -21.5590   43.5430 C.ar      1 8M1         0.0409
      8 C24         8.0840  -25.6370   38.1170 C.ar      1 8M1         0.0667
      9 C26         7.2690  -27.7330   39.0380 C.ar      1 8M1        -0.0739
     10 C28         9.5870  -27.5030   38.3340 C.ar      1 8M1        -0.0739
     11 C1          7.2340  -25.0870   35.3890 C.3       1 8M1         0.0318
     12 C2          7.4910  -24.0080   36.4220 C.2       1 8M1         0.2028
     13 O3          7.3190  -22.8590   36.0550 O.2       1 8M1        -0.3851
     14 N4          7.8900  -24.2880   37.7140 N.am      1 8M1        -0.2186
     15 C9          9.2600  -22.1960   41.2130 C.3       1 8M1         0.0425
     16 C11         7.7590  -22.4830   41.0740 C.3       1 8M1        -0.0269
     17 C12         7.5680  -23.6020   40.0530 C.3       1 8M1        -0.0225
     18 N13         9.4290  -21.2520   42.3370 N.pl3     1 8M1        -0.2858
     19 C14        10.6420  -20.9780   42.9520 C.ar      1 8M1         0.1880
     20 N15        10.7550  -19.7940   43.5750 N.ar      1 8M1        -0.2421
     21 C16        11.8550  -19.4210   44.2180 C.ar      1 8M1         0.0331
     22 C18        14.1710  -19.9740   44.8380 C.ar      1 8M1        -0.0437
     23 C19        15.2190  -20.8560   44.7930 C.ar      1 8M1        -0.0552
     24 N23        11.6400  -21.8620   42.9300 N.ar      1 8M1        -0.2672
     25 C25         7.0420  -26.4160   38.6580 C.ar      1 8M1        -0.0441
     26 C27         8.5510  -28.2810   38.8650 C.ar      1 8M1        -0.0490
     27 C29         9.3560  -26.1950   37.9610 C.ar      1 8M1        -0.0441
     28 C30         8.8750  -29.6850   39.2400 C.2       1 8M1        -0.0089
     29 C31         8.0210  -30.6470   39.8360 C.2       1 8M1         0.0030
     30 N32         8.7180  -31.7470   39.9990 N.2       1 8M1        -0.2156
     31 N33        10.0250  -31.5290   39.5070 N.pl3     1 8M1        -0.2088
     32 C34        11.1310  -32.4850   39.4840 C.3       1 8M1         0.0605
     33 C35        10.1040  -30.2650   39.0460 C.2       1 8M1         0.0583
     34 H1          7.5135  -22.3076   38.3381 H         1 8M1         0.0622
     35 H2          9.8679  -22.3046   37.7908 H         1 8M1         0.0293
     36 H3         10.1952  -23.6083   38.9824 H         1 8M1         0.0293
     37 H4          9.2394  -20.7554   39.5898 H         1 8M1         0.0289
     38 H5         10.8568  -21.4509   39.9459 H         1 8M1         0.0289
     39 H6         15.9372  -22.7634   44.0909 H         1 8M1         0.0674
     40 H7         13.8277  -23.4107   43.0516 H         1 8M1         0.0617
     41 H8          6.4687  -28.3289   39.4617 H         1 8M1         0.0543
     42 H9         10.5759  -27.9307   38.2153 H         1 8M1         0.0543
     43 H10         7.4217  -26.0745   35.8358 H         1 8M1         0.0472
     44 H11         7.9052  -24.9396   34.5300 H         1 8M1         0.0472
     45 H12         6.1886  -25.0300   35.0515 H         1 8M1         0.0472
     46 H13         9.7950  -23.1262   41.4547 H         1 8M1         0.0561
     47 H14         7.2388  -21.5764   40.7314 H         1 8M1         0.0289
     48 H15         7.3500  -22.7951   42.0463 H         1 8M1         0.0289
     49 H16         8.1132  -24.4962   40.3894 H         1 8M1         0.0293
     50 H17         6.4965  -23.8360   39.9683 H         1 8M1         0.0293
     51 H18         8.5913  -20.7654   42.6869 H         1 8M1         0.1874
     52 H19        11.9051  -18.4689   44.7339 H         1 8M1         0.1006
     53 H20        14.2782  -19.0279   45.3562 H         1 8M1         0.0679
     54 H21        16.1562  -20.6006   45.2741 H         1 8M1         0.0622
     55 H22         6.0551  -25.9842   38.7787 H         1 8M1         0.0498
     56 H23        10.1615  -25.5996   37.5467 H         1 8M1         0.0498
     57 H24         6.9770  -30.5000   40.1088 H         1 8M1         0.0663
     58 H25        12.0170  -32.0099   39.0376 H         1 8M1         0.0606
     59 H26        10.8448  -33.3625   38.8856 H         1 8M1         0.0606
     60 H27        11.3633  -32.8018   40.5115 H         1 8M1         0.0606
     61 H28        10.9791  -29.7922   38.6026 H         1 8M1         0.0996
@<TRIPOS>BOND
     1    2    1 1  
     2    1   14 1  
     3   17    1 1  
     4    3    2 1  
     5   15    3 1  
     6    7    4 ar 
     7    4   21 ar 
     8    4   22 ar 
     9    6    5 ar 
    10    5   23 ar 
    11    7    6 ar 
    12   24    7 ar 
    13   14    8 1  
    14    8   25 ar 
    15    8   27 ar 
    16   25    9 ar 
    17    9   26 ar 
    18   10   26 ar 
    19   27   10 ar 
    20   12   11 1  
    21   12   13 2  
    22   14   12 am 
    23   15   16 1  
    24   18   15 1  
    25   16   17 1  
    26   19   18 1  
    27   19   20 ar 
    28   19   24 ar 
    29   20   21 ar 
    30   22   23 ar 
    31   26   28 1  
    32   28   29 1  
    33   28   33 2  
    34   29   30 2  
    35   30   31 1  
    36   31   32 1  
    37   31   33 1  
    38    1   34 1  
    39    2   35 1  
    40    2   36 1  
    41    3   37 1  
    42    3   38 1  
    43    5   39 1  
    44    6   40 1  
    45    9   41 1  
    46   10   42 1  
    47   11   43 1  
    48   11   44 1  
    49   11   45 1  
    50   15   46 1  
    51   16   47 1  
    52   16   48 1  
    53   17   49 1  
    54   17   50 1  
    55   18   51 1  
    56   21   52 1  
    57   22   53 1  
    58   23   54 1  
    59   25   55 1  
    60   27   56 1  
    61   29   57 1  
    62   32   58 1  
    63   32   59 1  
    64   32   60 1  
    65   33   61 1  
@<TRIPOS>SUBSTRUCTURE
     1 8M1         1

