### 
### Created by X-TOOL on Wed Jan  1 15:39:37 2020
### 

@<TRIPOS>MOLECULE
6clv_ligand
   50    53     1     0     0
SMALL
GAST_HUCK


@<TRIPOS>ATOM
      1 C01        85.4480  123.5060   15.4890 C.ar      1 6MB         0.2637
      2 C02        85.6730  124.7350   14.9430 C.ar      1 6MB         0.2851
      3 N01        86.8960  125.3540   15.1010 N.ar      1 6MB        -0.1568
      4 C03        87.8770  124.7490   15.7970 C.ar      1 6MB         0.1244
      5 C04        87.6460  123.4910   16.3540 C.ar      1 6MB         0.1648
      6 N02        86.4520  122.8830   16.2030 N.ar      1 6MB        -0.1670
      7 C05        88.7420  122.8010   17.1410 C.3       1 6MB         0.1178
      8 C06        84.1060  122.8420   15.3090 C.2       1 6MB         0.2754
      9 N03        84.6180  125.4040   14.1860 N.pl3     1 6MB        -0.2042
     10 N04        83.0950  123.4840   14.5820 N.am      1 6MB        -0.2435
     11 C07        83.3350  124.7670   14.0130 C.cat     1 6MB         0.2087
     12 O01        83.9010  121.7480   15.7930 O.2       1 6MB        -0.3491
     13 N05        82.3110  125.4180   13.2770 N.pl3     1 6MB        -0.3305
     14 N06        88.3440  122.6700   18.5020 N.pl3     1 6MB        -0.2930
     15 C08        88.4210  121.3980   19.1290 C.ar      1 6MB         0.0426
     16 C09        87.6990  121.1470   20.2870 C.ar      1 6MB        -0.0423
     17 C10        87.7760  119.9040   20.8980 C.ar      1 6MB        -0.0465
     18 C11        88.5720  118.9160   20.3390 C.ar      1 6MB         0.1011
     19 C12        89.2920  119.1690   19.1820 C.ar      1 6MB        -0.0465
     20 C13        89.2170  120.4110   18.5740 C.ar      1 6MB        -0.0423
     21 S01        88.6990  117.3140   21.0860 S.o2      1 6MB         0.0869
     22 N07        89.9630  116.5310   20.3850 N.am      1 6MB        -0.1544
     23 C14        91.1710  116.2280   21.0690 C.2       1 6MB         0.2356
     24 O02        87.4770  116.5740   20.9460 O.2       1 6MB        -0.1459
     25 O03        88.8220  117.3830   22.5160 O.2       1 6MB        -0.1459
     26 C15        91.9780  117.0850   21.8030 C.2       1 6MB        -0.0076
     27 C16        93.0660  116.3260   22.2750 C.2       1 6MB        -0.0052
     28 N08        92.9040  115.0540   21.8230 N.2       1 6MB        -0.1983
     29 O04        91.7510  115.0330   21.0930 O.3       1 6MB        -0.1749
     30 C17        91.7640  118.5590   22.0740 C.3       1 6MB        -0.0545
     31 C18        94.2050  116.8370   23.1290 C.3       1 6MB        -0.0338
     32 H1         88.8377  125.2350   15.9234 H         1 6MB         0.1319
     33 H2         89.6640  123.3983   17.0853 H         1 6MB         0.0951
     34 H3         88.9252  121.8032   16.7157 H         1 6MB         0.0951
     35 H4         84.7903  126.3325   13.7748 H         1 6MB         0.2564
     36 H5         82.2060  123.0418   14.4629 H         1 6MB         0.1833
     37 H6         82.4835  126.3461   12.8649 H         1 6MB         0.1792
     38 H7         81.3954  124.9624   13.1549 H         1 6MB         0.1792
     39 H8         88.0039  123.4889   19.0260 H         1 6MB         0.1824
     40 H9         87.0743  121.9229   20.7146 H         1 6MB         0.0515
     41 H10        87.2178  119.7066   21.8060 H         1 6MB         0.0602
     42 H11        89.9151  118.3931   18.7521 H         1 6MB         0.0602
     43 H12        89.7787  120.6091   17.6683 H         1 6MB         0.0515
     44 H13        89.8774  116.2537   19.4280 H         1 6MB         0.2220
     45 H14        90.8363  118.8908   21.5849 H         1 6MB         0.0263
     46 H15        92.6139  119.1323   21.6753 H         1 6MB         0.0263
     47 H16        91.6862  118.7249   23.1586 H         1 6MB         0.0263
     48 H17        94.9035  116.0137   23.3394 H         1 6MB         0.0364
     49 H18        93.8058  117.2301   24.0756 H         1 6MB         0.0364
     50 H19        94.7341  117.6388   22.5931 H         1 6MB         0.0364
@<TRIPOS>BOND
     1    1    2 ar 
     2    1    6 ar 
     3    1    8 1  
     4    2    3 ar 
     5    2    9 1  
     6    3    4 ar 
     7    4    5 ar 
     8    5    6 ar 
     9    5    7 1  
    10    7   14 1  
    11    8   10 am 
    12    8   12 2  
    13    9   11 ar 
    14   10   11 ar 
    15   11   13 ar 
    16   14   15 1  
    17   15   16 ar 
    18   15   20 ar 
    19   16   17 ar 
    20   17   18 ar 
    21   18   19 ar 
    22   18   21 1  
    23   19   20 ar 
    24   21   22 am 
    25   21   24 2  
    26   21   25 2  
    27   22   23 1  
    28   23   26 2  
    29   23   29 1  
    30   26   27 1  
    31   26   30 1  
    32   27   28 2  
    33   27   31 1  
    34   28   29 1  
    35    4   32 1  
    36    7   33 1  
    37    7   34 1  
    38    9   35 1  
    39   10   36 1  
    40   13   37 1  
    41   13   38 1  
    42   14   39 1  
    43   16   40 1  
    44   17   41 1  
    45   19   42 1  
    46   20   43 1  
    47   22   44 1  
    48   30   45 1  
    49   30   46 1  
    50   30   47 1  
    51   31   48 1  
    52   31   49 1  
    53   31   50 1  
@<TRIPOS>SUBSTRUCTURE
     1 6MB         1

