### 
### Created by X-TOOL on Wed Jan  1 15:39:36 2020
### 

@<TRIPOS>MOLECULE
6cmj_ligand
   49    52     1     0     0
SMALL
GAST_HUCK


@<TRIPOS>ATOM
      1 C1         37.4470   50.6690    6.7560 C.3       1 F6J        -0.0608
      2 N2         35.8170   45.4090   11.2000 N.ar      1 F6J        -0.2830
      3 C5         39.5550   50.7510    8.9840 C.ar      1 F6J        -0.0348
      4 C6         38.8060   49.7230    9.5380 C.ar      1 F6J        -0.0592
      5 C7         39.3870   48.6240   10.1310 C.ar      1 F6J        -0.0426
      6 C9         41.5190   49.5790    9.6590 C.ar      1 F6J        -0.0603
      7 C10        40.9380   50.6760    9.0550 C.ar      1 F6J         0.0053
      8 C11        41.8840   51.6970    8.5080 C.2       1 F6J         0.0546
      9 C12        38.5790   47.5550   10.6950 C.2       1 F6J        -0.0036
     10 C13        38.9670   46.8290   11.8070 C.2       1 F6J         0.0455
     11 C15        34.9810   45.7670   10.2110 C.ar      1 F6J         0.0037
     12 C16        35.1890   46.7310    9.2450 C.ar      1 F6J        -0.0057
     13 C18        37.3010   47.0810   10.3140 C.ar      1 F6J         0.0137
     14 C19        34.1880   47.0590    8.2040 C.ar      1 F6J        -0.0187
     15 C23        33.3530   48.5320    6.4680 C.ar      1 F6J        -0.0620
     16 C24        34.2840   48.2070    7.4310 C.ar      1 F6J        -0.0551
     17 C2         37.4730   51.7360    7.8190 C.3       1 F6J        -0.0366
     18 C3         37.0540   53.0170    7.1380 C.3       1 F6J        -0.0608
     19 C4         38.8850   51.9250    8.3410 C.3       1 F6J        -0.0159
     20 C8         40.7600   48.5660   10.1900 C.ar      1 F6J        -0.0670
     21 O1         41.7670   52.0550    7.3040 O.co2     1 F6J        -0.5646
     22 O2         42.7930   52.0870    9.2800 O.co2     1 F6J        -0.5646
     23 N1         37.9830   45.9430   12.1110 N.pl3     1 F6J        -0.2582
     24 C14        36.9580   46.1010   11.2120 C.ar      1 F6J         0.1410
     25 C17        36.3970   47.3940    9.3230 C.ar      1 F6J        -0.0454
     26 C20        33.0810   46.2560    7.9580 C.ar      1 F6J        -0.0551
     27 C21        32.1320   46.5600    7.0110 C.ar      1 F6J        -0.0620
     28 C22        32.2690   47.7020    6.2590 C.ar      1 F6J        -0.0624
     29 H1         36.4181   50.5434    6.3877 H         1 F6J         0.0234
     30 H2         37.8027   49.7189    7.1813 H         1 F6J         0.0234
     31 H3         38.1011   50.9655    5.9228 H         1 F6J         0.0234
     32 H4         37.7245   49.7870    9.5029 H         1 F6J         0.0506
     33 H5         42.5997   49.5161    9.7152 H         1 F6J         0.0617
     34 H6         39.9045   46.9479   12.3482 H         1 F6J         0.1045
     35 H7         34.0355   45.2387   10.1665 H         1 F6J         0.0762
     36 H8         33.4709   49.4338    5.8781 H         1 F6J         0.0616
     37 H9         35.1235   48.8740    7.5905 H         1 F6J         0.0617
     38 H10        36.7906   51.4814    8.6433 H         1 F6J         0.0318
     39 H11        37.0541   53.8383    7.8698 H         1 F6J         0.0234
     40 H12        36.0430   52.8972    6.7216 H         1 F6J         0.0234
     41 H13        37.7597   53.2488    6.3267 H         1 F6J         0.0234
     42 H14        39.5103   52.2343    7.4906 H         1 F6J         0.0435
     43 H15        38.8536   52.7335    9.0862 H         1 F6J         0.0435
     44 H16        41.2447   47.7167   10.6578 H         1 F6J         0.0517
     45 H17        38.0029   45.2657   12.8867 H         1 F6J         0.2348
     46 H18        36.6358   48.1656    8.6001 H         1 F6J         0.0682
     47 H19        32.9603   45.3489    8.5391 H         1 F6J         0.0617
     48 H20        31.2825   45.9042    6.8587 H         1 F6J         0.0616
     49 H21        31.5301   47.9501    5.5057 H         1 F6J         0.0612
@<TRIPOS>BOND
     1   17    1 1  
     2    2   11 ar 
     3   24    2 ar 
     4    3    4 ar 
     5    3    7 ar 
     6   19    3 1  
     7    4    5 ar 
     8    5    9 1  
     9    5   20 ar 
    10    7    6 ar 
    11    6   20 ar 
    12    7    8 1  
    13    8   21 ar 
    14    8   22 ar 
    15    9   10 2  
    16    9   13 1  
    17   10   23 1  
    18   12   11 ar 
    19   12   14 1  
    20   25   12 ar 
    21   13   24 ar 
    22   13   25 ar 
    23   14   16 ar 
    24   14   26 ar 
    25   16   15 ar 
    26   15   28 ar 
    27   17   18 1  
    28   17   19 1  
    29   23   24 1  
    30   26   27 ar 
    31   27   28 ar 
    32    1   29 1  
    33    1   30 1  
    34    1   31 1  
    35    4   32 1  
    36    6   33 1  
    37   10   34 1  
    38   11   35 1  
    39   15   36 1  
    40   16   37 1  
    41   17   38 1  
    42   18   39 1  
    43   18   40 1  
    44   18   41 1  
    45   19   42 1  
    46   19   43 1  
    47   20   44 1  
    48   23   45 1  
    49   25   46 1  
    50   26   47 1  
    51   27   48 1  
    52   28   49 1  
@<TRIPOS>SUBSTRUCTURE
     1 F6J         1

