### 
### Created by X-TOOL on Wed Jan  1 15:39:38 2020
### 

@<TRIPOS>MOLECULE
6cmr_ligand
   43    45     1     0     0
SMALL
GAST_HUCK


@<TRIPOS>ATOM
      1 C1          0.9050   12.2120   21.9060 C.ar      1 5OD         0.0872
      2 C3         -0.1380   13.9740   20.8720 C.ar      1 5OD         0.0435
      3 C11        -4.8610   13.3930   20.7350 C.3       1 5OD         0.0133
      4 C12        -5.0950   14.3650   19.6180 C.3       1 5OD        -0.0126
      5 C13        -3.8460   14.6880   18.8770 C.3       1 5OD         0.0133
      6 C14        -2.6280   15.0140   19.7450 C.3       1 5OD         0.0367
      7 C15         2.3380   10.1070   21.8990 C.ar      1 5OD         0.0604
      8 C16         3.5520    9.4690   22.1140 C.ar      1 5OD         0.0533
      9 C17         4.6460   10.1840   22.5650 C.ar      1 5OD        -0.0487
     10 C18         4.5340   11.5420   22.8030 C.ar      1 5OD        -0.0622
     11 C19         3.3240   12.1810   22.5900 C.ar      1 5OD        -0.0551
     12 C23        -5.6970   15.6520   20.1720 C.3       1 5OD        -0.0187
     13 N2          0.9510   13.2750   21.1260 N.ar      1 5OD        -0.2933
     14 C4         -1.3620   13.5960   21.4050 C.ar      1 5OD         0.1281
     15 N5         -1.4030   12.5310   22.1960 N.ar      1 5OD        -0.2474
     16 C6         -0.3100   11.8320   22.4590 C.ar      1 5OD         0.1329
     17 N7         -0.3940   10.6660   23.3170 N.pl3     1 5OD        -0.3164
     18 C8          2.2210   11.4690   22.1480 C.ar      1 5OD         0.0071
     19 N9         -2.5620   14.3890   21.1180 N.pl3     1 5OD        -0.2900
     20 C10        -3.8310   13.8960   21.7390 C.3       1 5OD         0.0367
     21 CL1         0.9410    9.1600   21.3220 Cl        1 5OD        -0.0702
     22 CL2         3.7310    7.7180   21.8140 Cl        1 5OD        -0.0704
     23 N22        -6.0650   13.7570   18.6480 N.4       1 5OD         0.2228
     24 H1         -0.0763   14.8528   20.2404 H         1 5OD         0.0714
     25 H2         -4.5037   12.4442   20.3082 H         1 5OD         0.0343
     26 H3         -5.8124   13.2235   21.2604 H         1 5OD         0.0343
     27 H4         -4.0481   15.5591   18.2365 H         1 5OD         0.0343
     28 H5         -3.5916   13.8218   18.2485 H         1 5OD         0.0343
     29 H6         -2.6014   16.1055   19.8785 H         1 5OD         0.0526
     30 H7         -1.7337   14.6902   19.1925 H         1 5OD         0.0526
     31 H8          5.5913    9.6805   22.7321 H         1 5OD         0.0612
     32 H9          5.3911   12.1045   23.1553 H         1 5OD         0.0615
     33 H10         3.2393   13.2465   22.7705 H         1 5OD         0.0611
     34 H11        -6.6211   15.4179   20.7209 H         1 5OD         0.0287
     35 H12        -5.9269   16.3362   19.3420 H         1 5OD         0.0287
     36 H13        -4.9773   16.1301   20.8528 H         1 5OD         0.0287
     37 H14        -1.2991   10.3901   23.7238 H         1 5OD         0.1806
     38 H15         0.4515   10.1137   23.5196 H         1 5OD         0.1806
     39 H16        -3.5830   13.0705   22.4224 H         1 5OD         0.0526
     40 H17        -4.2799   14.7223   22.3097 H         1 5OD         0.0526
     41 H18        -5.6773   12.9046   18.2749 H         1 5OD         0.1999
     42 H19        -6.2384   14.4049   17.8955 H         1 5OD         0.1999
     43 H20        -6.9309   13.5530   19.1220 H         1 5OD         0.1999
@<TRIPOS>BOND
     1   13    1 ar 
     2    1   16 ar 
     3    1   18 1  
     4    2   13 ar 
     5   14    2 ar 
     6    4    3 1  
     7    3   20 1  
     8    5    4 1  
     9    4   12 1  
    10    4   23 1  
    11    6    5 1  
    12   19    6 1  
    13    7    8 ar 
    14   18    7 ar 
    15    7   21 1  
    16    8    9 ar 
    17    8   22 1  
    18   10    9 ar 
    19   11   10 ar 
    20   18   11 ar 
    21   14   15 ar 
    22   14   19 1  
    23   15   16 ar 
    24   16   17 1  
    25   19   20 1  
    26    2   24 1  
    27    3   25 1  
    28    3   26 1  
    29    5   27 1  
    30    5   28 1  
    31    6   29 1  
    32    6   30 1  
    33    9   31 1  
    34   10   32 1  
    35   11   33 1  
    36   12   34 1  
    37   12   35 1  
    38   12   36 1  
    39   17   37 1  
    40   17   38 1  
    41   20   39 1  
    42   20   40 1  
    43   23   41 1  
    44   23   42 1  
    45   23   43 1  
@<TRIPOS>SUBSTRUCTURE
     1 5OD         1

