### 
### Created by X-TOOL on Wed Jan  1 15:39:37 2020
### 

@<TRIPOS>MOLECULE
6cms_ligand
   43    45     1     0     0
SMALL
GAST_HUCK


@<TRIPOS>ATOM
      1 C1         41.1770   11.9940  240.5260 C.ar      1 5OD         0.0872
      2 C3         40.1700   13.8100  239.5530 C.ar      1 5OD         0.0435
      3 C11        35.3750   13.3390  239.6670 C.3       1 5OD         0.0133
      4 C12        35.1420   14.2030  238.4640 C.3       1 5OD        -0.0126
      5 C13        36.3490   14.3020  237.6040 C.3       1 5OD         0.0133
      6 C14        37.6340   14.6790  238.3400 C.3       1 5OD         0.0367
      7 C15        42.5480    9.8390  240.5700 C.ar      1 5OD         0.0604
      8 C16        43.7380    9.1750  240.8110 C.ar      1 5OD         0.0533
      9 C17        44.8510    9.8630  241.2560 C.ar      1 5OD        -0.0487
     10 C18        44.7750   11.2270  241.4630 C.ar      1 5OD        -0.0622
     11 C19        43.5880   11.8970  241.2230 C.ar      1 5OD        -0.0551
     12 C23        34.7150   15.6000  238.9020 C.3       1 5OD        -0.0187
     13 N2         41.2510   13.0920  239.7980 N.ar      1 5OD        -0.2933
     14 C4         38.9380   13.4120  240.0460 C.ar      1 5OD         0.1281
     15 N5         38.8670   12.3160  240.7820 N.ar      1 5OD        -0.2474
     16 C6         39.9480   11.6010  241.0370 C.ar      1 5OD         0.1329
     17 N7         39.8280   10.4020  241.8430 N.pl3     1 5OD        -0.3164
     18 C8         42.4670   11.2120  240.7850 C.ar      1 5OD         0.0071
     19 N9         37.7560   14.2240  239.7690 N.pl3     1 5OD        -0.2900
     20 C10        36.5190   13.8500  240.5330 C.3       1 5OD         0.0367
     21 CL1        41.1530    8.8830  239.9960 Cl        1 5OD        -0.0702
     22 CL2        43.8340    7.4160  240.5430 Cl        1 5OD        -0.0704
     23 N22        34.0350   13.5980  237.6530 N.4       1 5OD         0.2228
     24 H1         40.2471   14.7159  238.9628 H         1 5OD         0.0714
     25 H2         35.6148   12.3199  239.3295 H         1 5OD         0.0343
     26 H3         34.4560   13.3185  240.2711 H         1 5OD         0.0343
     27 H4         36.1591   15.0654  236.8351 H         1 5OD         0.0343
     28 H5         36.5056   13.3261  237.1211 H         1 5OD         0.0343
     29 H6         37.7122   15.7762  238.3324 H         1 5OD         0.0526
     30 H7         38.4769   14.2474  237.7803 H         1 5OD         0.0526
     31 H8         45.7793    9.3350  241.4418 H         1 5OD         0.0612
     32 H9         45.6443   11.7718  241.8131 H         1 5OD         0.0615
     33 H10        43.5353   12.9684  241.3794 H         1 5OD         0.0611
     34 H11        33.8211   15.5273  239.5390 H         1 5OD         0.0287
     35 H12        34.4845   16.2080  238.0148 H         1 5OD         0.0287
     36 H13        35.5313   16.0723  239.4683 H         1 5OD         0.0287
     37 H14        38.9096   10.1220  242.2160 H         1 5OD         0.1806
     38 H15        40.6611    9.8302  242.0427 H         1 5OD         0.1806
     39 H16        36.7844   13.0616  241.2527 H         1 5OD         0.0526
     40 H17        36.1682   14.7397  241.0765 H         1 5OD         0.0526
     41 H18        34.3031   12.6729  237.3559 H         1 5OD         0.1999
     42 H19        33.8584   14.1727  236.8439 H         1 5OD         0.1999
     43 H20        33.1995   13.5417  238.2141 H         1 5OD         0.1999
@<TRIPOS>BOND
     1   13    1 ar 
     2    1   16 ar 
     3    1   18 1  
     4    2   13 ar 
     5   14    2 ar 
     6    4    3 1  
     7    3   20 1  
     8    5    4 1  
     9    4   12 1  
    10    4   23 1  
    11    6    5 1  
    12   19    6 1  
    13    7    8 ar 
    14   18    7 ar 
    15    7   21 1  
    16    8    9 ar 
    17    8   22 1  
    18   10    9 ar 
    19   11   10 ar 
    20   18   11 ar 
    21   14   15 ar 
    22   14   19 1  
    23   15   16 ar 
    24   16   17 1  
    25   19   20 1  
    26    2   24 1  
    27    3   25 1  
    28    3   26 1  
    29    5   27 1  
    30    5   28 1  
    31    6   29 1  
    32    6   30 1  
    33    9   31 1  
    34   10   32 1  
    35   11   33 1  
    36   12   34 1  
    37   12   35 1  
    38   12   36 1  
    39   17   37 1  
    40   17   38 1  
    41   20   39 1  
    42   20   40 1  
    43   23   41 1  
    44   23   42 1  
    45   23   43 1  
@<TRIPOS>SUBSTRUCTURE
     1 5OD         1

