### 
### Created by X-TOOL on Wed Jan  1 15:39:36 2020
### 

@<TRIPOS>MOLECULE
6cn6_ligand
   67    71     1     0     0
SMALL
GAST_HUCK


@<TRIPOS>ATOM
      1 N3          1.5120   28.6110   11.8850 N.am      1 F7J        -0.2448
      2 C4          0.6840   29.7850    9.9370 C.ar      1 F7J        -0.0597
      3 N2         -3.7480   33.4080   15.6770 N.am      1 F7J        -0.2728
      4 C7         -1.3850   30.8940   11.4840 C.ar      1 F7J        -0.0302
      5 C6         -1.2560   31.1260   10.0870 C.ar      1 F7J         0.0444
      6 C9         -3.0630   32.2860   10.8160 C.2       1 F7J         0.0130
      7 C13        -2.4010   32.8120   15.5690 C.3       1 F7J         0.0352
      8 C20        -6.4030   37.4050   16.4150 C.3       1 F7J        -0.0506
      9 C21        -5.5360   36.5110   15.5370 C.3       1 F7J        -0.0332
     10 C8         -2.5170   31.6700   11.9260 C.2       1 F7J        -0.0505
     11 C18        -5.4850   35.6510   17.8460 C.3       1 F7J        -0.0332
     12 C16        -3.9110   34.7130   16.1490 C.2       1 F7J         0.1815
     13 C19        -5.9720   37.1010   17.8480 C.3       1 F7J        -0.0506
     14 C26         5.5530   26.3280   13.9120 C.ar      1 F7J        -0.0230
     15 C1         -0.6470   29.6160   13.5210 C.3       1 F7J        -0.0407
     16 C2         -0.4800   30.0100   12.0980 C.ar      1 F7J        -0.0367
     17 C3          0.5440   29.4920   11.3160 C.ar      1 F7J         0.0505
     18 C5         -0.2290   30.5870    9.3010 C.ar      1 F7J        -0.0604
     19 N1         -2.3100   31.9400    9.6810 N.pl3     1 F7J        -0.2868
     20 C10        -2.4730   32.4680    8.3330 C.3       1 F7J         0.0347
     21 C11        -2.9850   31.8540   13.3220 C.3       1 F7J        -0.0223
     22 C12        -1.9510   32.6690   14.1090 C.3       1 F7J        -0.0254
     23 C14        -4.7700   32.7280   14.8680 C.3       1 F7J         0.0352
     24 C15        -4.3300   32.5930   13.4000 C.3       1 F7J        -0.0254
     25 O1         -2.9310   35.3810   16.4660 O.2       1 F7J        -0.3966
     26 C17        -5.3150   35.2440   16.3710 C.3       1 F7J         0.0488
     27 C22         2.8180   29.0320   12.0700 C.2       1 F7J         0.2290
     28 O2          3.1990   30.1440   11.7150 O.2       1 F7J        -0.3758
     29 C23         3.7330   28.0530   12.7100 C.ar      1 F7J         0.0658
     30 C24         3.3140   27.2080   13.7330 C.ar      1 F7J        -0.0332
     31 C25         4.2230   26.3310   14.3130 C.ar      1 F7J        -0.0454
     32 C27         5.9650   27.2010   12.9070 C.ar      1 F7J         0.1011
     33 C28         5.0580   28.0540   12.2860 C.ar      1 F7J        -0.0066
     34 C29         7.3340   27.2540   12.5220 C.1       1 F7J         0.1017
     35 N4          8.4440   27.3160   12.2040 N.1       1 F7J        -0.3283
     36 H1          1.2456   27.6847   12.1515 H         1 F7J         0.2184
     37 H2          1.5181   29.3727    9.3809 H         1 F7J         0.0432
     38 H3         -3.9370   32.9357   10.8201 H         1 F7J         0.0762
     39 H4         -2.4149   31.8159   16.0354 H         1 F7J         0.0523
     40 H5         -1.6843   33.4556   16.1001 H         1 F7J         0.0523
     41 H6         -7.4678   37.1676   16.2742 H         1 F7J         0.0267
     42 H7         -6.2290   38.4647   16.1768 H         1 F7J         0.0267
     43 H8         -4.5766   37.0002   15.3129 H         1 F7J         0.0292
     44 H9         -6.0538   36.2710   14.5966 H         1 F7J         0.0292
     45 H10        -6.2256   35.0016   18.3356 H         1 F7J         0.0292
     46 H11        -4.5232   35.5733   18.3740 H         1 F7J         0.0292
     47 H12        -6.8230   37.2169   18.5353 H         1 F7J         0.0267
     48 H13        -5.1592   37.7762   18.1536 H         1 F7J         0.0267
     49 H14         6.2632   25.6533   14.3762 H         1 F7J         0.0751
     50 H15        -1.5140   30.1416   13.9476 H         1 F7J         0.0351
     51 H16         0.2585   29.8849   14.0847 H         1 F7J         0.0351
     52 H17        -0.8092   28.5299   13.5842 H         1 F7J         0.0351
     53 H18        -0.1592   30.7942    8.2393 H         1 F7J         0.0452
     54 H19        -1.7340   32.0017    7.6648 H         1 F7J         0.0554
     55 H20        -2.3206   33.5573    8.3449 H         1 F7J         0.0554
     56 H21        -3.4873   32.2435    7.9714 H         1 F7J         0.0554
     57 H22        -3.0979   30.8627   13.7853 H         1 F7J         0.0384
     58 H23        -0.9791   32.1549   14.0755 H         1 F7J         0.0301
     59 H24        -1.8535   33.6674   13.6578 H         1 F7J         0.0301
     60 H25        -5.7032   33.3088   14.9093 H         1 F7J         0.0523
     61 H26        -4.9442   31.7241   15.2825 H         1 F7J         0.0523
     62 H27        -5.0902   32.0264   12.8423 H         1 F7J         0.0301
     63 H28        -4.2218   33.5946   12.9583 H         1 F7J         0.0301
     64 H29        -6.0512   34.4736   16.0980 H         1 F7J         0.0538
     65 H30         2.2858   27.2335   14.0752 H         1 F7J         0.0738
     66 H31         3.8917   25.6445   15.0837 H         1 F7J         0.0652
     67 H32         5.3788   28.7092   11.4842 H         1 F7J         0.0773
@<TRIPOS>BOND
     1    1   17 1  
     2   27    1 am 
     3   17    2 ar 
     4    2   18 ar 
     5    7    3 1  
     6    3   12 am 
     7   23    3 1  
     8    4    5 ar 
     9    4   10 1  
    10   16    4 ar 
    11   18    5 ar 
    12    5   19 1  
    13   10    6 2  
    14    6   19 1  
    15   22    7 1  
    16    9    8 1  
    17   13    8 1  
    18   26    9 1  
    19   10   21 1  
    20   11   13 1  
    21   26   11 1  
    22   12   25 2  
    23   12   26 1  
    24   31   14 ar 
    25   14   32 ar 
    26   16   15 1  
    27   17   16 ar 
    28   19   20 1  
    29   21   22 1  
    30   21   24 1  
    31   24   23 1  
    32   27   28 2  
    33   29   27 1  
    34   30   29 ar 
    35   29   33 ar 
    36   30   31 ar 
    37   32   33 ar 
    38   32   34 1  
    39   34   35 3  
    40    1   36 1  
    41    2   37 1  
    42    6   38 1  
    43    7   39 1  
    44    7   40 1  
    45    8   41 1  
    46    8   42 1  
    47    9   43 1  
    48    9   44 1  
    49   11   45 1  
    50   11   46 1  
    51   13   47 1  
    52   13   48 1  
    53   14   49 1  
    54   15   50 1  
    55   15   51 1  
    56   15   52 1  
    57   18   53 1  
    58   20   54 1  
    59   20   55 1  
    60   20   56 1  
    61   21   57 1  
    62   22   58 1  
    63   22   59 1  
    64   23   60 1  
    65   23   61 1  
    66   24   62 1  
    67   24   63 1  
    68   26   64 1  
    69   30   65 1  
    70   31   66 1  
    71   33   67 1  
@<TRIPOS>SUBSTRUCTURE
     1 F7J         1

