### 
### Created by X-TOOL on Wed Jan  1 15:39:38 2020
### 

@<TRIPOS>MOLECULE
6cnj_ligand
   27    28     1     0     0
SMALL
GAST_HUCK


@<TRIPOS>ATOM
      1 N1        156.8880  123.4800  170.6510 N.ar      1 NCT        -0.3042
      2 C1        157.1490  122.9840  169.4150 C.ar      1 NCT         0.0179
      3 C2        158.4420  122.6000  168.9990 C.ar      1 NCT         0.0324
      4 C3        159.4730  122.7480  169.9200 C.ar      1 NCT        -0.0351
      5 C4        159.2280  123.2520  171.1940 C.ar      1 NCT        -0.0403
      6 C5        157.9180  123.6060  171.5220 C.ar      1 NCT         0.0042
      7 N2        157.8440  120.8290  167.4430 N.4       1 NCT         0.2482
      8 C6        158.6930  122.0530  167.6300 C.3       1 NCT         0.0189
      9 C7        158.2260  122.8660  166.4680 C.3       1 NCT         0.0064
     10 C8        157.9760  121.9170  165.3200 C.3       1 NCT        -0.0054
     11 C9        157.6940  120.5920  165.9850 C.3       1 NCT        -0.0300
     12 C10       158.7150  119.7830  167.9800 C.3       1 NCT        -0.0413
     13 H1        156.3275  122.8780  168.7158 H         1 NCT         0.0767
     14 H2        160.4822  122.4668  169.6418 H         1 NCT         0.0680
     15 H3        160.0322  123.3665  171.9118 H         1 NCT         0.0693
     16 H4        157.7170  123.9972  172.5128 H         1 NCT         0.0767
     17 H5        156.9529  120.8862  167.9107 H         1 NCT         0.2049
     18 H6        159.7661  121.8319  167.5323 H         1 NCT         0.1033
     19 H7        158.9973  123.5986  166.1882 H         1 NCT         0.0346
     20 H8        157.2965  123.3934  166.7282 H         1 NCT         0.0346
     21 H9        158.8624  121.8469  164.6724 H         1 NCT         0.0320
     22 H10       157.1117  122.2455  164.7242 H         1 NCT         0.0320
     23 H11       156.6715  120.2582  165.7547 H         1 NCT         0.0815
     24 H12       158.4131  119.8323  165.6447 H         1 NCT         0.0815
     25 H13       158.8446  119.9335  169.0619 H         1 NCT         0.0778
     26 H14       159.6952  119.8312  167.4831 H         1 NCT         0.0778
     27 H15       158.2600  118.7981  167.7987 H         1 NCT         0.0778
@<TRIPOS>BOND
     1    1    2 ar 
     2    1    6 ar 
     3    2    3 ar 
     4    3    4 ar 
     5    3    8 1  
     6    4    5 ar 
     7    5    6 ar 
     8    8    7 1  
     9    7   11 1  
    10    7   12 1  
    11    8    9 1  
    12    9   10 1  
    13   10   11 1  
    14    2   13 1  
    15    4   14 1  
    16    5   15 1  
    17    6   16 1  
    18    7   17 1  
    19    8   18 1  
    20    9   19 1  
    21    9   20 1  
    22   10   21 1  
    23   10   22 1  
    24   11   23 1  
    25   11   24 1  
    26   12   25 1  
    27   12   26 1  
    28   12   27 1  
@<TRIPOS>SUBSTRUCTURE
     1 NCT         1

