### 
### Created by X-TOOL on Wed Jan  1 15:39:38 2020
### 

@<TRIPOS>MOLECULE
6cnk_ligand
   27    28     1     0     0
SMALL
GAST_HUCK


@<TRIPOS>ATOM
      1 N1        119.0120  152.6010  171.8280 N.ar      1 NCT        -0.3042
      2 C1        119.2280  153.4600  170.8040 C.ar      1 NCT         0.0179
      3 C2        118.1850  154.1090  170.1090 C.ar      1 NCT         0.0324
      4 C3        116.8850  153.8340  170.5170 C.ar      1 NCT        -0.0351
      5 C4        116.6370  152.9540  171.5700 C.ar      1 NCT        -0.0403
      6 C5        117.7320  152.3560  172.2000 C.ar      1 NCT         0.0042
      7 N2        119.8230  155.6800  169.2010 N.4       1 NCT         0.2482
      8 C6        118.4690  155.0530  168.9820 C.3       1 NCT         0.0189
      9 C7        118.6600  154.4520  167.6200 C.3       1 NCT         0.0064
     10 C8        119.5500  155.3820  166.8290 C.3       1 NCT        -0.0054
     11 C9        120.3860  156.0770  167.8760 C.3       1 NCT        -0.0300
     12 C10       119.4610  156.9090  169.9110 C.3       1 NCT        -0.0413
     13 H1        120.2504  153.6587  170.5037 H         1 NCT         0.0767
     14 H2        116.0532  154.3097  170.0101 H         1 NCT         0.0680
     15 H3        115.6239  152.7399  171.8908 H         1 NCT         0.0693
     16 H4        117.5503  151.6690  173.0186 H         1 NCT         0.0767
     17 H5        120.4553  155.0893  169.7180 H         1 NCT         0.2049
     18 H6        117.6701  155.8085  168.9511 H         1 NCT         0.1033
     19 H7        117.6874  154.3464  167.1172 H         1 NCT         0.0346
     20 H8        119.1357  153.4642  167.7096 H         1 NCT         0.0346
     21 H9        118.9491  156.1097  166.2639 H         1 NCT         0.0320
     22 H10       120.1874  154.8148  166.1347 H         1 NCT         0.0320
     23 H11       121.4356  155.7572  167.7979 H         1 NCT         0.0815
     24 H12       120.3246  157.1679  167.7485 H         1 NCT         0.0815
     25 H13       119.0412  156.6538  170.8952 H         1 NCT         0.0778
     26 H14       118.7127  157.4637  169.3259 H         1 NCT         0.0778
     27 H15       120.3572  157.5325  170.0453 H         1 NCT         0.0778
@<TRIPOS>BOND
     1    1    2 ar 
     2    1    6 ar 
     3    2    3 ar 
     4    3    4 ar 
     5    3    8 1  
     6    4    5 ar 
     7    5    6 ar 
     8    8    7 1  
     9    7   11 1  
    10    7   12 1  
    11    8    9 1  
    12    9   10 1  
    13   10   11 1  
    14    2   13 1  
    15    4   14 1  
    16    5   15 1  
    17    6   16 1  
    18    7   17 1  
    19    8   18 1  
    20    9   19 1  
    21    9   20 1  
    22   10   21 1  
    23   10   22 1  
    24   11   23 1  
    25   11   24 1  
    26   12   25 1  
    27   12   26 1  
    28   12   27 1  
@<TRIPOS>SUBSTRUCTURE
     1 NCT         1

