### 
### Created by X-TOOL on Wed Jan  1 15:39:36 2020
### 

@<TRIPOS>MOLECULE
6cpw_ligand
   83    89     1     0     0
SMALL
GAST_HUCK


@<TRIPOS>ATOM
      1 O1         49.3360   20.0840    7.4280 O.2       1 F8V        -0.3910
      2 C20        49.2980   20.6540    8.5170 C.2       1 F8V         0.2241
      3 N4         49.2850   21.9990    8.6130 N.am      1 F8V        -0.2650
      4 C24        49.0820   22.8540    7.4490 C.3       1 F8V         0.0540
      5 C23        47.6370   23.2680    7.4030 C.3       1 F8V         0.0485
      6 N5         47.2210   23.9270    8.6540 N.pl3     1 F8V        -0.3018
      7 C25        45.9090   24.4960    8.5790 C.ar      1 F8V         0.0463
      8 C30        45.4380   25.0450    7.3760 C.ar      1 F8V        -0.0380
      9 C29        44.1030   25.3620    7.2140 C.ar      1 F8V        -0.0567
     10 C28        43.1950   25.2310    8.2630 C.ar      1 F8V         0.0095
     11 C31        41.7430   25.5110    8.0600 C.ar      1 F8V         0.1191
     12 N7         41.3190   25.6400    6.7910 N.ar      1 F8V        -0.2633
     13 C34        39.9900   25.7220    6.6220 C.ar      1 F8V         0.0252
     14 C33        39.0910   25.6950    7.6640 C.ar      1 F8V        -0.0118
     15 C32        39.6360   25.5710    8.9200 C.ar      1 F8V         0.0252
     16 N6         40.9550   25.4770    9.1480 N.ar      1 F8V        -0.2633
     17 C27        43.6850   24.7980    9.4940 C.ar      1 F8V        -0.0567
     18 C26        45.0080   24.4100    9.6490 C.ar      1 F8V        -0.0380
     19 C22        47.6330   23.2210    9.8830 C.3       1 F8V         0.0485
     20 C21        49.0890   22.8120    9.8130 C.3       1 F8V         0.0540
     21 C19        49.1380   19.7870    9.7610 C.3       1 F8V         0.0580
     22 N          48.8090   18.3740    9.3870 N.4       1 F8V         0.2521
     23 C1         47.4250   18.1140    8.9210 C.3       1 F8V        -0.0297
     24 C2         47.3500   16.6070    8.8630 C.3       1 F8V         0.0139
     25 C3         48.2770   16.1640   10.0080 C.3       1 F8V         0.1445
     26 C          48.9400   17.4230   10.5780 C.3       1 F8V        -0.0075
     27 S          47.1990   15.4420   11.3220 S.3       1 F8V        -0.1479
     28 C18        48.2010   14.9750   12.7390 C.3       1 F8V        -0.0187
     29 C4         49.3260   15.1540    9.5360 C.2       1 F8V         0.2395
     30 O          50.4780   15.5040    9.3260 O.2       1 F8V        -0.3367
     31 N1         48.8590   13.9090    9.3110 N.am      1 F8V        -0.2376
     32 C5         49.5830   12.8160    8.7840 C.ar      1 F8V         0.0576
     33 C10        49.0630   11.5360    8.9770 C.ar      1 F8V        -0.0442
     34 C9         49.7530   10.4280    8.4900 C.ar      1 F8V         0.0038
     35 C11        49.5580    8.9710    8.5270 C.2       1 F8V         0.0572
     36 N2         50.5790    8.4220    7.8730 N.2       1 F8V        -0.2023
     37 N3         51.4090    9.4070    7.4380 N.pl3     1 F8V        -0.2184
     38 C8         50.9530   10.6360    7.7840 C.ar      1 F8V         0.0783
     39 C7         51.4690   11.9070    7.5780 C.ar      1 F8V        -0.0423
     40 C6         50.7800   12.9950    8.0880 C.ar      1 F8V        -0.0445
     41 C12        48.4720    8.1850    9.1780 C.ar      1 F8V        -0.0141
     42 C17        48.0780    6.9510    8.6530 C.ar      1 F8V        -0.0565
     43 C16        47.0960    6.1970    9.2740 C.ar      1 F8V        -0.0285
     44 C15        46.5110    6.6980   10.4100 C.ar      1 F8V         0.1319
     45 F          45.5320    5.9680   11.0160 F         1 F8V        -0.1837
     46 C14        46.8680    7.9040   10.9640 C.ar      1 F8V        -0.0285
     47 C13        47.8570    8.6460   10.3390 C.ar      1 F8V        -0.0565
     48 H1         49.3380   22.3005    6.5336 H         1 F8V         0.0542
     49 H2         49.7205   23.7461    7.5288 H         1 F8V         0.0542
     50 H3         47.0146   22.3747    7.2462 H         1 F8V         0.0537
     51 H4         47.4925   23.9672    6.5662 H         1 F8V         0.0537
     52 H5         46.1318   25.2228    6.5623 H         1 F8V         0.0532
     53 H6         43.7550   25.7197    6.2517 H         1 F8V         0.0629
     54 H7         39.6048   25.8142    5.6129 H         1 F8V         0.0932
     55 H8         38.0212   25.7669    7.5044 H         1 F8V         0.0752
     56 H9         38.9649   25.5479    9.7710 H         1 F8V         0.0932
     57 H10        43.0184   24.7637   10.3481 H         1 F8V         0.0629
     58 H11        45.3484   24.0363   10.6079 H         1 F8V         0.0532
     59 H12        47.0124   22.3212   10.0059 H         1 F8V         0.0537
     60 H13        47.4879   23.8873   10.7461 H         1 F8V         0.0537
     61 H14        49.7242   23.7086    9.7617 H         1 F8V         0.0542
     62 H15        49.3532   22.2259   10.7056 H         1 F8V         0.0542
     63 H16        48.3263   20.1938   10.3820 H         1 F8V         0.1063
     64 H17        50.0780   19.7991   10.3322 H         1 F8V         0.1063
     65 H18        49.4532   18.1031    8.6606 H         1 F8V         0.2051
     66 H19        47.2553   18.5546    7.9275 H         1 F8V         0.0813
     67 H20        46.6885   18.5172    9.6316 H         1 F8V         0.0813
     68 H21        47.7120   16.2311    7.8947 H         1 F8V         0.0317
     69 H22        46.3209   16.2566    9.0308 H         1 F8V         0.0317
     70 H23        48.4020   17.8008   11.4599 H         1 F8V         0.0812
     71 H24        49.9932   17.2436   10.8399 H         1 F8V         0.0812
     72 H25        47.5552   14.5455   13.5191 H         1 F8V         0.0339
     73 H26        48.7128   15.8644   13.1353 H         1 F8V         0.0339
     74 H27        48.9482   14.2292   12.4300 H         1 F8V         0.0339
     75 H28        47.9003   13.7419    9.5411 H         1 F8V         0.2242
     76 H29        48.1251   11.4039    9.5042 H         1 F8V         0.0446
     77 H30        52.2777    9.2400    6.9103 H         1 F8V         0.2442
     78 H31        52.3932   12.0460    7.0288 H         1 F8V         0.0541
     79 H32        51.1738   13.9948    7.9454 H         1 F8V         0.0509
     80 H33        48.5467    6.5796    7.7489 H         1 F8V         0.0604
     81 H34        46.7970    5.2354    8.8729 H         1 F8V         0.0603
     82 H35        46.3883    8.2652   11.8665 H         1 F8V         0.0603
     83 H36        48.1563    9.5991   10.7599 H         1 F8V         0.0604
@<TRIPOS>BOND
     1    1    2 2  
     2    2    3 am 
     3    2   21 1  
     4    3    4 1  
     5    3   20 1  
     6    4    5 1  
     7    5    6 1  
     8    6    7 1  
     9    6   19 1  
    10    7    8 ar 
    11    7   18 ar 
    12    8    9 ar 
    13    9   10 ar 
    14   10   11 1  
    15   10   17 ar 
    16   11   12 ar 
    17   11   16 ar 
    18   12   13 ar 
    19   13   14 ar 
    20   14   15 ar 
    21   15   16 ar 
    22   17   18 ar 
    23   19   20 1  
    24   21   22 1  
    25   22   23 1  
    26   22   26 1  
    27   23   24 1  
    28   24   25 1  
    29   25   26 1  
    30   25   27 1  
    31   25   29 1  
    32   27   28 1  
    33   29   30 2  
    34   29   31 am 
    35   31   32 1  
    36   32   33 ar 
    37   32   40 ar 
    38   33   34 ar 
    39   34   35 1  
    40   34   38 ar 
    41   35   36 2  
    42   35   41 1  
    43   36   37 1  
    44   37   38 1  
    45   38   39 ar 
    46   39   40 ar 
    47   41   42 ar 
    48   41   47 ar 
    49   42   43 ar 
    50   43   44 ar 
    51   44   45 1  
    52   44   46 ar 
    53   46   47 ar 
    54    4   48 1  
    55    4   49 1  
    56    5   50 1  
    57    5   51 1  
    58    8   52 1  
    59    9   53 1  
    60   13   54 1  
    61   14   55 1  
    62   15   56 1  
    63   17   57 1  
    64   18   58 1  
    65   19   59 1  
    66   19   60 1  
    67   20   61 1  
    68   20   62 1  
    69   21   63 1  
    70   21   64 1  
    71   22   65 1  
    72   23   66 1  
    73   23   67 1  
    74   24   68 1  
    75   24   69 1  
    76   26   70 1  
    77   26   71 1  
    78   28   72 1  
    79   28   73 1  
    80   28   74 1  
    81   31   75 1  
    82   33   76 1  
    83   37   77 1  
    84   39   78 1  
    85   40   79 1  
    86   42   80 1  
    87   43   81 1  
    88   46   82 1  
    89   47   83 1  
@<TRIPOS>SUBSTRUCTURE
     1 F8V         1

