### 
### Created by X-TOOL on Wed Jan  1 15:39:38 2020
### 

@<TRIPOS>MOLECULE
6cq0_ligand
   44    46     1     0     0
SMALL
GAST_HUCK


@<TRIPOS>ATOM
      1 C01       105.4840   -8.6630   10.2530 C.3       1 F8M        -0.0433
      2 C03       104.0930   -7.3030    8.8330 C.3       1 F8M        -0.0433
      3 C04       105.9530   -8.6280    7.7860 C.3       1 F8M        -0.0308
      4 C05       106.7610   -9.9400    8.1320 C.3       1 F8M        -0.0040
      5 C06       108.0690  -10.2280    7.2950 C.3       1 F8M        -0.0177
      6 C07       107.9120  -10.3700    5.7460 C.ar      1 F8M        -0.0464
      7 C08       107.5700   -9.2830    4.9200 C.ar      1 F8M        -0.0619
      8 C09       107.4190   -9.3790    3.5390 C.ar      1 F8M        -0.0258
      9 C10       107.5990  -10.5990    2.8460 C.ar      1 F8M         0.1381
     10 C12       107.5760  -11.8540    0.7680 C.ar      1 F8M         0.2001
     11 C14       107.4860  -12.9530   -1.3240 C.ar      1 F8M         0.1182
     12 C16       107.8310  -14.2060   -0.7360 C.ar      1 F8M         0.0501
     13 C17       107.9590  -15.4690   -1.6360 C.2       1 F8M         0.0581
     14 C20       108.0400  -14.2070    0.6220 C.ar      1 F8M        -0.0285
     15 C21       107.9210  -13.0300    1.4380 C.ar      1 F8M         0.0825
     16 C22       108.1270  -12.9910    2.8830 C.2       1 F8M         0.1436
     17 C24       107.9410  -11.7080    3.6280 C.ar      1 F8M         0.0593
     18 C25       108.0870  -11.5750    5.0390 C.ar      1 F8M        -0.0487
     19 N02       105.4800   -7.8360    9.0080 N.4       1 F8M         0.2310
     20 N13       107.3530  -11.7660   -0.5920 N.ar      1 F8M        -0.2453
     21 N15       107.2700  -12.9190   -2.6940 N.pl3     1 F8M        -0.3188
     22 O11       107.4360  -10.6450    1.4740 O.3       1 F8M        -0.2319
     23 O18       107.6710  -15.3310   -2.8380 O.co2     1 F8M        -0.5655
     24 O19       108.3460  -16.5160   -1.0940 O.co2     1 F8M        -0.5655
     25 O23       108.4460  -13.9980    3.5200 O.2       1 F8M        -0.3922
     26 H1        105.1378   -8.0523   11.0999 H         1 F8M         0.0777
     27 H2        106.5049   -9.0209   10.4522 H         1 F8M         0.0777
     28 H3        104.8122   -9.5243   10.1233 H         1 F8M         0.0777
     29 H4        104.0493   -6.6864    7.9231 H         1 F8M         0.0777
     30 H5        103.8232   -6.6893    9.7051 H         1 F8M         0.0777
     31 H6        103.3868   -8.1414    8.7420 H         1 F8M         0.0777
     32 H7        105.0685   -8.9137    7.1977 H         1 F8M         0.0816
     33 H8        106.5998   -7.9748    7.1819 H         1 F8M         0.0816
     34 H9        106.0822  -10.7935    7.9881 H         1 F8M         0.0337
     35 H10       107.0533   -9.8784    9.1907 H         1 F8M         0.0337
     36 H11       108.5017  -11.1669    7.6707 H         1 F8M         0.0410
     37 H12       108.7696   -9.4008    7.4816 H         1 F8M         0.0410
     38 H13       107.4154   -8.3162    5.3852 H         1 F8M         0.0574
     39 H14       107.1551   -8.4904    2.9770 H         1 F8M         0.0558
     40 H15       108.3078  -15.1416    1.1015 H         1 F8M         0.0757
     41 H16       108.3504  -12.4605    5.6060 H         1 F8M         0.0579
     42 H17       106.1109   -7.0599    9.1337 H         1 F8M         0.2028
     43 H18       107.0191  -12.0322   -3.1540 H         1 F8M         0.1800
     44 H19       107.3605  -13.7806   -3.2512 H         1 F8M         0.1800
@<TRIPOS>BOND
     1   19    1 1  
     2   19    2 1  
     3    4    3 1  
     4    3   19 1  
     5    5    4 1  
     6    6    5 1  
     7    7    6 ar 
     8    6   18 ar 
     9    8    7 ar 
    10    9    8 ar 
    11    9   17 ar 
    12   22    9 1  
    13   10   15 ar 
    14   20   10 ar 
    15   10   22 1  
    16   11   12 ar 
    17   11   20 ar 
    18   11   21 1  
    19   12   13 1  
    20   12   14 ar 
    21   13   23 ar 
    22   13   24 ar 
    23   14   15 ar 
    24   15   16 1  
    25   16   17 1  
    26   16   25 2  
    27   17   18 ar 
    28    1   26 1  
    29    1   27 1  
    30    1   28 1  
    31    2   29 1  
    32    2   30 1  
    33    2   31 1  
    34    3   32 1  
    35    3   33 1  
    36    4   34 1  
    37    4   35 1  
    38    5   36 1  
    39    5   37 1  
    40    7   38 1  
    41    8   39 1  
    42   14   40 1  
    43   18   41 1  
    44   19   42 1  
    45   21   43 1  
    46   21   44 1  
@<TRIPOS>SUBSTRUCTURE
     1 F8M         1

