### 
### Created by X-TOOL on Mon Aug  2 16:12:48 2021
### 

@<TRIPOS>MOLECULE
6cq1_ligand
   80    84     1     0     0
SMALL
GAST_HUCK


@<TRIPOS>ATOM
      1 N          -9.8910    3.7290   -1.9030 N.pl3     1 F8J        -0.2634
      2 CA         -8.7890    4.4200   -1.1970 C.3       1 F8J         0.1359
      3 C          -9.3610    5.3490   -0.1150 C.2       1 F8J         0.2050
      4 O         -10.5560    5.6450   -0.0990 O.2       1 F8J        -0.3942
      5 CAA        -8.5400    8.1530    1.4680 C.3       1 F8J        -0.0423
      6 CAB        -8.0620    6.3510    3.1330 C.3       1 F8J        -0.0423
      7 CAC       -15.9060    6.7360   -6.4690 C.3       1 F8J        -0.0427
      8 CAF       -18.8590   -1.3630   -1.5460 C.ar      1 F8J        -0.0768
      9 CAG       -19.0470   -1.0830   -0.2000 C.ar      1 F8J        -0.0792
     10 CAH       -12.6650    0.9410   -0.9440 C.ar      1 F8J        -0.0517
     11 CAI       -17.9310   -0.6080   -2.2510 C.ar      1 F8J        -0.0443
     12 CAJ       -18.2940   -0.0650    0.3710 C.ar      1 F8J        -0.0747
     13 CAK       -12.5230    1.5450   -2.1850 C.ar      1 F8J        -0.0811
     14 CAL       -15.9080    1.9960   -1.1340 C.2       1 F8J         0.0165
     15 CAM       -10.8260    2.2560   -0.1850 C.ar      1 F8J        -0.0232
     16 CAN       -10.2010    3.9480   -3.1800 C.2       1 F8J         0.0194
     17 CAO       -15.4440    1.5210    2.2270 C.3       1 F8J         0.0411
     18 CAP       -16.4570    2.2780    1.3410 C.3       1 F8J        -0.0144
     19 CAQ       -14.5870    5.7480   -4.7050 C.3       1 F8J         0.0092
     20 CAR       -13.9970    5.3570   -6.9970 C.3       1 F8J         0.0092
     21 CAS       -13.7690    4.5350   -4.2870 C.3       1 F8J         0.0102
     22 CAT       -13.1670    4.1480   -6.5800 C.3       1 F8J         0.0102
     23 CAV       -11.9220    3.0770   -4.8340 C.3       1 F8J        -0.0156
     24 CBB       -13.0710    0.7820    2.0060 C.2       1 F8J         0.1614
     25 CBC       -11.8140    1.3140    0.0900 C.ar      1 F8J         0.0592
     26 CBD       -16.5920    1.6290   -0.0510 C.2       1 F8J        -0.0442
     27 CBE       -11.2340    3.1660   -3.4590 C.2       1 F8J        -0.0100
     28 CBF       -17.2350    0.3610   -1.6560 C.ar      1 F8J         0.0603
     29 CBG       -17.4170    0.6290   -0.3580 C.ar      1 F8J        -0.0215
     30 CBH       -11.5670    2.4520   -2.3850 C.ar      1 F8J        -0.0271
     31 CBI       -10.7290    2.8090   -1.4020 C.ar      1 F8J         0.0519
     32 CBJ        -8.8520    6.7110    1.8700 C.3       1 F8J         0.0365
     33 NAW       -14.1470    1.4420    1.5350 N.am      1 F8J        -0.2776
     34 NAX       -11.9120    0.7380    1.3040 N.am      1 F8J        -0.2371
     35 NAY        -8.4690    5.8040    0.7760 N.am      1 F8J        -0.2823
     36 NAZ       -16.3100    1.2040   -2.1270 N.pl3     1 F8J        -0.2891
     37 NBK       -15.1180    5.5600   -6.0660 N.4       1 F8J         0.2405
     38 NBL       -12.6430    4.3080   -5.2100 N.4       1 F8J         0.2494
     39 SAE       -13.1470    0.0170    3.5200 S.2       1 F8J        -0.2976
     40 H1         -8.2097    5.0145   -1.9188 H         1 F8J         0.0837
     41 H2         -8.1326    3.6732   -0.7264 H         1 F8J         0.0837
     42 H3         -8.8260    8.8315    2.2852 H         1 F8J         0.0252
     43 H4         -9.1067    8.4117    0.5614 H         1 F8J         0.0252
     44 H5         -7.4629    8.2532    1.2683 H         1 F8J         0.0252
     45 H6         -8.2862    5.3137    3.4225 H         1 F8J         0.0252
     46 H7         -8.3478    7.0296    3.9502 H         1 F8J         0.0252
     47 H8         -6.9850    6.4512    2.9329 H         1 F8J         0.0252
     48 H9        -16.7401    6.8769   -5.7659 H         1 F8J         0.0778
     49 H10       -16.3034    6.5812   -7.4830 H         1 F8J         0.0778
     50 H11       -15.2635    7.6288   -6.4593 H         1 F8J         0.0778
     51 H12       -19.4217   -2.1504   -2.0343 H         1 F8J         0.0530
     52 H13       -19.7626   -1.6439    0.3903 H         1 F8J         0.0510
     53 H14       -13.4288    0.1888   -0.7830 H         1 F8J         0.0445
     54 H15       -17.7696   -0.8101   -3.3037 H         1 F8J         0.0541
     55 H16       -18.4201    0.1689    1.4219 H         1 F8J         0.0540
     56 H17       -13.1921    1.2782   -2.9950 H         1 F8J         0.0525
     57 H18       -15.1646    2.7894   -1.1955 H         1 F8J         0.0795
     58 H19       -10.1285    2.5449    0.5929 H         1 F8J         0.0406
     59 H20        -9.7027    4.6356   -3.8618 H         1 F8J         0.0741
     60 H21       -15.8168    0.5049    2.4235 H         1 F8J         0.0557
     61 H22       -15.3188    2.0564    3.1797 H         1 F8J         0.0557
     62 H23       -16.1172    3.3170    1.2186 H         1 F8J         0.0371
     63 H24       -17.4396    2.2693    1.8354 H         1 F8J         0.0371
     64 H25       -13.9467    6.6422   -4.6853 H         1 F8J         0.0868
     65 H26       -15.4240    5.8808   -4.0038 H         1 F8J         0.0868
     66 H27       -14.3933    5.1918   -8.0097 H         1 F8J         0.0868
     67 H28       -13.3582    6.2525   -6.9947 H         1 F8J         0.0868
     68 H29       -14.4181    3.6469   -4.2876 H         1 F8J         0.0868
     69 H30       -13.3745    4.7001   -3.2736 H         1 F8J         0.0868
     70 H31       -12.3229    4.0348   -7.2761 H         1 F8J         0.0868
     71 H32       -13.7984    3.2482   -6.6199 H         1 F8J         0.0868
     72 H33       -12.6414    2.2452   -4.8106 H         1 F8J         0.0898
     73 H34       -11.1541    2.8765   -5.5957 H         1 F8J         0.0898
     74 H35        -9.9290    6.6105    2.0698 H         1 F8J         0.0550
     75 H36       -14.0586    1.9100    0.6557 H         1 F8J         0.1979
     76 H37       -11.1179    0.2710    1.6931 H         1 F8J         0.2340
     77 H38        -7.5141    5.5185    0.6950 H         1 F8J         0.1854
     78 H39       -15.9653    1.2358   -3.0971 H         1 F8J         0.2216
     79 H40       -15.7124    4.7460   -6.0806 H         1 F8J         0.2035
     80 H41       -12.0132    5.0942   -5.1741 H         1 F8J         0.2046
@<TRIPOS>BOND
     1    2    1 1  
     2    1   16 1  
     3    1   31 1  
     4    3    2 1  
     5    3    4 2  
     6   35    3 am 
     7   32    5 1  
     8   32    6 1  
     9   37    7 1  
    10    9    8 ar 
    11   11    8 ar 
    12   12    9 ar 
    13   13   10 ar 
    14   25   10 ar 
    15   28   11 ar 
    16   29   12 ar 
    17   30   13 ar 
    18   26   14 2  
    19   14   36 1  
    20   15   25 ar 
    21   31   15 ar 
    22   16   27 2  
    23   17   18 1  
    24   33   17 1  
    25   18   26 1  
    26   21   19 1  
    27   19   37 1  
    28   22   20 1  
    29   20   37 1  
    30   38   21 1  
    31   38   22 1  
    32   27   23 1  
    33   23   38 1  
    34   24   33 am 
    35   34   24 am 
    36   24   39 2  
    37   25   34 1  
    38   26   29 1  
    39   30   27 1  
    40   29   28 ar 
    41   28   36 1  
    42   31   30 ar 
    43   32   35 1  
    44    2   40 1  
    45    2   41 1  
    46    5   42 1  
    47    5   43 1  
    48    5   44 1  
    49    6   45 1  
    50    6   46 1  
    51    6   47 1  
    52    7   48 1  
    53    7   49 1  
    54    7   50 1  
    55    8   51 1  
    56    9   52 1  
    57   10   53 1  
    58   11   54 1  
    59   12   55 1  
    60   13   56 1  
    61   14   57 1  
    62   15   58 1  
    63   16   59 1  
    64   17   60 1  
    65   17   61 1  
    66   18   62 1  
    67   18   63 1  
    68   19   64 1  
    69   19   65 1  
    70   20   66 1  
    71   20   67 1  
    72   21   68 1  
    73   21   69 1  
    74   22   70 1  
    75   22   71 1  
    76   23   72 1  
    77   23   73 1  
    78   32   74 1  
    79   33   75 1  
    80   34   76 1  
    81   35   77 1  
    82   36   78 1  
    83   37   79 1  
    84   38   80 1  
@<TRIPOS>SUBSTRUCTURE
     1 F8J         1

