### 
### Created by X-TOOL on Wed Jan  1 15:39:38 2020
### 

@<TRIPOS>MOLECULE
6cq4_ligand
   42    45     1     0     0
SMALL
GAST_HUCK


@<TRIPOS>ATOM
      1 C02       107.0890  -13.2410   -1.8650 C.ar      1 F8P         0.1182
      2 C04       107.1520  -12.0890    0.2790 C.ar      1 F8P         0.2001
      3 C06       107.1510  -10.7690    2.4270 C.ar      1 F8P         0.1381
      4 C07       106.9460   -9.5330    3.1420 C.ar      1 F8P        -0.0257
      5 C08       107.1290   -9.4400    4.5560 C.ar      1 F8P        -0.0616
      6 C09       107.5290  -10.5640    5.3240 C.ar      1 F8P        -0.0435
      7 C10       107.7470  -10.4780    6.8890 C.3       1 F8P        -0.0103
      8 C11       107.4400  -11.9350    7.3560 C.3       1 F8P        -0.0362
      9 C12       107.7030  -12.1740    8.8620 C.3       1 F8P         0.0126
     10 C13       107.8600  -10.8640    9.6270 C.3       1 F8P         0.2492
     11 C16       106.8800   -9.7470    9.2820 C.3       1 F8P         0.0126
     12 C17       106.9390   -9.4270    7.7730 C.3       1 F8P        -0.0362
     13 C18       107.7320  -11.7760    4.6100 C.ar      1 F8P        -0.0484
     14 C19       107.5480  -11.8900    3.1780 C.ar      1 F8P         0.0593
     15 C20       107.7600  -13.1660    2.4070 C.2       1 F8P         0.1436
     16 C22       107.5550  -13.2550    0.9590 C.ar      1 F8P         0.0825
     17 C23       107.7220  -14.4630    0.1570 C.ar      1 F8P        -0.0285
     18 C24       107.4990  -14.4760   -1.2270 C.ar      1 F8P         0.0501
     19 C25       107.6830  -15.7740   -2.0950 C.2       1 F8P         0.0581
     20 F14       109.2000  -10.4030    9.5960 F         1 F8P        -0.2057
     21 F15       107.8530  -11.1060   11.0330 F         1 F8P        -0.2057
     22 N01       106.8470  -13.2000   -3.2920 N.pl3     1 F8P        -0.3188
     23 N03       106.9200  -12.0660   -1.1090 N.ar      1 F8P        -0.2453
     24 O05       106.9690  -10.8730    1.0330 O.3       1 F8P        -0.2319
     25 O21       108.1220  -14.1850    3.0500 O.2       1 F8P        -0.3922
     26 O26       107.3410  -15.7830   -3.3100 O.co2     1 F8P        -0.5655
     27 O27       108.1870  -16.8230   -1.5380 O.co2     1 F8P        -0.5655
     28 H1        106.6445   -8.6496    2.5908 H         1 F8P         0.0558
     29 H2        106.9588   -8.4914    5.0521 H         1 F8P         0.0574
     30 H3        108.8110  -10.2559    7.0582 H         1 F8P         0.0444
     31 H4        108.0731  -12.6252    6.7792 H         1 F8P         0.0290
     32 H5        106.3810  -12.1498    7.1501 H         1 F8P         0.0290
     33 H6        108.6253  -12.7632    8.9728 H         1 F8P         0.0324
     34 H7        106.8568  -12.7342    9.2862 H         1 F8P         0.0324
     35 H8        107.1423   -8.8450    9.8543 H         1 F8P         0.0324
     36 H9        105.8605  -10.0650    9.5455 H         1 F8P         0.0324
     37 H10       105.9075   -9.3844    7.3934 H         1 F8P         0.0290
     38 H11       107.4152   -8.4428    7.6520 H         1 F8P         0.0290
     39 H12       108.0389  -12.6563    5.1631 H         1 F8P         0.0579
     40 H13       108.0284  -15.3799    0.6474 H         1 F8P         0.0757
     41 H14       106.5558  -12.3194   -3.7399 H         1 F8P         0.1800
     42 H15       106.9661  -14.0515   -3.8592 H         1 F8P         0.1800
@<TRIPOS>BOND
     1    1   18 ar 
     2    1   22 1  
     3   23    1 ar 
     4    2   16 ar 
     5    2   23 ar 
     6   24    2 1  
     7    3    4 ar 
     8    3   14 ar 
     9    3   24 1  
    10    4    5 ar 
    11    5    6 ar 
    12    6    7 1  
    13    6   13 ar 
    14    7    8 1  
    15    7   12 1  
    16    8    9 1  
    17    9   10 1  
    18   10   11 1  
    19   10   20 1  
    20   10   21 1  
    21   11   12 1  
    22   13   14 ar 
    23   14   15 1  
    24   15   16 1  
    25   15   25 2  
    26   16   17 ar 
    27   17   18 ar 
    28   18   19 1  
    29   19   26 ar 
    30   19   27 ar 
    31    4   28 1  
    32    5   29 1  
    33    7   30 1  
    34    8   31 1  
    35    8   32 1  
    36    9   33 1  
    37    9   34 1  
    38   11   35 1  
    39   11   36 1  
    40   12   37 1  
    41   12   38 1  
    42   13   39 1  
    43   17   40 1  
    44   22   41 1  
    45   22   42 1  
@<TRIPOS>SUBSTRUCTURE
     1 F8P         1

