### 
### Created by X-TOOL on Wed Jan  1 15:39:38 2020
### 

@<TRIPOS>MOLECULE
6cq5_ligand
   42    45     1     0     0
SMALL
GAST_HUCK


@<TRIPOS>ATOM
      1 C02        -2.3030  -30.3910  -15.8080 C.ar      1 F8S         0.1182
      2 C04        -3.2110  -29.7400  -13.6850 C.ar      1 F8S         0.2001
      3 C06        -4.2540  -29.1100  -11.5600 C.ar      1 F8S         0.1381
      4 C07        -5.4060  -28.6800  -10.8280 C.ar      1 F8S        -0.0257
      5 C08        -5.3610  -28.5240   -9.4410 C.ar      1 F8S        -0.0616
      6 C09        -4.2020  -28.7640   -8.6810 C.ar      1 F8S        -0.0434
      7 C10        -4.1670  -28.5830   -7.1460 C.3       1 F8S        -0.0078
      8 C11        -5.5510  -28.9110   -6.4480 C.3       1 F8S        -0.0221
      9 C12        -5.5790  -28.7280   -4.9330 C.3       1 F8S         0.0676
     10 C16        -3.0650  -29.5120   -5.0440 C.3       1 F8S         0.0676
     11 C17        -2.9360  -29.3080   -6.5550 C.3       1 F8S        -0.0221
     12 C18        -3.0860  -29.1790   -9.4230 C.ar      1 F8S        -0.0484
     13 C19        -3.1100  -29.3500  -10.8340 C.ar      1 F8S         0.0593
     14 C20        -1.8960  -29.7940  -11.5890 C.2       1 F8S         0.1436
     15 C22        -2.0130  -30.0030  -13.0430 C.ar      1 F8S         0.0825
     16 C23        -0.9280  -30.4840  -13.8410 C.ar      1 F8S        -0.0285
     17 C24        -1.0400  -30.6860  -15.2020 C.ar      1 F8S         0.0501
     18 C25         0.1380  -31.2060  -16.0870 C.2       1 F8S         0.0581
     19 N01        -2.4660  -30.5740  -17.1650 N.pl3     1 F8S        -0.3188
     20 N03        -3.4010  -29.9160  -15.0490 N.ar      1 F8S        -0.2453
     21 O05        -4.3250  -29.2620  -12.9450 O.3       1 F8S        -0.2319
     22 O14        -4.1240  -28.8740   -2.8520 O.2       1 F8S        -0.1743
     23 O15        -3.6470  -27.0870   -4.4070 O.2       1 F8S        -0.1743
     24 O21        -0.8630  -29.9770  -11.0080 O.2       1 F8S        -0.3922
     25 O26         1.2490  -31.3730  -15.5420 O.co2     1 F8S        -0.5655
     26 O27        -0.1140  -31.4160  -17.2910 O.co2     1 F8S        -0.5655
     27 S13        -4.0660  -28.4250   -4.2030 S.o2      1 F8S        -0.0307
     28 H1         -6.3281  -28.4721  -11.3585 H         1 F8S         0.0558
     29 H2         -6.2599  -28.2035   -8.9268 H         1 F8S         0.0574
     30 H3         -3.9992  -27.5110   -6.9654 H         1 F8S         0.0445
     31 H4         -5.8022  -29.9591   -6.6680 H         1 F8S         0.0303
     32 H5         -6.3158  -28.2513   -6.8838 H         1 F8S         0.0303
     33 H6         -5.9926  -29.6451   -4.4881 H         1 F8S         0.0501
     34 H7         -6.2411  -27.8794   -4.7060 H         1 F8S         0.0501
     35 H8         -2.0564  -29.4374   -4.6114 H         1 F8S         0.0501
     36 H9         -3.4612  -30.5247   -4.8781 H         1 F8S         0.0501
     37 H10        -2.0378  -28.7061   -6.7571 H         1 F8S         0.0303
     38 H11        -2.8356  -30.2906   -7.0392 H         1 F8S         0.0303
     39 H12        -2.1607  -29.3789   -8.8948 H         1 F8S         0.0579
     40 H13         0.0188  -30.6982  -13.3585 H         1 F8S         0.0757
     41 H14        -3.3719  -30.3638  -17.6079 H         1 F8S         0.1800
     42 H15        -1.6819  -30.9209  -17.7357 H         1 F8S         0.1800
@<TRIPOS>BOND
     1    1   17 ar 
     2    1   19 1  
     3   20    1 ar 
     4    2   15 ar 
     5    2   20 ar 
     6   21    2 1  
     7    3    4 ar 
     8    3   13 ar 
     9    3   21 1  
    10    4    5 ar 
    11    5    6 ar 
    12    6    7 1  
    13    6   12 ar 
    14    7    8 1  
    15    7   11 1  
    16    8    9 1  
    17    9   27 1  
    18   11   10 1  
    19   10   27 1  
    20   12   13 ar 
    21   13   14 1  
    22   14   15 1  
    23   14   24 2  
    24   15   16 ar 
    25   16   17 ar 
    26   17   18 1  
    27   18   25 ar 
    28   18   26 ar 
    29   27   22 2  
    30   27   23 2  
    31    4   28 1  
    32    5   29 1  
    33    7   30 1  
    34    8   31 1  
    35    8   32 1  
    36    9   33 1  
    37    9   34 1  
    38   10   35 1  
    39   10   36 1  
    40   11   37 1  
    41   11   38 1  
    42   12   39 1  
    43   16   40 1  
    44   19   41 1  
    45   19   42 1  
@<TRIPOS>SUBSTRUCTURE
     1 F8S         1

