### 
### Created by X-TOOL on Wed Jan  1 15:39:37 2020
### 

@<TRIPOS>MOLECULE
6cqf_ligand
   58    62     1     0     0
SMALL
GAST_HUCK


@<TRIPOS>ATOM
      1 C5        -31.1370  -11.4660  -19.2300 C.ar      1 F97         0.0978
      2 C6        -32.0740  -12.4940  -19.1270 C.ar      1 F97         0.0112
      3 C7        -32.3070  -13.2970  -20.2350 C.ar      1 F97         0.1257
      4 C10       -30.4710  -11.2880  -20.4640 C.ar      1 F97         0.0271
      5 N12       -29.6960   -9.7370  -19.0660 N.2       1 F97        -0.2033
      6 C15       -34.5120  -16.1730  -19.4160 C.ar      1 F97        -0.0023
      7 C21       -35.0940  -15.1130  -14.7640 C.3       1 F97         0.0391
      8 C22       -34.9060  -14.1470  -13.5640 C.3       1 F97         0.0335
      9 C24       -34.2350  -13.1370  -15.6830 C.3       1 F97         0.0967
     10 C28       -37.2600  -18.1130  -19.2170 C.3       1 F97         0.0080
     11 C1        -31.0000   -8.8040  -16.6720 C.3       1 F97        -0.0345
     12 C2        -31.0400  -10.3000  -16.9930 C.3       1 F97         0.0724
     13 C3        -30.0300  -11.0220  -16.1000 C.3       1 F97        -0.0345
     14 N4        -30.6490  -10.5020  -18.3900 N.pl3     1 F97        -0.1947
     15 N8        -31.6590  -13.0900  -21.3760 N.ar      1 F97        -0.2885
     16 C9        -30.7680  -12.1380  -21.5290 C.ar      1 F97         0.0006
     17 C11       -29.5620  -10.1630  -20.2860 C.2       1 F97         0.0235
     18 N13       -33.2260  -14.3460  -20.2540 N.pl3     1 F97        -0.2477
     19 C14       -33.9720  -14.8950  -19.2160 C.ar      1 F97         0.1259
     20 C16       -35.2570  -16.7670  -18.4170 C.ar      1 F97         0.0252
     21 N17       -35.4520  -16.0930  -17.2930 N.ar      1 F97        -0.2729
     22 C18       -34.9350  -14.8860  -17.1240 C.ar      1 F97         0.1682
     23 N19       -34.2140  -14.2860  -18.0620 N.ar      1 F97        -0.2473
     24 N20       -35.1780  -14.2290  -15.9370 N.pl3     1 F97        -0.2739
     25 C23       -34.5600  -12.7830  -14.2210 C.3       1 F97         0.2708
     26 F25       -33.4580  -12.2050  -13.5860 F         1 F97        -0.2033
     27 F26       -35.6760  -11.9470  -14.1810 F         1 F97        -0.2033
     28 C27       -35.8320  -18.1550  -18.6060 C.3       1 F97         0.0519
     29 C29       -37.9930  -19.2460  -18.4570 C.3       1 F97        -0.0308
     30 N30       -37.4410  -19.1560  -17.0910 N.4       1 F97         0.2291
     31 C31       -36.0090  -18.8500  -17.2360 C.3       1 F97        -0.0178
     32 H1        -32.6098  -12.6626  -18.1999 H         1 F97         0.0540
     33 H2        -34.3451  -16.6933  -20.3522 H         1 F97         0.0509
     34 H3        -36.0184  -15.6984  -14.6511 H         1 F97         0.0528
     35 H4        -34.2360  -15.7957  -14.8520 H         1 F97         0.0528
     36 H5        -34.0852  -14.4865  -12.9152 H         1 F97         0.0343
     37 H6        -35.8320  -14.0722  -12.9750 H         1 F97         0.0343
     38 H7        -34.4183  -12.2841  -16.3530 H         1 F97         0.0586
     39 H8        -33.1931  -13.4723  -15.7929 H         1 F97         0.0586
     40 H9        -37.2342  -18.3136  -20.2982 H         1 F97         0.0349
     41 H10       -37.7398  -17.1399  -19.0360 H         1 F97         0.0349
     42 H11       -31.2929   -8.6460  -15.6235 H         1 F97         0.0259
     43 H12       -31.6980   -8.2685  -17.3323 H         1 F97         0.0259
     44 H13       -29.9804   -8.4223  -16.8293 H         1 F97         0.0259
     45 H14       -32.0516  -10.6965  -16.8212 H         1 F97         0.0646
     46 H15       -30.0492  -12.0993  -16.3214 H         1 F97         0.0259
     47 H16       -30.2925  -10.8600  -15.0441 H         1 F97         0.0259
     48 H17       -29.0219  -10.6261  -16.2922 H         1 F97         0.0259
     49 H18       -30.2644  -12.0130  -22.4808 H         1 F97         0.0798
     50 H19       -28.8913   -9.7532  -21.0398 H         1 F97         0.0724
     51 H20       -33.3749  -14.7799  -21.1762 H         1 F97         0.2183
     52 H21       -35.1597  -18.7392  -19.2515 H         1 F97         0.0562
     53 H22       -37.7745  -20.2262  -18.9058 H         1 F97         0.0816
     54 H23       -39.0801  -19.0783  -18.4538 H         1 F97         0.0816
     55 H24       -37.5622  -20.0326  -16.6083 H         1 F97         0.2016
     56 H25       -37.9031  -18.4225  -16.5767 H         1 F97         0.2016
     57 H26       -35.6821  -18.1798  -16.4273 H         1 F97         0.0846
     58 H27       -35.4193  -19.7780  -17.2041 H         1 F97         0.0846
@<TRIPOS>BOND
     1    2    1 ar 
     2    1    4 ar 
     3    1   14 1  
     4    3    2 ar 
     5    3   15 ar 
     6   18    3 1  
     7   16    4 ar 
     8    4   17 1  
     9   14    5 1  
    10   17    5 2  
    11   19    6 ar 
    12   20    6 ar 
    13    7    8 1  
    14   24    7 1  
    15   25    8 1  
    16   24    9 1  
    17    9   25 1  
    18   28   10 1  
    19   10   29 1  
    20   12   11 1  
    21   12   13 1  
    22   14   12 1  
    23   15   16 ar 
    24   19   18 1  
    25   23   19 ar 
    26   21   20 ar 
    27   20   28 1  
    28   22   21 ar 
    29   22   23 ar 
    30   22   24 1  
    31   25   26 1  
    32   25   27 1  
    33   28   31 1  
    34   29   30 1  
    35   30   31 1  
    36    2   32 1  
    37    6   33 1  
    38    7   34 1  
    39    7   35 1  
    40    8   36 1  
    41    8   37 1  
    42    9   38 1  
    43    9   39 1  
    44   10   40 1  
    45   10   41 1  
    46   11   42 1  
    47   11   43 1  
    48   11   44 1  
    49   12   45 1  
    50   13   46 1  
    51   13   47 1  
    52   13   48 1  
    53   16   49 1  
    54   17   50 1  
    55   18   51 1  
    56   28   52 1  
    57   29   53 1  
    58   29   54 1  
    59   30   55 1  
    60   30   56 1  
    61   31   57 1  
    62   31   58 1  
@<TRIPOS>SUBSTRUCTURE
     1 F97         1

