### 
### Created by X-TOOL on Wed Jan  1 15:39:35 2020
### 

@<TRIPOS>MOLECULE
6cqt_ligand
   15    14     1     0     0
SMALL
GAST_HUCK


@<TRIPOS>ATOM
      1 P1         53.5370   25.5020   22.5960 P.3       1 VX          0.1313
      2 O1         53.5280   25.7760   24.0810 O.2       1 VX         -0.5192
      3 O2         54.4550   24.1690   22.2890 O.3       1 VX         -0.2602
      4 C1         51.7960   25.2040   22.0100 C.3       1 VX          0.0373
      5 C2         54.8320   23.3560   23.3640 C.3       1 VX          0.0886
      6 C3         53.7590   22.2960   23.6010 C.3       1 VX         -0.0346
      7 H1         53.9240   26.2958   22.1101 H         1 VX          0.2042
      8 H2         51.1828   26.0940   22.2149 H         1 VX          0.0492
      9 H3         51.3738   24.3378   22.5404 H         1 VX          0.0492
     10 H4         51.8023   25.0042   20.9283 H         1 VX          0.0492
     11 H5         54.9445   23.9724   24.2681 H         1 VX          0.0640
     12 H6         55.7887   22.8643   23.1340 H         1 VX          0.0640
     13 H7         54.0552   21.6570   24.4459 H         1 VX          0.0257
     14 H8         53.6465   21.6796   22.6969 H         1 VX          0.0257
     15 H9         52.8023   22.7877   23.8310 H         1 VX          0.0257
@<TRIPOS>BOND
     1    1    2 2  
     2    1    3 1  
     3    1    4 1  
     4    3    5 1  
     5    5    6 1  
     6    1    7 1  
     7    4    8 1  
     8    4    9 1  
     9    4   10 1  
    10    5   11 1  
    11    5   12 1  
    12    6   13 1  
    13    6   14 1  
    14    6   15 1  
@<TRIPOS>SUBSTRUCTURE
     1 VX          1

