### 
### Created by X-TOOL on Wed Jan  1 15:39:35 2020
### 

@<TRIPOS>MOLECULE
6cqz_ligand
   15    14     1     0     0
SMALL
GAST_HUCK


@<TRIPOS>ATOM
      1 P1         50.8850  -25.6380  346.3280 P.3       1 VX          0.1313
      2 O1         50.9990  -25.7950  347.8260 O.2       1 VX         -0.5192
      3 O2         49.9990  -24.2970  345.9800 O.3       1 VX         -0.2602
      4 C1         52.5840  -25.4380  345.6000 C.3       1 VX          0.0373
      5 C2         49.3900  -23.6020  347.0280 C.3       1 VX          0.0886
      6 C3         48.3270  -22.6700  346.4510 C.3       1 VX         -0.0346
      7 H1         50.4390  -26.4521  345.9351 H         1 VX          0.2042
      8 H2         53.1871  -26.3297  345.8262 H         1 VX          0.0492
      9 H3         53.0664  -24.5495  346.0334 H         1 VX          0.0492
     10 H4         52.5038  -25.3166  344.5097 H         1 VX          0.0492
     11 H5         50.1451  -23.0116  347.5677 H         1 VX          0.0640
     12 H6         48.9191  -24.3156  347.7201 H         1 VX          0.0640
     13 H7         47.8409  -22.1175  347.2686 H         1 VX          0.0257
     14 H8         47.5741  -23.2625  345.9106 H         1 VX          0.0257
     15 H9         48.8001  -21.9585  345.7582 H         1 VX          0.0257
@<TRIPOS>BOND
     1    1    2 2  
     2    1    3 1  
     3    1    4 1  
     4    3    5 1  
     5    5    6 1  
     6    1    7 1  
     7    4    8 1  
     8    4    9 1  
     9    4   10 1  
    10    5   11 1  
    11    5   12 1  
    12    6   13 1  
    13    6   14 1  
    14    6   15 1  
@<TRIPOS>SUBSTRUCTURE
     1 VX          1

