### 
### Created by X-TOOL on Mon Aug  2 16:12:49 2021
### 

@<TRIPOS>MOLECULE
6cse_ligand
   13    12     1     0     0
SMALL
GAST_HUCK


@<TRIPOS>ATOM
      1 N         253.3250  -15.0430  -32.6170 N.4       1 ALA         0.2325
      2 CA        252.2960  -14.0520  -32.3260 C.3       1 ALA         0.0255
      3 C         251.6580  -14.3040  -30.9640 C.2       1 ALA         0.0841
      4 O         250.9230  -13.4650  -30.4430 O.co2     1 ALA        -0.5643
      5 CB        251.2380  -14.0510  -33.4180 C.3       1 ALA        -0.0095
      6 OXT       251.8620  -15.3520  -30.3520 O.co2     1 ALA        -0.5643
      7 H1        253.7287  -14.8527  -33.5208 H         1 ALA         0.2010
      8 H2        252.9140  -15.9634  -32.6197 H         1 ALA         0.2010
      9 H3        254.0438  -14.9980  -31.9118 H         1 ALA         0.2010
     10 H4        252.7710  -13.0601  -32.3039 H         1 ALA         0.1021
     11 H5        250.4701  -13.2990  -33.1838 H         1 ALA         0.0303
     12 H6        250.7713  -15.0453  -33.4774 H         1 ALA         0.0303
     13 H7        251.7071  -13.8079  -34.3828 H         1 ALA         0.0303
@<TRIPOS>BOND
     1    1    2 1  
     2    2    3 1  
     3    2    5 1  
     4    3    4 ar 
     5    3    6 ar 
     6    1    7 1  
     7    1    8 1  
     8    1    9 1  
     9    2   10 1  
    10    5   11 1  
    11    5   12 1  
    12    5   13 1  
@<TRIPOS>SUBSTRUCTURE
     1 ALA         1

