### 
### Created by X-TOOL on Mon Aug  2 16:12:50 2021
### 

@<TRIPOS>MOLECULE
6csf_ligand
   13    12     1     0     0
SMALL
GAST_HUCK


@<TRIPOS>ATOM
      1 N         252.3950  -14.9320  -32.4210 N.4       1 DAL         0.2325
      2 CA        250.9770  -14.7320  -32.1920 C.3       1 DAL         0.0255
      3 CB        250.4410  -13.7100  -33.1880 C.3       1 DAL        -0.0095
      4 C         250.7610  -14.2300  -30.7950 C.2       1 DAL         0.0841
      5 O         250.4450  -13.0310  -30.6350 O.co2     1 DAL        -0.5643
      6 OXT       250.9060  -15.0290  -29.8450 O.co2     1 DAL        -0.5643
      7 H1        252.5394  -15.2693  -33.3598 H         1 DAL         0.2010
      8 H2        252.7496  -15.6081  -31.7628 H         1 DAL         0.2010
      9 H3        252.8816  -14.0576  -32.2996 H         1 DAL         0.2010
     10 H4        250.4462  -15.6863  -32.3245 H         1 DAL         0.1021
     11 H5        249.3654  -13.5581  -33.0145 H         1 DAL         0.0303
     12 H6        250.5987  -14.0786  -34.2123 H         1 DAL         0.0303
     13 H7        250.9720  -12.7558  -33.0559 H         1 DAL         0.0303
@<TRIPOS>BOND
     1    1    2 1  
     2    2    3 1  
     3    2    4 1  
     4    4    5 ar 
     5    4    6 ar 
     6    1    7 1  
     7    1    8 1  
     8    1    9 1  
     9    2   10 1  
    10    3   11 1  
    11    3   12 1  
    12    3   13 1  
@<TRIPOS>SUBSTRUCTURE
     1 DAL         1

