### 
### Created by X-TOOL on Wed Jan  1 15:39:34 2020
### 

@<TRIPOS>MOLECULE
6csp_ligand
   21    21     1     0     0
SMALL
GAST_HUCK


@<TRIPOS>ATOM
      1 C10        29.9740   -3.1730   -7.8440 C.3       1 FBM        -0.0213
      2 C02        27.7300   -2.8540   -6.8550 C.2       1 FBM         0.2096
      3 C05        28.5670   -3.5750   -7.8590 C.2       1 FBM         0.0159
      4 C06        28.0850   -4.4740   -8.7570 C.2       1 FBM        -0.0682
      5 C07        29.0080   -5.1600   -9.7080 C.3       1 FBM        -0.0255
      6 C08        30.1550   -4.2770  -10.1430 C.3       1 FBM        -0.0418
      7 C09        30.8850   -3.7050   -8.9340 C.3       1 FBM        -0.0443
      8 N03        26.4150   -2.8130   -7.1150 N.am      1 FBM        -0.1671
      9 O01        28.1570   -2.2850   -5.8310 O.2       1 FBM        -0.3964
     10 O04        25.5960   -2.1270   -6.2360 O.3       1 FBM        -0.2727
     11 H1         30.3951   -3.4967   -6.8807 H         1 FBM         0.0383
     12 H2         29.9998   -2.0750   -7.9050 H         1 FBM         0.0383
     13 H3         27.0190   -4.6951   -8.7827 H         1 FBM         0.0636
     14 H4         28.4368   -5.4601  -10.5989 H         1 FBM         0.0436
     15 H5         29.4186   -6.0547   -9.2171 H         1 FBM         0.0436
     16 H6         29.7624   -3.4495  -10.7521 H         1 FBM         0.0292
     17 H7         30.8604   -4.8711  -10.7425 H         1 FBM         0.0292
     18 H8         31.5100   -4.5004   -8.5019 H         1 FBM         0.0284
     19 H9         31.5268   -2.8807   -9.2783 H         1 FBM         0.0284
     20 H10        26.0367   -3.2660   -7.9223 H         1 FBM         0.2202
     21 H11        24.6966   -2.1776   -6.5378 H         1 FBM         0.2489
@<TRIPOS>BOND
     1    1    3 1  
     2    1    7 1  
     3    3    2 1  
     4    2    8 am 
     5    2    9 2  
     6    3    4 2  
     7    4    5 1  
     8    5    6 1  
     9    6    7 1  
    10    8   10 1  
    11    1   11 1  
    12    1   12 1  
    13    4   13 1  
    14    5   14 1  
    15    5   15 1  
    16    6   16 1  
    17    6   17 1  
    18    7   18 1  
    19    7   19 1  
    20    8   20 1  
    21   10   21 1  
@<TRIPOS>SUBSTRUCTURE
     1 FBM         1

