### 
### Created by X-TOOL on Wed Jan  1 15:39:36 2020
### 

@<TRIPOS>MOLECULE
6csq_ligand
   23    23     1     0     0
SMALL
GAST_HUCK


@<TRIPOS>ATOM
      1 C10       -27.8700   -4.4960    8.7260 C.3       1 F9P        -0.0333
      2 C02       -27.7190   -2.8850    6.8220 C.2       1 F9P         0.2019
      3 C05       -28.6620   -3.7180    7.6760 C.3       1 F9P         0.0503
      4 C06       -29.7710   -2.8890    8.3250 C.3       1 F9P        -0.0333
      5 C07       -30.6620   -3.6950    9.2560 C.3       1 F9P        -0.0507
      6 C08       -29.8170   -4.4000   10.3110 C.3       1 F9P        -0.0528
      7 C09       -28.7870   -5.3000    9.6520 C.3       1 F9P        -0.0507
      8 N03       -26.3430   -2.8200    7.2550 N.am      1 F9P        -0.1640
      9 O01       -28.0250   -2.2750    5.8170 O.2       1 F9P        -0.3967
     10 O04       -25.5690   -2.0660    6.4380 O.3       1 F9P        -0.2717
     11 H1        -27.2879   -3.7854    9.3312 H         1 F9P         0.0292
     12 H2        -27.1855   -5.1886    8.2143 H         1 F9P         0.0292
     13 H3        -29.1480   -4.4485    7.0125 H         1 F9P         0.0537
     14 H4        -30.3968   -2.4598    7.5287 H         1 F9P         0.0292
     15 H5        -29.3061   -2.0772    8.9037 H         1 F9P         0.0292
     16 H6        -31.2143   -4.4455    8.6715 H         1 F9P         0.0267
     17 H7        -31.3745   -3.0198    9.7524 H         1 F9P         0.0267
     18 H8        -30.4718   -5.0082   10.9523 H         1 F9P         0.0265
     19 H9        -29.3004   -3.6467   10.9239 H         1 F9P         0.0265
     20 H10       -28.1786   -5.7817   10.4316 H         1 F9P         0.0267
     21 H11       -29.3064   -6.0708    9.0637 H         1 F9P         0.0267
     22 H12       -25.9979   -3.2827    8.0716 H         1 F9P         0.2216
     23 H13       -24.6779   -2.0570    6.7673 H         1 F9P         0.2490
@<TRIPOS>BOND
     1    1    3 1  
     2    1    7 1  
     3    3    2 1  
     4    2    8 am 
     5    2    9 2  
     6    3    4 1  
     7    4    5 1  
     8    5    6 1  
     9    6    7 1  
    10    8   10 1  
    11    1   11 1  
    12    1   12 1  
    13    3   13 1  
    14    4   14 1  
    15    4   15 1  
    16    5   16 1  
    17    5   17 1  
    18    6   18 1  
    19    6   19 1  
    20    7   20 1  
    21    7   21 1  
    22    8   22 1  
    23   10   23 1  
@<TRIPOS>SUBSTRUCTURE
     1 F9P         1

