### 
### Created by X-TOOL on Wed Jan  1 15:39:35 2020
### 

@<TRIPOS>MOLECULE
6csr_ligand
   17    17     1     0     0
SMALL
GAST_HUCK


@<TRIPOS>ATOM
      1 C1         -8.8180   -3.4890   17.7910 C.ar      1 BHO         0.0515
      2 C2         -9.2660   -4.5670   17.0120 C.ar      1 BHO        -0.0420
      3 C3         -8.4450   -5.1360   16.0250 C.ar      1 BHO        -0.0563
      4 C4         -7.1670   -4.6450   15.7750 C.ar      1 BHO        -0.0576
      5 C5         -6.7040   -3.5780   16.5450 C.ar      1 BHO        -0.0563
      6 C6         -7.5240   -3.0200   17.5400 C.ar      1 BHO        -0.0420
      7 C          -9.6830   -2.8600   18.8590 C.2       1 BHO         0.2277
      8 O1         -9.1880   -2.4060   19.8840 O.2       1 BHO        -0.3849
      9 N         -11.0720   -2.7770   18.6970 N.am      1 BHO        -0.1633
     10 O2        -11.7750   -2.1890   19.7230 O.3       1 BHO        -0.2719
     11 H1        -10.2606   -4.9663   17.1746 H         1 BHO         0.0669
     12 H2         -8.8142   -5.9748   15.4460 H         1 BHO         0.0629
     13 H3         -6.5464   -5.0812   15.0006 H         1 BHO         0.0652
     14 H4         -5.7105   -3.1789   16.3755 H         1 BHO         0.0629
     15 H5         -7.1409   -2.1978   18.1336 H         1 BHO         0.0669
     16 H6        -11.5284   -3.1267   17.8788 H         1 BHO         0.2213
     17 H7        -12.7008   -2.1855   19.5098 H         1 BHO         0.2491
@<TRIPOS>BOND
     1    1    2 ar 
     2    1    6 ar 
     3    1    7 1  
     4    2    3 ar 
     5    3    4 ar 
     6    4    5 ar 
     7    5    6 ar 
     8    7    8 2  
     9    7    9 am 
    10    9   10 1  
    11    2   11 1  
    12    3   12 1  
    13    4   13 1  
    14    5   14 1  
    15    6   15 1  
    16    9   16 1  
    17   10   17 1  
@<TRIPOS>SUBSTRUCTURE
     1 BHO         1

