### 
### Created by X-TOOL on Wed Jan  1 15:39:35 2020
### 

@<TRIPOS>MOLECULE
6css_ligand
   18    18     1     0     0
SMALL
GAST_HUCK


@<TRIPOS>ATOM
      1 C02        27.7330   -2.9620   -6.7190 C.2       1 FBJ         0.2096
      2 C05        28.6180   -3.8640   -7.8120 C.2       1 FBJ         0.0161
      3 C06        28.2950   -4.8640   -8.5750 C.2       1 FBJ        -0.0680
      4 C07        29.2740   -5.1610   -9.7500 C.3       1 FBJ        -0.0242
      5 C08        30.3360   -4.0460   -9.6020 C.3       1 FBJ        -0.0365
      6 C09        29.8550   -3.1490   -8.4210 C.3       1 FBJ        -0.0195
      7 N03        26.3170   -2.7910   -6.9070 N.am      1 FBJ        -0.1671
      8 O01        28.2760   -2.4390   -5.7540 O.2       1 FBJ        -0.3964
      9 O04        25.5130   -2.0740   -6.0770 O.3       1 FBJ        -0.2727
     10 H1         27.3976   -5.4568   -8.4045 H         1 FBJ         0.0636
     11 H2         28.7605   -5.0927  -10.7204 H         1 FBJ         0.0437
     12 H3         29.7284   -6.1572   -9.6449 H         1 FBJ         0.0437
     13 H4         30.4022   -3.4558  -10.5279 H         1 FBJ         0.0308
     14 H5         31.3196   -4.4827   -9.3743 H         1 FBJ         0.0308
     15 H6         30.6498   -3.0527   -7.6667 H         1 FBJ         0.0385
     16 H7         29.5759   -2.1507   -8.7892 H         1 FBJ         0.0385
     17 H8         25.8957   -3.2287   -7.7013 H         1 FBJ         0.2202
     18 H9         24.6203   -2.1019   -6.4006 H         1 FBJ         0.2489
@<TRIPOS>BOND
     1    1    2 1  
     2    1    7 am 
     3    1    8 2  
     4    2    3 2  
     5    2    6 1  
     6    3    4 1  
     7    4    5 1  
     8    5    6 1  
     9    7    9 1  
    10    3   10 1  
    11    4   11 1  
    12    4   12 1  
    13    5   13 1  
    14    5   14 1  
    15    6   15 1  
    16    6   16 1  
    17    7   17 1  
    18    9   18 1  
@<TRIPOS>SUBSTRUCTURE
     1 FBJ         1

