### 
### Created by X-TOOL on Wed Jan  1 15:39:37 2020
### 

@<TRIPOS>MOLECULE
6cvd_ligand
   22    23     1     0     0
SMALL
GAST_HUCK


@<TRIPOS>ATOM
      1 CAJ       -17.8720  -29.0920   39.8140 C.3       1 4ME         0.0644
      2 OAM       -16.5770  -28.4740   39.8520 O.3       1 4ME        -0.2825
      3 CAI       -15.5750  -29.3500   39.5080 C.2       1 4ME         0.2539
      4 OAL       -15.7780  -30.4310   38.9440 O.2       1 4ME        -0.3616
      5 CAG       -14.2830  -28.9140   39.8480 C.ar      1 4ME         0.0468
      6 CAB       -14.1850  -27.9440   40.8260 C.ar      1 4ME        -0.0575
      7 CAA       -12.9420  -27.4770   41.2000 C.ar      1 4ME        -0.0692
      8 CAC       -11.8230  -28.0000   40.5750 C.ar      1 4ME        -0.0378
      9 CAH       -11.9570  -28.9290   39.6410 C.ar      1 4ME         0.0694
     10 CAF       -13.1630  -29.3860   39.2780 C.ar      1 4ME        -0.0084
     11 CAD       -12.9630  -30.3060   38.3290 C.2       1 4ME        -0.0601
     12 CAE       -11.6510  -30.4150   38.1100 C.2       1 4ME         0.0238
     13 NAK       -11.0330  -29.5640   38.9240 N.pl3     1 4ME        -0.2776
     14 H1        -18.6384  -28.3549   40.0956 H         1 4ME         0.0575
     15 H2        -17.8969  -29.9349   40.5203 H         1 4ME         0.0575
     16 H3        -18.0731  -29.4597   38.7970 H         1 4ME         0.0575
     17 H4        -15.0792  -27.5520   41.2969 H         1 4ME         0.0580
     18 H5        -12.8436  -26.7170   41.9667 H         1 4ME         0.0545
     19 H6        -10.8353  -27.6484   40.8507 H         1 4ME         0.0591
     20 H7        -13.7412  -30.8723   37.8194 H         1 4ME         0.0293
     21 H8        -11.1725  -31.0811   37.3935 H         1 4ME         0.0954
     22 H9        -10.0150  -29.4211   38.9884 H         1 4ME         0.2277
@<TRIPOS>BOND
     1    1    2 1  
     2    2    3 1  
     3    3    4 2  
     4    3    5 1  
     5    5    6 ar 
     6    5   10 ar 
     7    6    7 ar 
     8    7    8 ar 
     9    8    9 ar 
    10    9   10 ar 
    11    9   13 1  
    12   10   11 1  
    13   11   12 2  
    14   12   13 1  
    15    1   14 1  
    16    1   15 1  
    17    1   16 1  
    18    6   17 1  
    19    7   18 1  
    20    8   19 1  
    21   11   20 1  
    22   12   21 1  
    23   13   22 1  
@<TRIPOS>SUBSTRUCTURE
     1 4ME         1

