### 
### Created by X-TOOL on Wed Jan  1 15:39:35 2020
### 

@<TRIPOS>MOLECULE
6cvw_ligand
  103   108     1     0     0
SMALL
GAST_HUCK


@<TRIPOS>ATOM
      1 C13       -13.5700   -9.8220   14.1960 C.3       1 FH1         0.1364
      2 C21       -20.0010  -11.7730   16.2750 C.3       1 FH1         0.0882
      3 C22       -21.1500  -11.5530   17.3700 C.3       1 FH1        -0.0223
      4 C24       -17.6130   -7.7080   12.7030 C.3       1 FH1         0.0025
      5 C26       -18.8960   -7.9850   11.8900 C.3       1 FH1        -0.0558
      6 C01       -15.9970   -8.9200   14.1500 C.2       1 FH1         0.2070
      7 C02       -13.8200  -11.6790   12.9420 C.3       1 FH1         0.1116
      8 C03       -12.8490  -10.8330   13.2700 C.3       1 FH1         0.0213
      9 C04       -15.1130  -10.7550   12.6630 C.3       1 FH1         0.0683
     10 C05       -14.5580   -3.7460   14.8020 C.2       1 FH1        -0.1173
     11 C06       -13.5130   -4.1870   15.5310 C.2       1 FH1        -0.0848
     12 C07       -13.4920   -5.6750   15.9570 C.3       1 FH1         0.0219
     13 C08       -12.5530   -6.0980   17.0670 C.3       1 FH1        -0.0026
     14 C09       -12.2430   -6.5110   15.6320 C.3       1 FH1         0.1495
     15 C11       -13.1590   -8.4020   14.1570 C.2       1 FH1         0.2014
     16 C16       -17.3870   -8.9980   13.5140 C.3       1 FH1         0.1378
     17 C18       -18.6800  -10.5040   14.9070 C.2       1 FH1         0.3221
     18 C23       -18.9130  -12.5720   17.0390 C.3       1 FH1        -0.0223
     19 C25       -17.7810   -6.4620   13.5890 C.3       1 FH1        -0.0558
     20 C27       -16.4940   -7.3840   11.6920 C.3       1 FH1        -0.0558
     21 C29       -13.6930  -13.6460   14.2590 C.ar      1 FH1         0.1982
     22 C30       -13.9600  -14.3920   15.5330 C.ar      1 FH1         0.0876
     23 C31       -14.9680  -13.8650   16.5300 C.3       1 FH1        -0.0077
     24 C33       -12.2990  -16.0410   14.8580 C.ar      1 FH1         0.0479
     25 C34       -11.5660  -17.3390   15.1860 C.ar      1 FH1        -0.0425
     26 C35       -10.5800  -17.8170   14.1890 C.ar      1 FH1        -0.0236
     27 C36       -10.3180  -17.0380   12.9310 C.ar      1 FH1         0.0960
     28 C37       -11.0480  -15.7630   12.5600 C.ar      1 FH1        -0.0161
     29 C38       -12.0570  -15.2960   13.5870 C.ar      1 FH1         0.0423
     30 C41        -9.1550  -16.8950   10.8960 C.3       1 FH1         0.0605
     31 C42       -11.0420   -5.8380   15.0780 C.2       1 FH1         0.2469
     32 C48        -8.3820   -7.0170   12.2440 C.3       1 FH1         0.1085
     33 C49        -7.2870   -7.9290   12.7370 C.3       1 FH1        -0.0239
     34 C50        -6.9290   -6.7330   11.8770 C.3       1 FH1        -0.0239
     35 C51       -20.3760  -11.3510   18.4730 C.3       1 FH1        -0.0503
     36 C52       -19.2160  -12.4950   18.3780 C.3       1 FH1        -0.0503
     37 C53        -9.3790   -7.5440   11.2150 C.3       1 FH1        -0.0378
     38 N10       -12.5670   -7.8900   15.3720 N.am      1 FH1        -0.2717
     39 N14       -14.9890   -9.8420   13.6330 N.am      1 FH1        -0.2468
     40 N17       -18.3430   -9.1610   14.5440 N.am      1 FH1        -0.2407
     41 N32       -13.2560  -15.5810   15.8270 N.ar      1 FH1        -0.2832
     42 N39       -12.7490  -14.0800   13.2850 N.ar      1 FH1        -0.2649
     43 N44       -10.3440   -6.6460   14.1290 N.am      1 FH1        -0.1548
     44 O12       -13.2770   -7.6860   13.2010 O.2       1 FH1        -0.3947
     45 O15       -15.7470   -8.1670   15.0530 O.2       1 FH1        -0.3942
     46 O19       -18.2810  -11.4550   14.3240 O.2       1 FH1        -0.3774
     47 O20       -19.5190  -10.5820   15.9870 O.3       1 FH1        -0.2605
     48 O28       -14.3690  -12.4620   14.0490 O.3       1 FH1        -0.2852
     49 O40        -9.4250  -17.6180   12.0920 O.3       1 FH1        -0.3183
     50 O43       -10.6700   -4.7750   15.4320 O.2       1 FH1        -0.3401
     51 O46        -7.9760   -5.4870   14.3920 O.2       1 FH1        -0.1501
     52 O47        -9.5230   -4.7610   12.7070 O.2       1 FH1        -0.1501
     53 S45        -9.0360   -5.9100   13.4870 S.o2      1 FH1         0.0671
     54 H1        -13.5254  -10.1781   15.2358 H         1 FH1         0.0803
     55 H2        -20.3592  -12.2994   15.3780 H         1 FH1         0.0647
     56 H3        -21.7910  -12.4407   17.4759 H         1 FH1         0.0293
     57 H4        -21.7730  -10.6761   17.1401 H         1 FH1         0.0293
     58 H5        -19.1363   -7.1062   11.2735 H         1 FH1         0.0237
     59 H6        -19.7294   -8.1889   12.5783 H         1 FH1         0.0237
     60 H7        -18.7364   -8.8571   11.2389 H         1 FH1         0.0237
     61 H8        -13.5193  -12.3108   12.0932 H         1 FH1         0.0683
     62 H9        -12.0375  -11.3495   13.8035 H         1 FH1         0.0343
     63 H10       -12.4419  -10.3330   12.3788 H         1 FH1         0.0343
     64 H11       -16.0473  -11.3268   12.7636 H         1 FH1         0.0554
     65 H12       -15.0715  -10.2928   11.6657 H         1 FH1         0.0554
     66 H13       -14.6014   -2.7044   14.4872 H         1 FH1         0.0290
     67 H14       -15.3587   -4.4314   14.5280 H         1 FH1         0.0290
     68 H15       -12.7047   -3.5138   15.8128 H         1 FH1         0.0674
     69 H16       -14.4985   -6.1113   15.8755 H         1 FH1         0.0489
     70 H17       -12.8743   -6.8550   17.7976 H         1 FH1         0.0307
     71 H18       -11.9247   -5.3474   17.5688 H         1 FH1         0.0307
     72 H19       -17.4401   -9.8628   12.8363 H         1 FH1         0.0805
     73 H20       -17.9219  -12.1333   16.8512 H         1 FH1         0.0293
     74 H21       -18.9172  -13.6221   16.7116 H         1 FH1         0.0293
     75 H22       -17.9382   -5.5784   12.9530 H         1 FH1         0.0237
     76 H23       -16.8755   -6.3196   14.1971 H         1 FH1         0.0237
     77 H24       -18.6495   -6.5968   14.2505 H         1 FH1         0.0237
     78 H25       -16.3349   -8.2491   11.0315 H         1 FH1         0.0237
     79 H26       -15.5633   -7.1606   12.2342 H         1 FH1         0.0237
     80 H27       -16.7858   -6.5113   11.0893 H         1 FH1         0.0237
     81 H28       -15.0217  -14.5462   17.3920 H         1 FH1         0.0427
     82 H29       -15.9566  -13.7996   16.0522 H         1 FH1         0.0427
     83 H30       -14.6587  -12.8660   16.8709 H         1 FH1         0.0427
     84 H31       -11.7574  -17.8842   16.1032 H         1 FH1         0.0637
     85 H32       -10.0409  -18.7400   14.3692 H         1 FH1         0.0606
     86 H33       -10.8628  -15.2291   11.6349 H         1 FH1         0.0508
     87 H34        -8.4228  -17.4489   10.2901 H         1 FH1         0.0580
     88 H35        -8.7472  -15.9054   11.1499 H         1 FH1         0.0580
     89 H36       -10.0863  -16.7720   10.3237 H         1 FH1         0.0580
     90 H37        -7.1946   -8.9459   12.3279 H         1 FH1         0.0288
     91 H38        -7.0189   -7.9372   13.8038 H         1 FH1         0.0288
     92 H39        -6.4065   -5.8721   12.3196 H         1 FH1         0.0288
     93 H40        -6.5821   -6.8808   10.8437 H         1 FH1         0.0288
     94 H41       -20.9689  -11.4747   19.3912 H         1 FH1         0.0266
     95 H42       -19.9313  -10.3450   18.4563 H         1 FH1         0.0266
     96 H43       -18.3307  -12.1994   18.9600 H         1 FH1         0.0266
     97 H44       -19.5919  -13.4606   18.7472 H         1 FH1         0.0266
     98 H45        -8.8603   -8.2097   10.5094 H         1 FH1         0.0251
     99 H46        -9.8199   -6.6992   10.6655 H         1 FH1         0.0251
    100 H47       -10.1752   -8.1029   11.7286 H         1 FH1         0.0251
    101 H48       -12.3648   -8.5506   16.0950 H         1 FH1         0.1841
    102 H49       -18.7635   -8.3750   14.9971 H         1 FH1         0.1899
    103 H50       -10.6289   -7.5722   13.8820 H         1 FH1         0.2148
@<TRIPOS>BOND
     1    1    8 1  
     2   15    1 1  
     3    1   39 1  
     4    2    3 1  
     5    2   18 1  
     6   47    2 1  
     7    3   35 1  
     8    4    5 1  
     9   16    4 1  
    10    4   19 1  
    11    4   20 1  
    12    6   16 1  
    13   39    6 am 
    14    6   45 2  
    15    8    7 1  
    16    9    7 1  
    17    7   48 1  
    18   39    9 1  
    19   11   10 2  
    20   12   11 1  
    21   13   12 1  
    22   14   12 1  
    23   14   13 1  
    24   31   14 1  
    25   14   38 1  
    26   38   15 am 
    27   15   44 2  
    28   16   40 1  
    29   40   17 am 
    30   17   46 2  
    31   17   47 1  
    32   18   36 1  
    33   21   22 ar 
    34   21   42 ar 
    35   48   21 1  
    36   22   23 1  
    37   22   41 ar 
    38   24   25 ar 
    39   29   24 ar 
    40   41   24 ar 
    41   25   26 ar 
    42   27   26 ar 
    43   28   27 ar 
    44   27   49 1  
    45   29   28 ar 
    46   42   29 ar 
    47   49   30 1  
    48   43   31 am 
    49   31   50 2  
    50   32   33 1  
    51   32   34 1  
    52   32   37 1  
    53   53   32 1  
    54   34   33 1  
    55   36   35 1  
    56   43   53 am 
    57   53   51 2  
    58   53   52 2  
    59    1   54 1  
    60    2   55 1  
    61    3   56 1  
    62    3   57 1  
    63    5   58 1  
    64    5   59 1  
    65    5   60 1  
    66    7   61 1  
    67    8   62 1  
    68    8   63 1  
    69    9   64 1  
    70    9   65 1  
    71   10   66 1  
    72   10   67 1  
    73   11   68 1  
    74   12   69 1  
    75   13   70 1  
    76   13   71 1  
    77   16   72 1  
    78   18   73 1  
    79   18   74 1  
    80   19   75 1  
    81   19   76 1  
    82   19   77 1  
    83   20   78 1  
    84   20   79 1  
    85   20   80 1  
    86   23   81 1  
    87   23   82 1  
    88   23   83 1  
    89   25   84 1  
    90   26   85 1  
    91   28   86 1  
    92   30   87 1  
    93   30   88 1  
    94   30   89 1  
    95   33   90 1  
    96   33   91 1  
    97   34   92 1  
    98   34   93 1  
    99   35   94 1  
   100   35   95 1  
   101   36   96 1  
   102   36   97 1  
   103   37   98 1  
   104   37   99 1  
   105   37  100 1  
   106   38  101 1  
   107   40  102 1  
   108   43  103 1  
@<TRIPOS>SUBSTRUCTURE
     1 FH1         1

