### 
### Created by X-TOOL on Mon Aug  2 16:12:50 2021
### 

@<TRIPOS>MOLECULE
6cw8_ligand
   73    74     1     0     0
SMALL
GAST_HUCK


@<TRIPOS>ATOM
      1 C15         4.0570   -3.9410   27.8070 C.2       1 FGY         0.2032
      2 C17         3.2500   -1.8620   26.7370 C.3       1 FGY         0.0645
      3 C20        -0.4450   -1.4600   26.3140 C.ar      1 FGY        -0.0685
      4 C21        -0.5100   -0.4810   25.3550 C.ar      1 FGY        -0.0687
      5 C22         0.6580    0.0480   24.8490 C.ar      1 FGY        -0.0685
      6 C28         8.0710   -8.0900   26.2320 C.2       1 FGY         0.1805
      7 C02         3.4580  -14.3100   22.5890 C.2       1 FGY         0.2303
      8 C05         3.7290  -13.2950   23.5580 C.ar      1 FGY         0.0554
      9 C06         3.4260  -11.9580   23.3260 C.ar      1 FGY        -0.0368
     10 C07         3.7230  -10.9990   24.2630 C.ar      1 FGY        -0.0368
     11 C08         4.3000  -11.2840   25.4820 C.ar      1 FGY         0.0539
     12 C09         4.6880  -10.3070   26.5210 C.2       1 FGY         0.2099
     13 C11         5.6530   -8.0560   27.0870 C.3       1 FGY         0.1472
     14 C12         4.5980   -6.9710   27.3920 C.2       1 FGY         0.2062
     15 C14         3.9670   -5.0040   28.9150 C.3       1 FGY         0.1282
     16 C18         1.9690   -1.3900   26.2650 C.ar      1 FGY        -0.0210
     17 C19         0.7800   -1.9140   26.7590 C.ar      1 FGY        -0.0584
     18 C23         1.8810   -0.3980   25.2940 C.ar      1 FGY        -0.0584
     19 C25         4.5390   -4.2180   30.0610 C.3       1 FGY        -0.0244
     20 C27         6.7850   -7.2610   26.3800 C.3       1 FGY         0.0775
     21 C30         9.8360   -9.2580   27.6880 C.3       1 FGY         0.0358
     22 C31         9.4870  -10.7190   28.0890 C.3       1 FGY        -0.0176
     23 C32         8.7340  -11.4230   26.9340 C.3       1 FGY        -0.0582
     24 C33         8.5460  -10.7400   29.3230 C.3       1 FGY        -0.0582
     25 C34        10.7480  -11.5150   28.3860 C.3       1 FGY        -0.0582
     26 C37         4.6270  -12.6350   25.7010 C.ar      1 FGY        -0.0368
     27 C38         4.3380  -13.6070   24.7730 C.ar      1 FGY        -0.0368
     28 N03         3.5290  -15.6530   22.9980 N.am      1 FGY        -0.1627
     29 N10         5.2000   -9.0680   26.1380 N.am      1 FGY        -0.2623
     30 N13         4.8320   -6.1310   28.5500 N.am      1 FGY        -0.2639
     31 N16         3.1340   -2.8870   27.7850 N.am      1 FGY        -0.2737
     32 N29         8.6280   -8.4340   27.5080 N.am      1 FGY        -0.2863
     33 O01         3.2370  -14.0350   21.4100 O.2       1 FGY        -0.3833
     34 O04         3.2740  -16.5190   21.9940 O.3       1 FGY        -0.2719
     35 O24         4.9450   -3.9940   26.9780 O.2       1 FGY        -0.3944
     36 O26         3.6330   -6.8110   26.6730 O.2       1 FGY        -0.3942
     37 O35         8.5450   -8.4330   25.1760 O.2       1 FGY        -0.3968
     38 O36         4.6230  -10.5920   27.6710 O.2       1 FGY        -0.3829
     39 H1          3.8106   -1.0072   27.1433 H         1 FGY         0.0683
     40 H2          3.8006   -2.2908   25.8867 H         1 FGY         0.0683
     41 H3         -1.3578   -1.8778   26.7231 H         1 FGY         0.0599
     42 H4         -1.4706   -0.1269   24.9987 H         1 FGY         0.0559
     43 H5          0.6124    0.8233   24.0928 H         1 FGY         0.0599
     44 H6          2.9503  -11.6696   22.3956 H         1 FGY         0.0678
     45 H7          3.4919   -9.9653   24.0323 H         1 FGY         0.0679
     46 H8          5.9977   -8.5358   28.0149 H         1 FGY         0.0826
     47 H9          2.9392   -5.3455   29.1074 H         1 FGY         0.0797
     48 H10         0.8157   -2.6955   27.5094 H         1 FGY         0.0557
     49 H11         2.7882    0.0294   24.8824 H         1 FGY         0.0557
     50 H12         4.5507   -4.8441   30.9653 H         1 FGY         0.0277
     51 H13         3.9193   -3.3270   30.2400 H         1 FGY         0.0277
     52 H14         5.5656   -3.9077   29.8166 H         1 FGY         0.0277
     53 H15         6.4377   -6.9640   25.3794 H         1 FGY         0.0551
     54 H16         7.0094   -6.3616   26.9722 H         1 FGY         0.0551
     55 H17        10.3998   -9.2735   26.7436 H         1 FGY         0.0525
     56 H18        10.4568   -8.8109   28.4784 H         1 FGY         0.0525
     57 H19         8.4926  -12.4549   27.2289 H         1 FGY         0.0236
     58 H20         9.3700  -11.4374   26.0366 H         1 FGY         0.0236
     59 H21         7.8043  -10.8770   26.7158 H         1 FGY         0.0236
     60 H22         9.0432  -10.2475   30.1717 H         1 FGY         0.0236
     61 H23         8.3130  -11.7817   29.5888 H         1 FGY         0.0236
     62 H24         7.6149  -10.2056   29.0833 H         1 FGY         0.0236
     63 H25        11.4094  -11.4954   27.5073 H         1 FGY         0.0236
     64 H26        10.4784  -12.5557   28.6188 H         1 FGY         0.0236
     65 H27        11.2685  -11.0697   29.2467 H         1 FGY         0.0236
     66 H28         5.1193  -12.9163   26.6249 H         1 FGY         0.0679
     67 H29         4.5891  -14.6389   24.9905 H         1 FGY         0.0678
     68 H30         3.7452  -15.9366   23.9323 H         1 FGY         0.2214
     69 H31         5.2600   -8.8619   25.1613 H         1 FGY         0.1879
     70 H32         5.6227   -6.3298   29.1290 H         1 FGY         0.1883
     71 H33         2.4082   -2.8327   28.4708 H         1 FGY         0.1878
     72 H34         8.1673   -8.0930   28.3274 H         1 FGY         0.1851
     73 H35         2.3994  -16.3631   21.6573 H         1 FGY         0.2491
@<TRIPOS>BOND
     1   15    1 1  
     2    1   31 am 
     3    1   35 2  
     4    2   16 1  
     5   31    2 1  
     6    3    4 ar 
     7   17    3 ar 
     8    5    4 ar 
     9   18    5 ar 
    10    6   20 1  
    11   32    6 am 
    12    6   37 2  
    13    8    7 1  
    14    7   28 am 
    15    7   33 2  
    16    9    8 ar 
    17    8   27 ar 
    18   10    9 ar 
    19   11   10 ar 
    20   12   11 1  
    21   11   26 ar 
    22   29   12 am 
    23   12   38 2  
    24   13   14 1  
    25   20   13 1  
    26   13   29 1  
    27   14   30 am 
    28   14   36 2  
    29   15   19 1  
    30   30   15 1  
    31   16   17 ar 
    32   16   18 ar 
    33   21   22 1  
    34   21   32 1  
    35   22   23 1  
    36   22   24 1  
    37   22   25 1  
    38   26   27 ar 
    39   28   34 1  
    40    2   39 1  
    41    2   40 1  
    42    3   41 1  
    43    4   42 1  
    44    5   43 1  
    45    9   44 1  
    46   10   45 1  
    47   13   46 1  
    48   15   47 1  
    49   17   48 1  
    50   18   49 1  
    51   19   50 1  
    52   19   51 1  
    53   19   52 1  
    54   20   53 1  
    55   20   54 1  
    56   21   55 1  
    57   21   56 1  
    58   23   57 1  
    59   23   58 1  
    60   23   59 1  
    61   24   60 1  
    62   24   61 1  
    63   24   62 1  
    64   25   63 1  
    65   25   64 1  
    66   25   65 1  
    67   26   66 1  
    68   27   67 1  
    69   28   68 1  
    70   29   69 1  
    71   30   70 1  
    72   31   71 1  
    73   32   72 1  
    74   34   73 1  
@<TRIPOS>SUBSTRUCTURE
     1 FGY         1

