### 
### Created by X-TOOL on Wed Jan  1 15:39:38 2020
### 

@<TRIPOS>MOLECULE
6cwf_ligand
   39    40     1     0     0
SMALL
GAST_HUCK


@<TRIPOS>ATOM
      1 C8        -36.2680   46.1540   14.3790 C.3       1 6LA         0.0257
      2 C7        -34.7930   46.3310   14.7090 C.2       1 6LA         0.1733
      3 O7        -34.2960   47.4440   14.9190 O.2       1 6LA        -0.3974
      4 N2        -34.1090   45.1950   14.7960 N.am      1 6LA        -0.2766
      5 C2        -32.6500   45.2360   15.1150 C.3       1 6LA         0.1209
      6 C3        -32.3120   44.5280   16.4840 C.3       1 6LA         0.1113
      7 O3        -32.9720   45.1030   17.6700 O.3       1 6LA        -0.3867
      8 C4        -32.6930   43.0870   16.3850 C.3       1 6LA         0.1172
      9 O4        -32.2810   42.4530   17.5640 O.3       1 6LA        -0.3384
     10 CAB       -32.5030   41.0620   17.6490 C.3       1 6LA         0.2151
     11 CAK       -31.8540   40.5630   18.9680 C.3       1 6LA        -0.0049
     12 CAL       -33.9900   40.7110   17.6840 C.2       1 6LA         0.1037
     13 OAN       -34.3710   39.7290   16.9810 O.co2     1 6LA        -0.5426
     14 OAM       -34.6790   41.5110   18.3140 O.co2     1 6LA        -0.5426
     15 O6        -31.9860   40.3780   16.4780 O.3       1 6LA        -0.3444
     16 C6        -32.1090   40.9750   15.2000 C.3       1 6LA         0.0786
     17 C5        -31.9410   42.4960   15.2640 C.3       1 6LA         0.1134
     18 O5        -32.3180   43.1030   14.0150 O.3       1 6LA        -0.3408
     19 C1        -31.9540   44.5130   13.9850 C.3       1 6LA         0.1845
     20 O1        -32.3200   45.0880   12.6920 O.3       1 6LA        -0.3522
     21 CAU       -31.5890   44.4660   11.5880 C.3       1 6LA         0.0395
     22 H1        -36.4853   45.0857   14.2326 H         1 6LA         0.0467
     23 H2        -36.5066   46.7062   13.4581 H         1 6LA         0.0467
     24 H3        -36.8783   46.5421   15.2078 H         1 6LA         0.0467
     25 H4        -34.5677   44.3187   14.6490 H         1 6LA         0.1857
     26 H5        -32.3119   46.2817   15.1616 H         1 6LA         0.0633
     27 H6        -31.2253   44.6016   16.6377 H         1 6LA         0.0645
     28 H7        -32.7139   46.0123   17.7650 H         1 6LA         0.2100
     29 H8        -33.7769   42.9747   16.2350 H         1 6LA         0.0649
     30 H9        -32.0094   39.4784   19.0656 H         1 6LA         0.0274
     31 H10       -32.3173   41.0781   19.8224 H         1 6LA         0.0274
     32 H11       -30.7755   40.7788   18.9506 H         1 6LA         0.0274
     33 H12       -33.1045   40.7436   14.7933 H         1 6LA         0.0586
     34 H13       -31.3362   40.5591   14.5369 H         1 6LA         0.0586
     35 H14       -30.8745   42.7063   15.4320 H         1 6LA         0.0647
     36 H15       -30.8663   44.6070   14.1196 H         1 6LA         0.0934
     37 H16       -31.8957   44.9287   10.6384 H         1 6LA         0.0525
     38 H17       -31.8129   43.3894   11.5604 H         1 6LA         0.0525
     39 H18       -30.5087   44.6122   11.7350 H         1 6LA         0.0525
@<TRIPOS>BOND
     1    1    2 1  
     2    2    3 2  
     3    2    4 am 
     4    4    5 1  
     5    5    6 1  
     6    5   19 1  
     7    6    7 1  
     8    6    8 1  
     9    8    9 1  
    10    8   17 1  
    11    9   10 1  
    12   10   11 1  
    13   10   12 1  
    14   10   15 1  
    15   12   13 ar 
    16   12   14 ar 
    17   15   16 1  
    18   16   17 1  
    19   17   18 1  
    20   18   19 1  
    21   19   20 1  
    22   20   21 1  
    23    1   22 1  
    24    1   23 1  
    25    1   24 1  
    26    4   25 1  
    27    5   26 1  
    28    6   27 1  
    29    7   28 1  
    30    8   29 1  
    31   11   30 1  
    32   11   31 1  
    33   11   32 1  
    34   16   33 1  
    35   16   34 1  
    36   17   35 1  
    37   19   36 1  
    38   21   37 1  
    39   21   38 1  
    40   21   39 1  
@<TRIPOS>SUBSTRUCTURE
     1 6LA         1

