### 
### Created by X-TOOL on Wed Jan  1 15:39:36 2020
### 

@<TRIPOS>MOLECULE
6cwh_ligand
   39    40     1     0     0
SMALL
GAST_HUCK


@<TRIPOS>ATOM
      1 C8          9.9270  -47.4780   35.8850 C.3       1 6LA         0.0257
      2 C7         10.2110  -47.8770   34.4630 C.2       1 6LA         0.1733
      3 O7         10.9300  -48.8290   34.2460 O.2       1 6LA        -0.3974
      4 N2          9.5500  -47.1940   33.5170 N.am      1 6LA        -0.2766
      5 C2          9.7180  -47.4110   32.0410 C.3       1 6LA         0.1209
      6 C3          8.3910  -47.7270   31.3290 C.3       1 6LA         0.1113
      7 O3          7.7980  -48.8540   31.9840 O.3       1 6LA        -0.3867
      8 C4          7.4940  -46.5620   31.4040 C.3       1 6LA         0.1172
      9 O4          6.3190  -46.7430   30.6060 O.3       1 6LA        -0.3384
     10 CAB         5.4750  -45.7000   30.6080 C.3       1 6LA         0.2151
     11 CAK         4.3690  -46.0200   29.6170 C.3       1 6LA        -0.0049
     12 CAL         4.8430  -45.5770   32.0190 C.2       1 6LA         0.1037
     13 OAN         4.4690  -44.4710   32.4820 O.co2     1 6LA        -0.5426
     14 OAM         4.6850  -46.6400   32.5610 O.co2     1 6LA        -0.5426
     15 O6          6.1610  -44.4810   30.1610 O.3       1 6LA        -0.3444
     16 C6          7.2340  -44.1580   31.0060 C.3       1 6LA         0.0786
     17 C5          8.1930  -45.3220   30.8280 C.3       1 6LA         0.1134
     18 O5          9.3350  -45.0470   31.6340 O.3       1 6LA        -0.3408
     19 C1         10.2560  -46.1120   31.4610 C.3       1 6LA         0.1845
     20 O1         11.4040  -45.7760   32.2410 O.3       1 6LA        -0.3522
     21 CAU        12.1180  -44.6260   31.6720 C.3       1 6LA         0.0395
     22 H1          9.2625  -46.6014   35.8941 H         1 6LA         0.0467
     23 H2         10.8710  -47.2277   36.3911 H         1 6LA         0.0467
     24 H3          9.4397  -48.3129   36.4098 H         1 6LA         0.0467
     25 H4          8.9017  -46.4932   33.8147 H         1 6LA         0.1857
     26 H5         10.4281  -48.2334   31.8695 H         1 6LA         0.0633
     27 H6          8.5833  -47.9705   30.2737 H         1 6LA         0.0645
     28 H7          8.3870  -49.5973   31.9282 H         1 6LA         0.2100
     29 H8          7.2134  -46.3905   32.4537 H         1 6LA         0.0649
     30 H9          3.6513  -45.1869   29.5870 H         1 6LA         0.0274
     31 H10         3.8513  -46.9389   29.9294 H         1 6LA         0.0274
     32 H11         4.8035  -46.1658   28.6170 H         1 6LA         0.0274
     33 H12         6.9008  -44.0803   32.0514 H         1 6LA         0.0586
     34 H13         7.7040  -43.2118   30.6996 H         1 6LA         0.0586
     35 H14         8.4688  -45.4663   29.7730 H         1 6LA         0.0647
     36 H15        10.5086  -46.2371   30.3978 H         1 6LA         0.0934
     37 H16        12.9945  -44.3939   32.2948 H         1 6LA         0.0525
     38 H17        11.4469  -43.7549   31.6442 H         1 6LA         0.0525
     39 H18        12.4476  -44.8677   30.6508 H         1 6LA         0.0525
@<TRIPOS>BOND
     1    1    2 1  
     2    2    3 2  
     3    2    4 am 
     4    4    5 1  
     5    5    6 1  
     6    5   19 1  
     7    6    7 1  
     8    6    8 1  
     9    8    9 1  
    10    8   17 1  
    11    9   10 1  
    12   10   11 1  
    13   10   12 1  
    14   10   15 1  
    15   12   13 ar 
    16   12   14 ar 
    17   15   16 1  
    18   16   17 1  
    19   17   18 1  
    20   18   19 1  
    21   19   20 1  
    22   20   21 1  
    23    1   22 1  
    24    1   23 1  
    25    1   24 1  
    26    4   25 1  
    27    5   26 1  
    28    6   27 1  
    29    7   28 1  
    30    8   29 1  
    31   11   30 1  
    32   11   31 1  
    33   11   32 1  
    34   16   33 1  
    35   16   34 1  
    36   17   35 1  
    37   19   36 1  
    38   21   37 1  
    39   21   38 1  
    40   21   39 1  
@<TRIPOS>SUBSTRUCTURE
     1 6LA         1

