### 
### Created by X-TOOL on Wed Jan  1 15:39:37 2020
### 

@<TRIPOS>MOLECULE
6cwi_ligand
   39    40     1     0     0
SMALL
GAST_HUCK


@<TRIPOS>ATOM
      1 C8         38.2960    0.8450  133.4200 C.3       1 6LA         0.0257
      2 C7         36.8830    0.4620  133.8160 C.2       1 6LA         0.1733
      3 O7         36.6330   -0.1820  134.8190 O.2       1 6LA        -0.3974
      4 N2         35.9310    0.9200  133.0170 N.am      1 6LA        -0.2766
      5 C2         34.5160    0.5950  133.2760 C.3       1 6LA         0.1209
      6 C3         33.7410    1.8850  133.5800 C.3       1 6LA         0.1113
      7 O3         34.3930    2.5430  134.7510 O.3       1 6LA        -0.3867
      8 C4         33.7660    2.7190  132.3320 C.3       1 6LA         0.1172
      9 O4         32.9250    3.7630  132.5300 O.3       1 6LA        -0.3384
     10 CAB        32.8920    4.5510  131.3310 C.3       1 6LA         0.2151
     11 CAK        31.8960    5.6950  131.5600 C.3       1 6LA        -0.0049
     12 CAL        34.2680    5.1580  131.1770 C.2       1 6LA         0.1037
     13 OAN        34.7160    5.4770  130.0310 O.co2     1 6LA        -0.5426
     14 OAM        34.8000    5.4400  132.2970 O.co2     1 6LA        -0.5426
     15 O6         32.4710    3.8400  130.1640 O.3       1 6LA        -0.3444
     16 C6         33.2950    2.7130  129.8820 C.3       1 6LA         0.0786
     17 C5         33.2600    1.8990  131.1300 C.3       1 6LA         0.1134
     18 O5         34.1400    0.7530  130.9150 O.3       1 6LA        -0.3408
     19 C1         34.0250   -0.1070  132.0650 C.3       1 6LA         0.1845
     20 O1         34.8390   -1.2750  131.9020 O.3       1 6LA        -0.3522
     21 CAU        34.4850   -2.0520  130.7470 C.3       1 6LA         0.0395
     22 H1         38.2708    1.4211  132.4833 H         1 6LA         0.0467
     23 H2         38.8956   -0.0656  133.2744 H         1 6LA         0.0467
     24 H3         38.7464    1.4574  134.2151 H         1 6LA         0.0467
     25 H4         36.1736    1.4904  132.2323 H         1 6LA         0.1857
     26 H5         34.4359   -0.0766  134.1435 H         1 6LA         0.0633
     27 H6         32.6971    1.6515  133.8363 H         1 6LA         0.0645
     28 H7         35.2968    2.7431  134.5377 H         1 6LA         0.2100
     29 H8         34.7870    3.0784  132.1364 H         1 6LA         0.0649
     30 H9         31.8445    6.3223  130.6579 H         1 6LA         0.0274
     31 H10        32.2284    6.3054  132.4126 H         1 6LA         0.0274
     32 H11        30.9009    5.2776  131.7736 H         1 6LA         0.0274
     33 H12        34.3232    3.0310  129.6547 H         1 6LA         0.0586
     34 H13        32.8923    2.1402  129.0336 H         1 6LA         0.0586
     35 H14        32.2330    1.5575  131.3265 H         1 6LA         0.0647
     36 H15        32.9727   -0.3983  132.1983 H         1 6LA         0.0934
     37 H16        35.1442   -2.9300  130.6797 H         1 6LA         0.0525
     38 H17        34.5998   -1.4371  129.8422 H         1 6LA         0.0525
     39 H18        33.4400   -2.3840  130.8346 H         1 6LA         0.0525
@<TRIPOS>BOND
     1    1    2 1  
     2    2    3 2  
     3    2    4 am 
     4    4    5 1  
     5    5    6 1  
     6    5   19 1  
     7    6    7 1  
     8    6    8 1  
     9    8    9 1  
    10    8   17 1  
    11    9   10 1  
    12   10   11 1  
    13   10   12 1  
    14   10   15 1  
    15   12   13 ar 
    16   12   14 ar 
    17   15   16 1  
    18   16   17 1  
    19   17   18 1  
    20   18   19 1  
    21   19   20 1  
    22   20   21 1  
    23    1   22 1  
    24    1   23 1  
    25    1   24 1  
    26    4   25 1  
    27    5   26 1  
    28    6   27 1  
    29    7   28 1  
    30    8   29 1  
    31   11   30 1  
    32   11   31 1  
    33   11   32 1  
    34   16   33 1  
    35   16   34 1  
    36   17   35 1  
    37   19   36 1  
    38   21   37 1  
    39   21   38 1  
    40   21   39 1  
@<TRIPOS>SUBSTRUCTURE
     1 6LA         1

