### 
### Created by X-TOOL on Wed Jan  1 15:39:34 2020
### 

@<TRIPOS>MOLECULE
6cwn_ligand
   39    40     1     0     0
SMALL
GAST_HUCK


@<TRIPOS>ATOM
      1 C8        -21.1660  -12.4000   17.3760 C.3       1 6LA         0.0257
      2 C7        -20.6950  -12.3040   15.9290 C.2       1 6LA         0.1733
      3 O7        -21.4600  -12.5720   15.0170 O.2       1 6LA        -0.3974
      4 N2        -19.4260  -12.0030   15.7750 N.am      1 6LA        -0.2766
      5 C2        -18.8920  -11.8790   14.4590 C.3       1 6LA         0.1209
      6 C3        -18.4550  -10.4470   14.1450 C.3       1 6LA         0.1113
      7 O3        -19.4860   -9.4860   14.2620 O.3       1 6LA        -0.3867
      8 C4        -17.2990  -10.0760   15.0920 C.3       1 6LA         0.1172
      9 O4        -16.7360   -8.8060   14.7190 O.3       1 6LA        -0.3384
     10 CAB       -15.6940   -8.3710   15.6100 C.3       1 6LA         0.2151
     11 CAK       -15.1280   -7.0730   15.0280 C.3       1 6LA        -0.0049
     12 CAL       -16.3120   -8.0960   17.0290 C.2       1 6LA         0.1037
     13 OAN       -17.4000   -7.4550   17.0270 O.co2     1 6LA        -0.5426
     14 OAM       -15.6430   -8.4130   18.0230 O.co2     1 6LA        -0.5426
     15 O6        -14.6900   -9.3540   15.6550 O.3       1 6LA        -0.3444
     16 C6        -15.0540  -10.6910   15.9370 C.3       1 6LA         0.0786
     17 C5        -16.2370  -11.0710   14.9790 C.3       1 6LA         0.1134
     18 O5        -16.6710  -12.3740   15.2860 O.3       1 6LA        -0.3408
     19 C1        -17.6630  -12.7590   14.3410 C.3       1 6LA         0.1845
     20 O1        -18.0110  -14.0690   14.5520 O.3       1 6LA        -0.3522
     21 CAU       -17.0090  -15.0290   14.2690 C.3       1 6LA         0.0395
     22 H1        -20.3417  -12.1218   18.0491 H         1 6LA         0.0467
     23 H2        -21.4827  -13.4313   17.5909 H         1 6LA         0.0467
     24 H3        -22.0133  -11.7161   17.5320 H         1 6LA         0.0467
     25 H4        -18.8400  -11.8622   16.5730 H         1 6LA         0.1857
     26 H5        -19.6537  -12.1960   13.7314 H         1 6LA         0.0633
     27 H6        -18.0894  -10.4228   13.1078 H         1 6LA         0.0645
     28 H7        -20.1882   -9.7016   13.6596 H         1 6LA         0.2100
     29 H8        -17.6700  -10.0336   16.1267 H         1 6LA         0.0649
     30 H9        -14.3233   -6.6997   15.6785 H         1 6LA         0.0274
     31 H10       -15.9275   -6.3201   14.9650 H         1 6LA         0.0274
     32 H11       -14.7264   -7.2665   14.0224 H         1 6LA         0.0274
     33 H12       -15.3765  -10.7792   16.9849 H         1 6LA         0.0586
     34 H13       -14.1980  -11.3585   15.7594 H         1 6LA         0.0586
     35 H14       -15.8718  -11.0650   13.9414 H         1 6LA         0.0647
     36 H15       -17.2482  -12.6554   13.3275 H         1 6LA         0.0934
     37 H16       -17.3987  -16.0370   14.4738 H         1 6LA         0.0525
     38 H17       -16.1303  -14.8398   14.9031 H         1 6LA         0.0525
     39 H18       -16.7197  -14.9559   13.2103 H         1 6LA         0.0525
@<TRIPOS>BOND
     1    1    2 1  
     2    2    3 2  
     3    2    4 am 
     4    4    5 1  
     5    5    6 1  
     6    5   19 1  
     7    6    7 1  
     8    6    8 1  
     9    8    9 1  
    10    8   17 1  
    11    9   10 1  
    12   10   11 1  
    13   10   12 1  
    14   10   15 1  
    15   12   13 ar 
    16   12   14 ar 
    17   15   16 1  
    18   16   17 1  
    19   17   18 1  
    20   18   19 1  
    21   19   20 1  
    22   20   21 1  
    23    1   22 1  
    24    1   23 1  
    25    1   24 1  
    26    4   25 1  
    27    5   26 1  
    28    6   27 1  
    29    7   28 1  
    30    8   29 1  
    31   11   30 1  
    32   11   31 1  
    33   11   32 1  
    34   16   33 1  
    35   16   34 1  
    36   17   35 1  
    37   19   36 1  
    38   21   37 1  
    39   21   38 1  
    40   21   39 1  
@<TRIPOS>SUBSTRUCTURE
     1 6LA         1

