### 
### Created by X-TOOL on Wed Jan  1 15:39:36 2020
### 

@<TRIPOS>MOLECULE
6cyb_ligand
   40    42     1     0     0
SMALL
GAST_HUCK


@<TRIPOS>ATOM
      1 C2         32.8130   -6.8650   14.3820 C.2       1 FKV         0.0147
      2 C3         29.7530   -4.9310   14.2680 C.3       1 FKV         0.1227
      3 C5         29.8160   -3.0610   16.0010 C.ar      1 FKV        -0.0253
      4 C7         30.7310   -0.8890   15.4780 C.ar      1 FKV         0.0385
      5 C9         30.6640   -2.6300   13.8090 C.ar      1 FKV        -0.0253
      6 C10        31.1480    0.4800   15.9130 C.3       1 FKV         0.3684
      7 C11        28.8250   -5.7450   15.1690 C.3       1 FKV        -0.0191
      8 C12        33.8590   -7.5860   15.1860 C.3       1 FKV         0.0775
      9 C13        34.9870   -6.7160   15.6020 C.3       1 FKV         0.3992
     10 C15        31.5620   -6.4790   10.5130 C.2       1 FKV         0.3248
     11 O1         34.3330   -8.1470   11.9230 O.2       1 FKV        -0.4077
     12 C14        33.2840   -7.4990   11.8560 C.2       1 FKV         0.1951
     13 C1         32.6110   -6.9010   12.9830 C.2       1 FKV         0.0893
     14 N2         32.6830   -7.2500   10.6230 N.am      1 FKV        -0.1867
     15 O          31.1160   -6.2670    9.3210 O.2       1 FKV        -0.3827
     16 N3         30.9310   -5.9250   11.5270 N.am      1 FKV        -0.1777
     17 C          31.4530   -6.1360   12.7460 C.2       1 FKV         0.2112
     18 N1         31.0140   -5.6910   13.9480 N.pl3     1 FKV        -0.1706
     19 N          31.8660   -6.1220   14.9470 N.2       1 FKV        -0.2451
     20 F5         35.5310   -6.0760   14.5860 F         1 FKV        -0.1688
     21 F4         35.9600   -7.4360   16.1560 F         1 FKV        -0.1688
     22 F3         34.6070   -5.7900   16.4970 F         1 FKV        -0.1688
     23 C4         30.0760   -3.5130   14.7100 C.ar      1 FKV         0.0219
     24 C8         30.9880   -1.3360   14.1880 C.ar      1 FKV        -0.0371
     25 F2         30.2930    1.3920   15.5930 F         1 FKV        -0.2274
     26 F1         31.2650    0.5720   17.2310 F         1 FKV        -0.2274
     27 F          32.3120    0.8720   15.3750 F         1 FKV        -0.2274
     28 C6         30.1300   -1.7630   16.3790 C.ar      1 FKV        -0.0371
     29 H1         29.2080   -4.8211   13.3189 H         1 FKV         0.0890
     30 H2         29.3620   -3.7323   16.7210 H         1 FKV         0.0653
     31 H3         30.8716   -2.9584   12.7970 H         1 FKV         0.0653
     32 H4         27.9169   -5.1620   15.3822 H         1 FKV         0.0290
     33 H5         29.3410   -5.9778   16.1121 H         1 FKV         0.0290
     34 H6         28.5491   -6.6809   14.6612 H         1 FKV         0.0290
     35 H7         34.2603   -8.4096   14.5772 H         1 FKV         0.0503
     36 H8         33.3833   -7.9957   16.0893 H         1 FKV         0.0503
     37 H9         33.0838   -7.6468    9.7972 H         1 FKV         0.2255
     38 H10        30.1058   -5.3756   11.3961 H         1 FKV         0.2398
     39 H11        31.4468   -0.6660   13.4699 H         1 FKV         0.0836
     40 H12        29.9052   -1.4270   17.3848 H         1 FKV         0.0836
@<TRIPOS>BOND
     1    1    8 1  
     2   13    1 1  
     3    1   19 2  
     4    2    7 1  
     5   18    2 1  
     6    2   23 1  
     7   23    3 ar 
     8    3   28 ar 
     9    4    6 1  
    10   24    4 ar 
    11   28    4 ar 
    12   23    5 ar 
    13    5   24 ar 
    14    6   25 1  
    15    6   26 1  
    16    6   27 1  
    17    8    9 1  
    18    9   20 1  
    19    9   21 1  
    20    9   22 1  
    21   10   14 am 
    22   10   15 2  
    23   16   10 am 
    24   12   11 2  
    25   13   12 1  
    26   12   14 am 
    27   17   13 2  
    28   17   16 1  
    29   17   18 1  
    30   18   19 1  
    31    2   29 1  
    32    3   30 1  
    33    5   31 1  
    34    7   32 1  
    35    7   33 1  
    36    7   34 1  
    37    8   35 1  
    38    8   36 1  
    39   14   37 1  
    40   16   38 1  
    41   24   39 1  
    42   28   40 1  
@<TRIPOS>SUBSTRUCTURE
     1 FKV         1

