### 
### Created by X-TOOL on Wed Jan  1 15:39:36 2020
### 

@<TRIPOS>MOLECULE
6cyc_ligand
   38    40     1     0     0
SMALL
GAST_HUCK


@<TRIPOS>ATOM
      1 C2         32.9690   -6.7090   14.4980 C.2       1 FKJ         0.0314
      2 C3         29.8200   -4.9330   14.2680 C.3       1 FKJ         0.1227
      3 C5         29.8640   -3.0670   15.9930 C.ar      1 FKJ        -0.0253
      4 C7         30.7460   -0.8870   15.4800 C.ar      1 FKJ         0.0385
      5 C9         30.6760   -2.6100   13.7960 C.ar      1 FKJ        -0.0253
      6 C10        31.1140    0.4920   15.9120 C.3       1 FKJ         0.3684
      7 C11        28.9350   -5.7280   15.2240 C.3       1 FKJ        -0.0191
      8 C12        34.0540   -7.3930   15.2910 C.3       1 FKJ         0.0789
      9 C13        33.4330   -7.4740   11.9800 C.2       1 FKJ         0.1951
     10 O2         34.4920   -8.0850   12.0590 O.2       1 FKJ        -0.4077
     11 C1         32.7690   -6.8410   13.0970 C.2       1 FKJ         0.0912
     12 N2         32.8030   -7.3310   10.7430 N.am      1 FKJ        -0.1867
     13 C14        31.6580   -6.6120   10.5930 C.2       1 FKJ         0.3248
     14 O1         31.2160   -6.4710    9.3870 O.2       1 FKJ        -0.3827
     15 N3         31.0280   -6.0210   11.5880 N.am      1 FKJ        -0.1777
     16 C          31.5680   -6.1380   12.8150 C.2       1 FKJ         0.2112
     17 N1         31.1110   -5.6400   13.9880 N.pl3     1 FKJ        -0.1706
     18 N          31.9820   -5.9730   15.0150 N.2       1 FKJ        -0.2432
     19 O          35.2790   -6.6810   15.2580 O.3       1 FKJ        -0.3833
     20 C4         30.1140   -3.5060   14.6970 C.ar      1 FKJ         0.0219
     21 C8         31.0010   -1.3230   14.1860 C.ar      1 FKJ        -0.0371
     22 F2         31.2390    0.5950   17.2040 F         1 FKJ        -0.2274
     23 F1         30.2260    1.3770   15.5940 F         1 FKJ        -0.2274
     24 F          32.2360    0.9060   15.3900 F         1 FKJ        -0.2274
     25 C6         30.1610   -1.7730   16.3770 C.ar      1 FKJ        -0.0371
     26 H1         29.2676   -4.8701   13.3189 H         1 FKJ         0.0890
     27 H2         29.4293   -3.7507   16.7132 H         1 FKJ         0.0653
     28 H3         30.8621   -2.9232   12.7750 H         1 FKJ         0.0653
     29 H4         28.0003   -5.1763   15.4029 H         1 FKJ         0.0290
     30 H5         29.4634   -5.8732   16.1778 H         1 FKJ         0.0290
     31 H6         28.7033   -6.7075   14.7804 H         1 FKJ         0.0290
     32 H7         34.2178   -8.3970   14.8724 H         1 FKJ         0.0711
     33 H8         33.7249   -7.4810   16.3369 H         1 FKJ         0.0711
     34 H9         33.2063   -7.7714    9.9409 H         1 FKJ         0.2255
     35 H10        30.1836   -5.5068   11.4376 H         1 FKJ         0.2398
     36 H11        35.9294   -7.1482   15.7691 H         1 FKJ         0.2124
     37 H12        31.4599   -0.6471   13.4736 H         1 FKJ         0.0836
     38 H13        29.9359   -1.4465   17.3858 H         1 FKJ         0.0836
@<TRIPOS>BOND
     1    1    8 1  
     2   11    1 1  
     3    1   18 2  
     4    2    7 1  
     5   17    2 1  
     6    2   20 1  
     7   20    3 ar 
     8    3   25 ar 
     9    4    6 1  
    10   21    4 ar 
    11   25    4 ar 
    12   20    5 ar 
    13    5   21 ar 
    14    6   22 1  
    15    6   23 1  
    16    6   24 1  
    17    8   19 1  
    18    9   10 2  
    19   11    9 1  
    20    9   12 am 
    21   16   11 2  
    22   13   12 am 
    23   13   14 2  
    24   15   13 am 
    25   16   15 1  
    26   16   17 1  
    27   17   18 1  
    28    2   26 1  
    29    3   27 1  
    30    5   28 1  
    31    7   29 1  
    32    7   30 1  
    33    7   31 1  
    34    8   32 1  
    35    8   33 1  
    36   12   34 1  
    37   15   35 1  
    38   19   36 1  
    39   21   37 1  
    40   25   38 1  
@<TRIPOS>SUBSTRUCTURE
     1 FKJ         1

