### 
### Created by X-TOOL on Wed Jan  1 15:39:36 2020
### 

@<TRIPOS>MOLECULE
6cyd_ligand
   40    42     1     0     0
SMALL
GAST_HUCK


@<TRIPOS>ATOM
      1 C2         33.4630   -7.1900   14.0940 C.2       1 FKG         0.0422
      2 C3         30.3490   -5.5350   13.5910 C.3       1 FKG         0.1216
      3 C5         30.9670   -3.1560   13.0390 C.ar      1 FKG        -0.0253
      4 C7         31.0090   -1.3980   14.6880 C.ar      1 FKG         0.0385
      5 C9         30.3720   -3.6440   15.2980 C.ar      1 FKG        -0.0253
      6 C10        31.3040    0.0150   15.0640 C.3       1 FKG         0.3684
      7 C11        29.4010   -6.3630   14.4590 C.3       1 FKG        -0.0188
      8 C12        34.5690   -7.7430   14.9270 C.3       1 FKG         0.0814
      9 C13        34.0240   -8.1780   11.6410 C.2       1 FKG         0.2111
     10 C15        31.7170   -7.4740    8.7900 C.3       1 FKG         0.0278
     11 O1         35.0540   -8.8290   11.7610 O.2       1 FKG        -0.4069
     12 C1         33.3590   -7.4530   12.6940 C.2       1 FKG         0.0783
     13 N2         33.4020   -8.1070   10.4080 N.am      1 FKG        -0.1986
     14 C14        32.2650   -7.4220   10.1730 C.2       1 FKG         0.1445
     15 N3         31.6000   -6.7230   11.0990 N.2       1 FKG        -0.2742
     16 C          32.1710   -6.7810   12.3220 C.2       1 FKG         0.1296
     17 N1         31.6610   -6.2190   13.4460 N.pl3     1 FKG        -0.1879
     18 N          32.4590   -6.4560   14.5380 N.2       1 FKG        -0.2316
     19 O          35.6860   -6.8720   14.9790 O.3       1 FKG        -0.3831
     20 C4         30.5670   -4.0840   13.9920 C.ar      1 FKG         0.0221
     21 C8         30.5850   -2.3170   15.6410 C.ar      1 FKG        -0.0371
     22 F2         30.3550    0.8390   14.7090 F         1 FKG        -0.2274
     23 F1         31.5000    0.1920   16.3630 F         1 FKG        -0.2274
     24 F          32.3660    0.4640   14.4870 F         1 FKG        -0.2274
     25 C6         31.1850   -1.8310   13.3800 C.ar      1 FKG        -0.0371
     26 H1         29.8876   -5.5046   12.5929 H         1 FKG         0.0893
     27 H2         31.1108   -3.4734   12.0125 H         1 FKG         0.0653
     28 H3         30.0495   -4.3476   16.0570 H         1 FKG         0.0653
     29 H4         28.4382   -5.8393   14.5529 H         1 FKG         0.0291
     30 H5         29.8428   -6.4997   15.4570 H         1 FKG         0.0291
     31 H6         29.2398   -7.3456   13.9916 H         1 FKG         0.0291
     32 H7         34.8889   -8.7043   14.4985 H         1 FKG         0.0712
     33 H8         34.1966   -7.9031   15.9496 H         1 FKG         0.0712
     34 H9         32.3775   -8.0844    8.1566 H         1 FKG         0.0531
     35 H10        31.6563   -6.4547    8.3810 H         1 FKG         0.0531
     36 H11        30.7123   -7.9214    8.8102 H         1 FKG         0.0531
     37 H12        33.8221   -8.5945    9.6425 H         1 FKG         0.2541
     38 H13        36.3648   -7.2612   15.5178 H         1 FKG         0.2124
     39 H14        30.4192   -1.9934   16.6622 H         1 FKG         0.0836
     40 H15        31.4960   -1.1251   12.6184 H         1 FKG         0.0836
@<TRIPOS>BOND
     1    1    8 1  
     2   12    1 1  
     3    1   18 2  
     4    2    7 1  
     5   17    2 1  
     6    2   20 1  
     7   20    3 ar 
     8    3   25 ar 
     9    4    6 1  
    10   21    4 ar 
    11   25    4 ar 
    12   20    5 ar 
    13    5   21 ar 
    14    6   22 1  
    15    6   23 1  
    16    6   24 1  
    17    8   19 1  
    18    9   11 2  
    19   12    9 1  
    20    9   13 am 
    21   14   10 1  
    22   16   12 2  
    23   14   13 1  
    24   15   14 2  
    25   16   15 1  
    26   16   17 1  
    27   17   18 1  
    28    2   26 1  
    29    3   27 1  
    30    5   28 1  
    31    7   29 1  
    32    7   30 1  
    33    7   31 1  
    34    8   32 1  
    35    8   33 1  
    36   10   34 1  
    37   10   35 1  
    38   10   36 1  
    39   13   37 1  
    40   19   38 1  
    41   21   39 1  
    42   25   40 1  
@<TRIPOS>SUBSTRUCTURE
     1 FKG         1

