### 
### Created by X-TOOL on Mon Aug  2 16:12:50 2021
### 

@<TRIPOS>MOLECULE
6cyg_ligand
   39    41     1     0     0
SMALL
GAST_HUCK


@<TRIPOS>ATOM
      1 O53        -6.3390  124.9580   47.4540 O.3       1 N5O        -0.3930
      2 C52        -5.1840  124.4800   46.7580 C.3       1 N5O         0.0643
      3 C51        -4.5210  123.4350   47.6020 C.3       1 N5O         0.0541
      4 N5'        -3.9180  124.0800   48.8040 N.am      1 N5O        -0.2826
      5 C5'        -2.5590  124.4970   48.7360 C.2       1 N5O         0.2081
      6 O5'        -1.9330  124.3150   47.7320 O.2       1 N5O        -0.3941
      7 C4'        -1.9200  125.0960   49.9030 C.3       1 N5O         0.1788
      8 O4'        -1.0870  124.0470   50.6010 O.3       1 N5O        -0.3181
      9 C3'        -0.8960  126.2560   49.5960 C.3       1 N5O         0.1295
     10 O3'        -1.6080  127.6050   49.5560 O.3       1 N5O        -0.3840
     11 C2'        -0.0920  126.1850   50.5280 C.3       1 N5O         0.1408
     12 O2'        -0.5850  126.9020   51.7410 O.3       1 N5O        -0.3834
     13 C1'         0.0350  124.5870   50.8840 C.3       1 N5O         0.2035
     14 N9          1.1070  124.0350   50.1120 N.pl3     1 N5O        -0.1918
     15 C8          1.0320  123.5250   48.8500 C.2       1 N5O         0.1123
     16 N7          2.2660  123.1380   48.4780 N.2       1 N5O        -0.2958
     17 C5          3.1380  123.4080   49.5120 C.ar      1 N5O         0.1045
     18 C4          2.4060  123.9760   50.5390 C.ar      1 N5O         0.1613
     19 N3          3.0340  124.3440   51.7120 N.ar      1 N5O        -0.2714
     20 C2          4.3460  124.1470   51.8680 C.ar      1 N5O         0.0533
     21 N1          5.0790  123.5890   50.8600 N.ar      1 N5O        -0.2698
     22 C6          4.5120  123.2060   49.7000 C.ar      1 N5O         0.1298
     23 N6          5.3290  122.6620   48.6890 N.pl3     1 N5O        -0.3152
     24 H1         -6.0737  125.3321   48.2860 H         1 N5O         0.2095
     25 H2         -4.4864  125.3119   46.5810 H         1 N5O         0.0577
     26 H3         -5.4854  124.0429   45.7946 H         1 N5O         0.0577
     27 H4         -3.7328  122.9371   47.0182 H         1 N5O         0.0542
     28 H5         -5.2671  122.6917   47.9196 H         1 N5O         0.0542
     29 H6         -4.4550  124.2160   49.6366 H         1 N5O         0.1852
     30 H7         -2.7069  125.4741   50.5721 H         1 N5O         0.0869
     31 H8         -0.3890  126.0865   48.6347 H         1 N5O         0.0673
     32 H9         -2.0180  127.7705   50.3968 H         1 N5O         0.2102
     33 H10         0.8810  126.5979   50.2234 H         1 N5O         0.0678
     34 H11        -0.7205  127.8188   51.5323 H         1 N5O         0.2101
     35 H12         0.2497  124.4506   51.9542 H         1 N5O         0.0998
     36 H13         0.1289  123.4446   48.2467 H         1 N5O         0.1349
     37 H14         4.8294  124.4305   52.7959 H         1 N5O         0.0996
     38 H15         6.3359  122.5258   48.8581 H         1 N5O         0.1820
     39 H16         4.9193  122.4005   47.7809 H         1 N5O         0.1820
@<TRIPOS>BOND
     1    1    2 1  
     2    2    3 1  
     3    3    4 1  
     4    4    5 am 
     5    5    6 2  
     6    5    7 1  
     7    7    8 1  
     8    7    9 1  
     9    8   13 1  
    10    9   10 1  
    11    9   11 1  
    12   11   12 1  
    13   11   13 1  
    14   13   14 1  
    15   14   15 1  
    16   14   18 1  
    17   15   16 2  
    18   16   17 1  
    19   17   18 ar 
    20   17   22 ar 
    21   18   19 ar 
    22   19   20 ar 
    23   20   21 ar 
    24   21   22 ar 
    25   22   23 1  
    26    1   24 1  
    27    2   25 1  
    28    2   26 1  
    29    3   27 1  
    30    3   28 1  
    31    4   29 1  
    32    7   30 1  
    33    9   31 1  
    34   10   32 1  
    35   11   33 1  
    36   12   34 1  
    37   13   35 1  
    38   15   36 1  
    39   20   37 1  
    40   23   38 1  
    41   23   39 1  
@<TRIPOS>SUBSTRUCTURE
     1 N5O         1

