### 
### Created by X-TOOL on Mon Aug  2 16:12:50 2021
### 

@<TRIPOS>MOLECULE
6cyh_ligand
   41    43     1     0     0
SMALL
GAST_HUCK


@<TRIPOS>ATOM
      1 N53        57.7510  211.8830   48.9900 N.4       1 N5A         0.2200
      2 C52        57.8930  213.0170   48.1580 C.3       1 N5A        -0.0148
      3 C51        59.3040  213.0480   47.4780 C.3       1 N5A         0.0708
      4 N5'        60.2250  213.5470   48.4470 N.am      1 N5A        -0.2796
      5 C5'        61.5560  213.0180   48.6060 C.2       1 N5A         0.2082
      6 O5'        61.9280  212.0640   47.8810 O.2       1 N5A        -0.3941
      7 C4'        62.3680  213.6130   49.6400 C.3       1 N5A         0.1788
      8 O4'        63.1730  212.3480   50.3530 O.3       1 N5A        -0.3181
      9 C3'        63.3430  214.4230   49.2160 C.3       1 N5A         0.1295
     10 O3'        62.8840  215.7950   49.0710 O.3       1 N5A        -0.3840
     11 C2'        64.3460  214.3340   50.4140 C.3       1 N5A         0.1408
     12 O2'        63.9050  215.0620   51.4740 O.3       1 N5A        -0.3834
     13 C1'        64.3310  212.7970   50.7600 C.3       1 N5A         0.2035
     14 N9         65.4160  212.1660   50.0070 N.pl3     1 N5A        -0.1918
     15 C8         65.3490  211.5110   48.8090 C.2       1 N5A         0.1123
     16 N7         66.5970  211.1040   48.4530 N.2       1 N5A        -0.2958
     17 C5         67.4730  211.4980   49.4470 C.ar      1 N5A         0.1045
     18 C4         66.7230  212.1700   50.4110 C.ar      1 N5A         0.1613
     19 N3         67.3200  212.7030   51.5650 N.ar      1 N5A        -0.2714
     20 C2         68.6200  212.5650   51.7270 C.ar      1 N5A         0.0533
     21 N1         69.3880  211.9140   50.7940 N.ar      1 N5A        -0.2698
     22 C6         68.8510  211.3840   49.6560 C.ar      1 N5A         0.1298
     23 N6         69.7300  210.7160   48.6960 N.pl3     1 N5A        -0.3152
     24 H1         56.8361  211.8892   49.4131 H         1 N5A         0.1995
     25 H2         58.4549  211.9051   49.7112 H         1 N5A         0.1995
     26 H3         57.8606  211.0461   48.4390 H         1 N5A         0.1995
     27 H4         57.7675  213.9255   48.7653 H         1 N5A         0.0833
     28 H5         57.1190  212.9881   47.3770 H         1 N5A         0.0833
     29 H6         59.2852  213.7096   46.5994 H         1 N5A         0.0573
     30 H7         59.5956  212.0339   47.1672 H         1 N5A         0.0573
     31 H8         59.9341  214.2965   49.0417 H         1 N5A         0.1853
     32 H9         61.7236  214.1462   50.3545 H         1 N5A         0.0869
     33 H10        63.7860  214.0701   48.2730 H         1 N5A         0.0673
     34 H11        62.5750  216.1148   49.9105 H         1 N5A         0.2102
     35 H12        65.3511  214.6718   50.1214 H         1 N5A         0.0678
     36 H13        64.5294  214.9921   52.1865 H         1 N5A         0.2101
     37 H14        64.4598  212.6264   51.8390 H         1 N5A         0.0998
     38 H15        64.4412  211.3420   48.2317 H         1 N5A         0.1349
     39 H16        69.0919  212.9731   52.6135 H         1 N5A         0.0996
     40 H17        70.7409  210.6504   48.8824 H         1 N5A         0.1820
     41 H18        69.3380  210.3113   47.8338 H         1 N5A         0.1820
@<TRIPOS>BOND
     1    1    2 1  
     2    2    3 1  
     3    3    4 1  
     4    4    5 am 
     5    5    6 2  
     6    5    7 1  
     7    7    8 1  
     8    7    9 1  
     9    8   13 1  
    10    9   10 1  
    11    9   11 1  
    12   11   12 1  
    13   11   13 1  
    14   13   14 1  
    15   14   15 1  
    16   14   18 1  
    17   15   16 2  
    18   16   17 1  
    19   17   18 ar 
    20   17   22 ar 
    21   18   19 ar 
    22   19   20 ar 
    23   20   21 ar 
    24   21   22 ar 
    25   22   23 1  
    26    1   24 1  
    27    1   25 1  
    28    1   26 1  
    29    2   27 1  
    30    2   28 1  
    31    3   29 1  
    32    3   30 1  
    33    4   31 1  
    34    7   32 1  
    35    9   33 1  
    36   10   34 1  
    37   11   35 1  
    38   12   36 1  
    39   13   37 1  
    40   15   38 1  
    41   20   39 1  
    42   23   40 1  
    43   23   41 1  
@<TRIPOS>SUBSTRUCTURE
     1 N5A         1

