### 
### Created by X-TOOL on Mon Aug  2 16:12:50 2021
### 

@<TRIPOS>MOLECULE
6cyi_ligand
   39    41     1     0     0
SMALL
GAST_HUCK


@<TRIPOS>ATOM
      1 O53        17.7330   38.8340  -10.9680 O.3       1 N5O        -0.3930
      2 C52        16.7890   38.3410  -10.0750 C.3       1 N5O         0.0643
      3 C51        17.4990   37.7570   -8.8410 C.3       1 N5O         0.0541
      4 N5'        18.5920   36.9840   -9.2650 N.am      1 N5O        -0.2826
      5 C5'        18.3990   35.5300   -9.4760 C.2       1 N5O         0.2081
      6 O5'        17.2720   34.9920   -9.2630 O.2       1 N5O        -0.3941
      7 C4'        19.5610   34.6870   -9.9220 C.3       1 N5O         0.1788
      8 O4'        19.9410   33.9760   -8.8720 O.3       1 N5O        -0.3181
      9 C3'        19.0010   33.6820  -10.9090 C.3       1 N5O         0.1295
     10 O3'        19.1580   34.1090  -12.1820 O.3       1 N5O        -0.3840
     11 C2'        19.8970   32.4400  -10.6320 C.3       1 N5O         0.1408
     12 O2'        21.1060   32.5680  -11.5080 O.3       1 N5O        -0.3834
     13 C1'        20.1690   32.4580   -9.3840 C.3       1 N5O         0.2035
     14 N9         19.2230   31.6560   -8.7190 N.pl3     1 N5O        -0.1918
     15 C8         18.0060   32.0060   -8.2260 C.2       1 N5O         0.1123
     16 N7         17.4350   30.9020   -7.6710 N.2       1 N5O        -0.2958
     17 C5         18.2990   29.8730   -7.8440 C.ar      1 N5O         0.1045
     18 C4         19.4000   30.3240   -8.4850 C.ar      1 N5O         0.1613
     19 N3         20.4290   29.4730   -8.7760 N.ar      1 N5O        -0.2714
     20 C2         20.3360   28.1710   -8.4150 C.ar      1 N5O         0.0533
     21 N1         19.2150   27.7040   -7.7560 N.ar      1 N5O        -0.2698
     22 C6         18.2070   28.5620   -7.4860 C.ar      1 N5O         0.1298
     23 N6         17.3250   27.6780   -6.8770 N.pl3     1 N5O        -0.3152
     24 H1         18.3091   38.1290  -11.2394 H         1 N5O         0.2095
     25 H2         16.1989   37.5524  -10.5648 H         1 N5O         0.0577
     26 H3         16.1215   39.1569   -9.7609 H         1 N5O         0.0577
     27 H4         16.7975   37.1251   -8.2766 H         1 N5O         0.0542
     28 H5         17.8539   38.5758   -8.1979 H         1 N5O         0.0542
     29 H6         19.4844   37.4071   -9.4217 H         1 N5O         0.1852
     30 H7         20.3792   35.2882  -10.3451 H         1 N5O         0.0869
     31 H8         17.9393   33.4702  -10.7142 H         1 N5O         0.0673
     32 H9         20.0829   34.2296  -12.3626 H         1 N5O         0.2102
     33 H10        19.3636   31.5101  -10.8783 H         1 N5O         0.0678
     34 H11        21.6791   31.8238  -11.3656 H         1 N5O         0.2101
     35 H12        21.1957   32.1135   -9.1910 H         1 N5O         0.0998
     36 H13        17.5631   33.0000   -8.2678 H         1 N5O         0.1349
     37 H14        21.1474   27.4899   -8.6449 H         1 N5O         0.0996
     38 H15        17.5880   26.6895   -6.7561 H         1 N5O         0.1820
     39 H16        16.4081   28.0111   -6.5464 H         1 N5O         0.1820
@<TRIPOS>BOND
     1    1    2 1  
     2    2    3 1  
     3    3    4 1  
     4    4    5 am 
     5    5    6 2  
     6    5    7 1  
     7    7    8 1  
     8    7    9 1  
     9    8   13 1  
    10    9   10 1  
    11    9   11 1  
    12   11   12 1  
    13   11   13 1  
    14   13   14 1  
    15   14   15 1  
    16   14   18 1  
    17   15   16 2  
    18   16   17 1  
    19   17   18 ar 
    20   17   22 ar 
    21   18   19 ar 
    22   19   20 ar 
    23   20   21 ar 
    24   21   22 ar 
    25   22   23 1  
    26    1   24 1  
    27    2   25 1  
    28    2   26 1  
    29    3   27 1  
    30    3   28 1  
    31    4   29 1  
    32    7   30 1  
    33    9   31 1  
    34   10   32 1  
    35   11   33 1  
    36   12   34 1  
    37   13   35 1  
    38   15   36 1  
    39   20   37 1  
    40   23   38 1  
    41   23   39 1  
@<TRIPOS>SUBSTRUCTURE
     1 N5O         1

