### 
### Created by X-TOOL on Wed Jan  1 15:39:36 2020
### 

@<TRIPOS>MOLECULE
6czi_ligand
   28    29     1     0     0
SMALL
GAST_HUCK


@<TRIPOS>ATOM
      1 F1         -6.9200   17.2630   -7.6690 F         1 38E        -0.1907
      2 C2         -6.4270   16.0830   -7.2710 C.ar      1 38E         0.1597
      3 C1         -5.1340   16.0430   -6.7980 C.ar      1 38E         0.1572
      4 O1         -4.3900   17.1690   -6.7420 O.3       1 38E        -0.3313
      5 C3         -7.1900   14.9320   -7.3350 C.ar      1 38E        -0.0335
      6 C4         -6.6650   13.7180   -6.8800 C.ar      1 38E        -0.0417
      7 C5         -5.3490   13.6800   -6.4260 C.ar      1 38E        -0.0335
      8 C          -4.6060   14.8390   -6.3810 C.ar      1 38E         0.1597
      9 F          -3.3530   14.8270   -5.9200 F         1 38E        -0.1907
     10 C6         -7.3630   12.4510   -6.9410 C.2       1 38E        -0.0503
     11 C7         -8.5960   12.2330   -7.5190 C.2       1 38E         0.0675
     12 C9         -9.1800   10.8780   -7.6090 C.2       1 38E         0.2481
     13 O          -8.6980    9.8400   -7.2040 O.2       1 38E        -0.3648
     14 N1        -10.3610   11.0390   -8.2200 N.am      1 38E        -0.1891
     15 C10       -11.3030    9.9690   -8.5200 C.3       1 38E         0.0557
     16 C8        -10.5390   12.3710   -8.4840 C.2       1 38E         0.1298
     17 N          -9.5200   13.0870   -8.0880 N.2       1 38E        -0.3149
     18 C11       -11.7950   12.8740   -9.1520 C.3       1 38E         0.0225
     19 H1         -4.3002   17.5316   -7.6155 H         1 38E         0.2470
     20 H2         -8.1956   14.9703   -7.7380 H         1 38E         0.0543
     21 H3         -4.9105   12.7408   -6.1088 H         1 38E         0.0543
     22 H4         -6.8694   11.5918   -6.4893 H         1 38E         0.0561
     23 H5        -10.8822    9.0072   -8.1914 H         1 38E         0.0577
     24 H6        -11.4885    9.9369   -9.6038 H         1 38E         0.0577
     25 H7        -12.2495   10.1548   -7.9913 H         1 38E         0.0577
     26 H8        -11.7353   13.9660   -9.2701 H         1 38E         0.0518
     27 H9        -12.6672   12.6194   -8.5320 H         1 38E         0.0518
     28 H10       -11.8981   12.4034  -10.1409 H         1 38E         0.0518
@<TRIPOS>BOND
     1    1    2 1  
     2    2    3 ar 
     3    2    5 ar 
     4    3    4 1  
     5    3    8 ar 
     6    5    6 ar 
     7    6    7 ar 
     8    6   10 1  
     9    7    8 ar 
    10    8    9 1  
    11   10   11 2  
    12   11   12 1  
    13   11   17 1  
    14   12   13 2  
    15   12   14 am 
    16   14   15 1  
    17   14   16 1  
    18   16   17 2  
    19   16   18 1  
    20    4   19 1  
    21    5   20 1  
    22    7   21 1  
    23   10   22 1  
    24   15   23 1  
    25   15   24 1  
    26   15   25 1  
    27   18   26 1  
    28   18   27 1  
    29   18   28 1  
@<TRIPOS>SUBSTRUCTURE
     1 38E         1

