### 
### Created by X-TOOL on Wed Jan  1 15:39:35 2020
### 

@<TRIPOS>MOLECULE
6czu_ligand
   44    46     1     0     0
SMALL
GAST_HUCK


@<TRIPOS>ATOM
      1 C1        -10.6710    0.8470    6.3570 C.ar      1 FP7        -0.0643
      2 C2        -11.8380    0.3150    6.8310 C.ar      1 FP7        -0.0639
      3 C3        -12.4770   -0.7220    6.1830 C.ar      1 FP7        -0.0172
      4 C4        -11.8880   -1.2340    5.0610 C.ar      1 FP7        -0.0639
      5 C5        -10.7040   -0.6940    4.5510 C.ar      1 FP7        -0.0643
      6 C6        -13.7810   -1.3400    6.5890 C.3       1 FP7         0.0996
      7 C7        -13.2190   -3.0200    8.2960 C.2       1 FP7         0.0679
      8 C12       -12.5340   -4.7650    9.9050 C.2       1 FP7         0.0018
      9 O         -14.7320    0.1160    8.7120 O.2       1 FP7        -0.4227
     10 C11       -14.2120   -1.0230    9.0040 C.2       1 FP7         0.1984
     11 N         -13.7360   -1.8510    7.9950 N.am      1 FP7        -0.2015
     12 C         -10.0840    0.3270    5.1750 C.ar      1 FP7        -0.0217
     13 C17        -8.7310    0.8490    4.7040 C.3       1 FP7         0.0832
     14 O2         -8.7570    0.9300    3.2330 O.3       1 FP7        -0.3807
     15 C18        -7.3930    0.0800    5.1810 C.3       1 FP7        -0.0298
     16 C10       -14.0480   -1.4480   10.3190 C.2       1 FP7        -0.0133
     17 C9        -13.5500   -2.6860   10.6480 C.2       1 FP7        -0.0726
     18 C8        -13.1040   -3.4770    9.6070 C.2       1 FP7        -0.0146
     19 C15       -11.4190   -5.1880   10.7580 C.2       1 FP7         0.0156
     20 C16       -10.6030   -4.2650   11.5930 C.3       1 FP7        -0.0287
     21 N1        -11.2480   -6.5050   10.6910 N.2       1 FP7        -0.1728
     22 O1        -12.1790   -7.0650    9.8120 O.3       1 FP7        -0.1837
     23 C13       -12.9390   -6.0400    9.3290 C.2       1 FP7         0.1313
     24 C14       -14.0070   -6.3820    8.3580 C.3       1 FP7         0.0063
     25 H1        -10.1947    1.6657    6.8842 H         1 FP7         0.0541
     26 H2        -12.2721    0.7182    7.7388 H         1 FP7         0.0541
     27 H3        -12.3484   -2.0758    4.5565 H         1 FP7         0.0541
     28 H4        -10.2787   -1.1020    3.6412 H         1 FP7         0.0541
     29 H5        -14.0049   -2.1776    5.9121 H         1 FP7         0.0795
     30 H6        -14.5747   -0.5825    6.5101 H         1 FP7         0.0795
     31 H7        -12.8656   -3.6584    7.4876 H         1 FP7         0.1170
     32 H8         -8.6451    1.8724    5.0980 H         1 FP7         0.0741
     33 H9         -9.4488    1.5219    2.9617 H         1 FP7         0.2128
     34 H10        -6.5108    0.5811    4.7560 H         1 FP7         0.0275
     35 H11        -7.4255   -0.9629    4.8327 H         1 FP7         0.0275
     36 H12        -7.3314    0.0981    6.2791 H         1 FP7         0.0275
     37 H13       -14.3268   -0.7691   11.1235 H         1 FP7         0.0415
     38 H14       -13.5089   -3.0275   11.6813 H         1 FP7         0.0637
     39 H15        -9.8354   -4.8399   12.1318 H         1 FP7         0.0374
     40 H16       -11.2539   -3.7537   12.3175 H         1 FP7         0.0374
     41 H17       -10.1166   -3.5193   10.9470 H         1 FP7         0.0374
     42 H18       -13.9977   -7.4657    8.1693 H         1 FP7         0.0442
     43 H19       -13.8310   -5.8441    7.4148 H         1 FP7         0.0442
     44 H20       -14.9843   -6.0900    8.7698 H         1 FP7         0.0442
@<TRIPOS>BOND
     1    2    1 ar 
     2    1   12 ar 
     3    3    2 ar 
     4    3    4 ar 
     5    6    3 1  
     6    4    5 ar 
     7    5   12 ar 
     8   11    6 1  
     9   11    7 1  
    10    7   18 2  
    11   18    8 1  
    12    8   19 1  
    13    8   23 2  
    14   10    9 2  
    15   10   11 am 
    16   10   16 1  
    17   12   13 1  
    18   13   14 1  
    19   13   15 1  
    20   16   17 2  
    21   17   18 1  
    22   19   20 1  
    23   19   21 2  
    24   21   22 1  
    25   22   23 1  
    26   23   24 1  
    27    1   25 1  
    28    2   26 1  
    29    4   27 1  
    30    5   28 1  
    31    6   29 1  
    32    6   30 1  
    33    7   31 1  
    34   13   32 1  
    35   14   33 1  
    36   15   34 1  
    37   15   35 1  
    38   15   36 1  
    39   16   37 1  
    40   17   38 1  
    41   20   39 1  
    42   20   40 1  
    43   20   41 1  
    44   24   42 1  
    45   24   43 1  
    46   24   44 1  
@<TRIPOS>SUBSTRUCTURE
     1 FP7         1

