### 
### Created by X-TOOL on Wed Jan  1 15:39:35 2020
### 

@<TRIPOS>MOLECULE
6czv_ligand
   39    41     1     0     0
SMALL
GAST_HUCK


@<TRIPOS>ATOM
      1 O2         -6.6380   -7.0920   -0.1030 O.3       1 FOY        -0.3153
      2 C15        -7.8560   -6.5860   -0.2490 C.2       1 FOY         0.1555
      3 N2         -8.6410   -6.5110    0.9010 N.pl3     1 FOY        -0.2529
      4 C8         -8.2420   -7.0320    2.2330 C.3       1 FOY         0.0751
      5 C9         -7.8940   -5.8700    3.1590 C.ar      1 FOY        -0.0178
      6 C10        -7.0290   -4.8690    2.7360 C.ar      1 FOY        -0.0581
      7 C11        -6.7240   -3.7700    3.5220 C.ar      1 FOY        -0.0685
      8 C12        -7.3010   -3.6810    4.7820 C.ar      1 FOY        -0.0687
      9 C13        -8.1980   -4.6660    5.1800 C.ar      1 FOY        -0.0685
     10 C14        -8.5150   -5.7460    4.3940 C.ar      1 FOY        -0.0581
     11 C7         -9.8540   -5.9490    0.7780 C.2       1 FOY         0.0065
     12 C6        -10.3110   -5.4760   -0.4350 C.2       1 FOY        -0.0602
     13 C17        -9.5270   -5.5460   -1.6090 C.3       1 FOY        -0.0440
     14 C16        -8.2710   -6.1160   -1.5280 C.2       1 FOY        -0.0713
     15 C5        -11.6630   -4.8590   -0.4820 C.2       1 FOY        -0.0007
     16 C2        -12.8240   -5.3450    0.0300 C.2       1 FOY         0.1339
     17 C1        -13.1240   -6.6170    0.7550 C.3       1 FOY         0.0074
     18 O1        -13.8350   -4.4440   -0.2230 O.3       1 FOY        -0.1819
     19 N1        -13.3040   -3.3680   -0.8740 N.2       1 FOY        -0.1712
     20 C3        -12.0020   -3.5650   -1.0630 C.2       1 FOY         0.0176
     21 C4        -11.0790   -2.6530   -1.7620 C.3       1 FOY        -0.0281
     22 H1         -6.1950   -7.0957   -0.9434 H         1 FOY         0.2512
     23 H2         -7.3644   -7.6857    2.1216 H         1 FOY         0.0722
     24 H3         -9.0747   -7.6065    2.6649 H         1 FOY         0.0722
     25 H4         -6.5759   -4.9508    1.7546 H         1 FOY         0.0557
     26 H5         -6.0520   -2.9990    3.1627 H         1 FOY         0.0599
     27 H6         -7.0564   -2.8580    5.4437 H         1 FOY         0.0559
     28 H7         -8.6674   -4.5773    6.1531 H         1 FOY         0.0599
     29 H8         -9.2336   -6.4847    4.7301 H         1 FOY         0.0557
     30 H9        -10.4923   -5.8644    1.6563 H         1 FOY         0.0700
     31 H10        -9.3939   -4.5165   -1.9729 H         1 FOY         0.0339
     32 H11       -10.0997   -6.1251   -2.3483 H         1 FOY         0.0339
     33 H12        -7.6275   -6.2020   -2.4023 H         1 FOY         0.0019
     34 H13       -14.1931   -6.6493    1.0118 H         1 FOY         0.0447
     35 H14       -12.5242   -6.6645    1.6758 H         1 FOY         0.0447
     36 H15       -12.8756   -7.4735    0.1110 H         1 FOY         0.0447
     37 H16       -11.6262   -1.7558   -2.0870 H         1 FOY         0.0375
     38 H17       -10.6553   -3.1622   -2.6401 H         1 FOY         0.0375
     39 H18       -10.2667   -2.3602   -1.0805 H         1 FOY         0.0375
@<TRIPOS>BOND
     1    1    2 1  
     2    2    3 1  
     3    2   14 2  
     4    3    4 1  
     5    3   11 1  
     6    4    5 1  
     7    5    6 ar 
     8    5   10 ar 
     9    6    7 ar 
    10    7    8 ar 
    11    8    9 ar 
    12    9   10 ar 
    13   11   12 2  
    14   12   13 1  
    15   12   15 1  
    16   13   14 1  
    17   15   16 2  
    18   15   20 1  
    19   16   17 1  
    20   16   18 1  
    21   18   19 1  
    22   19   20 2  
    23   20   21 1  
    24    1   22 1  
    25    4   23 1  
    26    4   24 1  
    27    6   25 1  
    28    7   26 1  
    29    8   27 1  
    30    9   28 1  
    31   10   29 1  
    32   11   30 1  
    33   13   31 1  
    34   13   32 1  
    35   14   33 1  
    36   17   34 1  
    37   17   35 1  
    38   17   36 1  
    39   21   37 1  
    40   21   38 1  
    41   21   39 1  
@<TRIPOS>SUBSTRUCTURE
     1 FOY         1

