### 
### Created by X-TOOL on Mon Aug  2 16:12:53 2021
### 

@<TRIPOS>MOLECULE
6d1x_ligand
   41    43     1     0     0
SMALL
GAST_HUCK


@<TRIPOS>ATOM
      1 C5'        26.4620   14.5970   22.0710 C.2       1 PA7         0.2080
      2 O5'        27.5310   15.0920   22.4590 O.2       1 PA7        -0.3941
      3 N5'        26.2480   13.2800   22.0120 N.am      1 PA7        -0.2848
      4 C51        27.2620   12.3410   22.3900 C.3       1 PA7         0.0307
      5 C52        27.8780   11.7820   21.1040 C.3       1 PA7        -0.0356
      6 C53        26.8980   11.9380   19.9360 C.3       1 PA7        -0.0635
      7 C4'        25.3230   15.4540   21.6510 C.3       1 PA7         0.1788
      8 O4'        24.8400   16.1270   22.7800 O.3       1 PA7        -0.3181
      9 C3'        25.6560   16.4590   20.5720 C.3       1 PA7         0.1295
     10 O3'        25.4720   15.9350   19.2790 O.3       1 PA7        -0.3840
     11 C2'        24.6940   17.5560   20.9920 C.3       1 PA7         0.1408
     12 O2'        23.4600   17.2440   20.3320 O.3       1 PA7        -0.3834
     13 C1'        24.5420   17.4710   22.5500 C.3       1 PA7         0.2035
     14 N9         25.5130   18.3550   23.2160 N.pl3     1 PA7        -0.1918
     15 C8         26.7240   18.0980   23.8250 C.2       1 PA7         0.1123
     16 N7         27.2700   19.1890   24.3080 N.2       1 PA7        -0.2958
     17 C5         26.3470   20.1920   23.9910 C.ar      1 PA7         0.1045
     18 C6         26.2790   21.6050   24.2170 C.ar      1 PA7         0.1298
     19 N6         27.2600   22.2700   24.8260 N.pl3     1 PA7        -0.3152
     20 N1         25.1750   22.2820   23.7570 N.ar      1 PA7        -0.2698
     21 C2         24.1850   21.6420   23.1090 C.ar      1 PA7         0.0533
     22 N3         24.1130   20.3330   22.8380 N.ar      1 PA7        -0.2714
     23 C4         25.2510   19.6930   23.3210 C.ar      1 PA7         0.1613
     24 H1         25.3610   12.9420   21.6972 H         1 PA7         0.1851
     25 H2         26.8170   11.5249   22.9783 H         1 PA7         0.0520
     26 H3         28.0355   12.8448   22.9882 H         1 PA7         0.0520
     27 H4         28.1082   10.7157   21.2451 H         1 PA7         0.0282
     28 H5         28.8042   12.3301   20.8767 H         1 PA7         0.0282
     29 H6         27.3523   11.5331   19.0197 H         1 PA7         0.0230
     30 H7         26.6672   13.0037   19.7908 H         1 PA7         0.0230
     31 H8         25.9712   11.3892   20.1592 H         1 PA7         0.0230
     32 H9         24.5315   14.7967   21.2618 H         1 PA7         0.0869
     33 H10        26.6970   16.8052   20.6523 H         1 PA7         0.0673
     34 H11        24.5647   15.6752   19.1700 H         1 PA7         0.2102
     35 H12        25.0569   18.5510   20.6949 H         1 PA7         0.0678
     36 H13        23.5973   17.2395   19.3920 H         1 PA7         0.2101
     37 H14        23.5222   17.7233   22.8760 H         1 PA7         0.0998
     38 H15        27.1729   17.1084   23.8963 H         1 PA7         0.1349
     39 H16        27.1794   23.2863   24.9728 H         1 PA7         0.1820
     40 H17        28.0989   21.7678   25.1499 H         1 PA7         0.1820
     41 H18        23.3559   22.2522   22.7696 H         1 PA7         0.0996
@<TRIPOS>BOND
     1    1    2 2  
     2    1    3 am 
     3    1    7 1  
     4    3    4 1  
     5    4    5 1  
     6    5    6 1  
     7    7    8 1  
     8    7    9 1  
     9    8   13 1  
    10    9   10 1  
    11    9   11 1  
    12   11   12 1  
    13   11   13 1  
    14   13   14 1  
    15   14   15 1  
    16   14   23 1  
    17   15   16 2  
    18   16   17 1  
    19   17   18 ar 
    20   17   23 ar 
    21   18   19 1  
    22   18   20 ar 
    23   20   21 ar 
    24   21   22 ar 
    25   22   23 ar 
    26    3   24 1  
    27    4   25 1  
    28    4   26 1  
    29    5   27 1  
    30    5   28 1  
    31    6   29 1  
    32    6   30 1  
    33    6   31 1  
    34    7   32 1  
    35    9   33 1  
    36   10   34 1  
    37   11   35 1  
    38   12   36 1  
    39   13   37 1  
    40   15   38 1  
    41   19   39 1  
    42   19   40 1  
    43   21   41 1  
@<TRIPOS>SUBSTRUCTURE
     1 PA7         1

