### 
### Created by X-TOOL on Wed Jan  1 15:39:36 2020
### 

@<TRIPOS>MOLECULE
6d28_ligand
   38    40     1     0     0
SMALL
GAST_HUCK


@<TRIPOS>ATOM
      1 C5'        18.4420  -14.5850   53.5100 C.2       1 NEC         0.2080
      2 O5'        17.2920  -15.1490   53.9910 O.2       1 NEC        -0.3941
      3 N5'        18.5440  -13.1690   53.5040 N.am      1 NEC        -0.2850
      4 C51        17.4100  -12.4120   53.9620 C.3       1 NEC         0.0281
      5 C52        16.8570  -11.7890   52.6760 C.3       1 NEC        -0.0449
      6 C4'        19.5940  -15.4350   53.0830 C.3       1 NEC         0.1788
      7 O4'        19.9190  -16.1460   54.2550 O.3       1 NEC        -0.3181
      8 C3'        19.1970  -16.4900   52.0810 C.3       1 NEC         0.1295
      9 O3'        19.1980  -16.0200   50.7330 O.3       1 NEC        -0.3840
     10 C2'        20.2390  -17.5740   52.3970 C.3       1 NEC         0.1408
     11 O2'        21.4820  -17.2060   51.7850 O.3       1 NEC        -0.3834
     12 C1'        20.3060  -17.4880   53.9550 C.3       1 NEC         0.2035
     13 N9         19.2810  -18.3830   54.5650 N.pl3     1 NEC        -0.1918
     14 C8         18.0190  -18.0890   55.0620 C.2       1 NEC         0.1123
     15 N7         17.4380  -19.1350   55.5930 N.2       1 NEC        -0.2958
     16 C5         18.3570  -20.1620   55.4320 C.ar      1 NEC         0.1045
     17 C6         18.3360  -21.5380   55.7550 C.ar      1 NEC         0.1298
     18 N6         17.2880  -22.1640   56.3230 N.pl3     1 NEC        -0.3152
     19 N1         19.4580  -22.2740   55.4640 N.ar      1 NEC        -0.2698
     20 C2         20.5160  -21.6980   54.8490 C.ar      1 NEC         0.0533
     21 N3         20.6420  -20.4080   54.4560 N.ar      1 NEC        -0.2714
     22 C4         19.5190  -19.7050   54.8140 C.ar      1 NEC         0.1613
     23 H1         19.3772  -12.7127   53.1915 H         1 NEC         0.1851
     24 H2         17.7183  -11.6337   54.6755 H         1 NEC         0.0517
     25 H3         16.6637  -13.0676   54.4344 H         1 NEC         0.0517
     26 H4         15.9732  -11.1791   52.9147 H         1 NEC         0.0249
     27 H5         16.5730  -12.5873   51.9745 H         1 NEC         0.0249
     28 H6         17.6277  -11.1533   52.2157 H         1 NEC         0.0249
     29 H7         20.4269  -14.8239   52.7051 H         1 NEC         0.0869
     30 H8         18.1862  -16.8649   52.2995 H         1 NEC         0.0673
     31 H9         18.9410  -16.7265   50.1523 H         1 NEC         0.2102
     32 H10        19.9254  -18.5718   52.0563 H         1 NEC         0.0678
     33 H11        22.1352  -17.8695   51.9736 H         1 NEC         0.2101
     34 H12        21.3123  -17.7253   54.3305 H         1 NEC         0.0998
     35 H13        17.5639  -17.1007   55.0155 H         1 NEC         0.1349
     36 H14        17.3411  -23.1712   56.5317 H         1 NEC         0.1820
     37 H15        16.4332  -21.6356   56.5489 H         1 NEC         0.1820
     38 H16        21.3623  -22.3446   54.6470 H         1 NEC         0.0996
@<TRIPOS>BOND
     1    1    2 2  
     2    1    3 am 
     3    1    6 1  
     4    3    4 1  
     5    4    5 1  
     6    6    7 1  
     7    6    8 1  
     8    7   12 1  
     9    8    9 1  
    10    8   10 1  
    11   10   11 1  
    12   10   12 1  
    13   12   13 1  
    14   13   14 1  
    15   13   22 1  
    16   14   15 2  
    17   15   16 1  
    18   16   17 ar 
    19   16   22 ar 
    20   17   18 1  
    21   17   19 ar 
    22   19   20 ar 
    23   20   21 ar 
    24   21   22 ar 
    25    3   23 1  
    26    4   24 1  
    27    4   25 1  
    28    5   26 1  
    29    5   27 1  
    30    5   28 1  
    31    6   29 1  
    32    8   30 1  
    33    9   31 1  
    34   10   32 1  
    35   11   33 1  
    36   12   34 1  
    37   14   35 1  
    38   18   36 1  
    39   18   37 1  
    40   20   38 1  
@<TRIPOS>SUBSTRUCTURE
     1 NEC         1

