### 
### Created by X-TOOL on Wed Jan  1 15:39:36 2020
### 

@<TRIPOS>MOLECULE
6d2o_ligand
   12    12     1     0     0
SMALL
GAST_HUCK


@<TRIPOS>ATOM
      1 CG        -27.9070    9.6610  -16.6420 C.2       1 4MZ         0.0486
      2 ND1       -29.1730    9.9460  -16.9740 N.pl3     1 4MZ        -0.2628
      3 CD2       -27.8320    9.4990  -15.2480 C.2       1 4MZ        -0.0281
      4 CE1       -29.8580    9.9720  -15.8400 C.2       1 4MZ         0.0875
      5 NE2       -29.0770    9.7090  -14.7960 N.2       1 4MZ        -0.3437
      6 C4        -26.7720    9.5130  -17.5970 C.3       1 4MZ        -0.0096
      7 H1        -29.5407   10.1119  -17.9217 H         1 4MZ         0.2386
      8 H2        -26.9492    9.2545  -14.6591 H         1 4MZ         0.0324
      9 H3        -30.9244   10.1819  -15.7716 H         1 4MZ         0.1149
     10 H4        -25.8526    9.2789  -17.0403 H         1 4MZ         0.0408
     11 H5        -26.6352   10.4526  -18.1524 H         1 4MZ         0.0408
     12 H6        -26.9906    8.6982  -18.3029 H         1 4MZ         0.0408
@<TRIPOS>BOND
     1    1    2 1  
     2    1    3 2  
     3    1    6 1  
     4    2    4 1  
     5    3    5 1  
     6    4    5 2  
     7    2    7 1  
     8    3    8 1  
     9    4    9 1  
    10    6   10 1  
    11    6   11 1  
    12    6   12 1  
@<TRIPOS>SUBSTRUCTURE
     1 4MZ         1

