### 
### Created by X-TOOL on Mon Aug  2 16:10:03 2021
### 

@<TRIPOS>MOLECULE
6d3g_ligand
   30    30     1     0     0
SMALL
GAST_HUCK


@<TRIPOS>ATOM
      1 OAC        99.8090   12.9090  162.0990 O.2       1 NXL        -0.3828
      2 CAN        99.6320   12.4130  160.9680 C.2       1 NXL         0.1743
      3 N          98.3300   12.3110  160.4010 N.am      1 NXL        -0.2479
      4 CAJ        98.0780   11.7730  159.0960 C.3       1 NXL         0.0807
      5 CA         97.1860   12.7830  161.1160 C.3       1 NXL         0.1340
      6 C          96.3130   11.5810  161.5450 C.2       1 NXL         0.1996
      7 O          96.7260   10.4320  161.4670 O.2       1 NXL        -0.3947
      8 NAA        95.0150   11.7550  162.0610 N.am      1 NXL        -0.2989
      9 CB         96.4500   13.8470  160.3010 C.3       1 NXL        -0.0069
     10 CAH        96.4240   13.6440  158.7860 C.3       1 NXL        -0.0025
     11 CAO        97.5960   12.8690  158.1700 C.3       1 NXL         0.0316
     12 NAK        98.6710   13.7940  157.8340 N.4       1 NXL         0.4138
     13 OAL        98.6830   14.9580  158.6440 O.3       1 NXL        -0.2010
     14 SAR       100.0810   15.4860  158.9570 S.o2      1 NXL        -0.0327
     15 OAD       100.0780   16.3310  160.2170 O.co2     1 NXL        -0.4578
     16 OAE       100.7250   16.3250  157.8260 O.co2     1 NXL        -0.4578
     17 OAG       101.0240   14.3770  159.3310 O.co2     1 NXL        -0.4578
     18 H1        100.4900   12.0510  160.4035 H         1 NXL         0.1547
     19 H2         97.3080   10.9907  159.1667 H         1 NXL         0.0583
     20 H3         99.0059   11.3391  158.6952 H         1 NXL         0.0583
     21 H4         97.5389   13.2715  162.0362 H         1 NXL         0.0804
     22 H5         94.4731   10.9589  162.3304 H         1 NXL         0.1815
     23 H6         94.6347   12.6748  162.1582 H         1 NXL         0.1815
     24 H7         96.9325   14.8151  160.5008 H         1 NXL         0.0314
     25 H8         95.4082   13.8770  160.6527 H         1 NXL         0.0314
     26 H9         96.4007   14.6390  158.3176 H         1 NXL         0.0323
     27 H10        95.4999   13.1007  158.5392 H         1 NXL         0.0323
     28 H11        97.2459   12.3963  157.2405 H         1 NXL         0.0882
     29 H12        98.5625   14.0748  156.8720 H         1 NXL         0.2382
     30 H13        99.5513   13.3163  157.9474 H         1 NXL         0.2382
@<TRIPOS>BOND
     1    1    2 2  
     2    2    3 am 
     3    3    4 1  
     4    3    5 1  
     5    4   11 1  
     6    5    6 1  
     7    5    9 1  
     8    6    7 2  
     9    6    8 am 
    10    9   10 1  
    11   10   11 1  
    12   11   12 1  
    13   12   13 1  
    14   13   14 1  
    15   14   15 ar 
    16   14   16 ar 
    17   14   17 ar 
    18    2   18 1  
    19    4   19 1  
    20    4   20 1  
    21    5   21 1  
    22    8   22 1  
    23    8   23 1  
    24    9   24 1  
    25    9   25 1  
    26   10   26 1  
    27   10   27 1  
    28   11   28 1  
    29   12   29 1  
    30   12   30 1  
@<TRIPOS>SUBSTRUCTURE
     1 NXL         1

