### 
### Created by X-TOOL on Wed Jan  1 15:39:37 2020
### 

@<TRIPOS>MOLECULE
6d4o_ligand
   61    65     1     0     0
SMALL
GAST_HUCK


@<TRIPOS>ATOM
      1 C10        24.3970  -81.0060  -13.2190 C.2       1 FUV         0.0665
      2 C15        20.7700  -84.2610  -12.3170 C.3       1 FUV         0.0130
      3 C14        21.4780  -82.9750  -11.9230 C.3       1 FUV         0.0122
      4 C02        23.5120  -81.0150   -9.5110 C.3       1 FUV         0.1186
      5 C03        22.0250  -81.0530   -9.6270 C.3       1 FUV         0.1523
      6 C05        21.4050  -80.7310  -11.0160 C.3       1 FUV         0.1171
      7 C07        23.8100  -80.5070  -11.8810 C.3       1 FUV         0.1447
      8 C08        24.1690  -81.4760  -10.7410 C.3       1 FUV         0.1216
      9 C17        18.8170  -82.8960  -12.8430 C.3       1 FUV         0.0130
     10 C18        19.6830  -81.6300  -12.6130 C.3       1 FUV         0.0122
     11 C19        19.2390  -85.0010  -14.3550 C.3       1 FUV         0.0924
     12 C21        17.8820  -85.5990  -16.0420 C.ar      1 FUV         0.0783
     13 C22        17.7670  -86.8380  -16.1400 C.ar      1 FUV         0.1327
     14 C24        19.7730  -87.5740  -15.4650 C.ar      1 FUV         0.1225
     15 C25        20.1690  -86.3100  -14.8160 C.ar      1 FUV         0.0617
     16 C26        21.5480  -86.1400  -14.6260 C.ar      1 FUV        -0.0467
     17 C27        22.5130  -87.1110  -14.9610 C.ar      1 FUV         0.0225
     18 C29        22.0930  -88.3270  -15.5730 C.ar      1 FUV        -0.0629
     19 C30        20.7230  -88.5360  -15.8220 C.ar      1 FUV        -0.0345
     20 C31        17.3620  -87.5480  -17.2760 C.ar      1 FUV        -0.0399
     21 C32        16.6480  -86.6190  -18.0530 C.ar      1 FUV        -0.0832
     22 C33        16.5300  -85.2260  -17.7490 C.ar      1 FUV        -0.0844
     23 C34        17.0980  -84.6010  -16.6260 C.ar      1 FUV        -0.0515
     24 N13        20.6100  -81.9010  -11.5310 N.4       1 FUV         0.2666
     25 N16        19.6200  -84.0860  -13.2250 N.4       1 FUV         0.2715
     26 N20        18.0570  -84.6260  -15.1040 N.pl3     1 FUV        -0.2753
     27 O01        23.9950  -81.7940   -8.4320 O.3       1 FUV        -0.3861
     28 O04        21.4840  -80.1480   -8.6960 O.3       1 FUV        -0.3811
     29 O06        22.3500  -80.2640  -12.0560 O.3       1 FUV        -0.3148
     30 O09        25.5670  -81.5640  -10.5650 O.3       1 FUV        -0.3848
     31 O11        23.7480  -81.8720  -13.8910 O.co2     1 FUV        -0.5662
     32 O12        25.5100  -80.5230  -13.6280 O.co2     1 FUV        -0.5662
     33 O23        18.4020  -88.0250  -15.8610 O.3       1 FUV        -0.2664
     34 CL1        24.2490  -86.8180  -14.6320 Cl        1 FUV        -0.0824
     35 H1         20.4089  -84.7471  -11.3987 H         1 FUV         0.0869
     36 H2         21.5014  -84.9147  -12.8147 H         1 FUV         0.0869
     37 H3         22.0736  -82.6358  -12.7833 H         1 FUV         0.0868
     38 H4         22.1471  -83.1985  -11.0790 H         1 FUV         0.0868
     39 H5         23.8024  -79.9687   -9.3353 H         1 FUV         0.0650
     40 H6         21.7081  -82.0719   -9.3598 H         1 FUV         0.0705
     41 H7         20.6985  -79.9045  -10.8496 H         1 FUV         0.1215
     42 H8         24.2765  -79.5402  -11.6408 H         1 FUV         0.0795
     43 H9         23.7887  -82.4768  -10.9935 H         1 FUV         0.0665
     44 H10        18.0962  -82.6865  -13.6471 H         1 FUV         0.0869
     45 H11        18.2740  -83.1230  -11.9137 H         1 FUV         0.0869
     46 H12        19.0367  -80.7812  -12.3449 H         1 FUV         0.0868
     47 H13        20.2417  -81.3902  -13.5297 H         1 FUV         0.0868
     48 H14        18.6534  -85.6412  -13.6789 H         1 FUV         0.1275
     49 H15        21.8921  -85.2064  -14.1960 H         1 FUV         0.0535
     50 H16        22.8205  -89.0835  -15.8441 H         1 FUV         0.0539
     51 H17        20.4003  -89.4554  -16.2970 H         1 FUV         0.0530
     52 H18        17.5567  -88.5891  -17.5069 H         1 FUV         0.0511
     53 H19        16.1520  -86.9838  -18.9452 H         1 FUV         0.0478
     54 H20        15.9614  -84.6081  -18.4345 H         1 FUV         0.0494
     55 H21        16.9597  -83.5797  -16.2901 H         1 FUV         0.0482
     56 H22        20.0553  -82.2251  -10.7543 H         1 FUV         0.2067
     57 H23        20.1781  -83.5484  -13.8696 H         1 FUV         0.2075
     58 H24        17.4686  -83.7934  -14.9574 H         1 FUV         0.1802
     59 H25        24.9360  -81.6849   -8.3604 H         1 FUV         0.2100
     60 H26        21.6999  -79.2604   -8.9566 H         1 FUV         0.2103
     61 H27        25.9669  -81.8785  -11.3673 H         1 FUV         0.2102
@<TRIPOS>BOND
     1    7    1 1  
     2    1   31 ar 
     3    1   32 ar 
     4    2    3 1  
     5   25    2 1  
     6    3   24 1  
     7    5    4 1  
     8    4    8 1  
     9    4   27 1  
    10    6    5 1  
    11    5   28 1  
    12   24    6 1  
    13    6   29 1  
    14    7    8 1  
    15   29    7 1  
    16    8   30 1  
    17    9   10 1  
    18   25    9 1  
    19   10   24 1  
    20   11   15 1  
    21   11   25 1  
    22   26   11 1  
    23   12   13 ar 
    24   12   23 ar 
    25   12   26 1  
    26   13   20 ar 
    27   13   33 1  
    28   15   14 ar 
    29   14   19 ar 
    30   14   33 1  
    31   15   16 ar 
    32   16   17 ar 
    33   17   18 ar 
    34   17   34 1  
    35   18   19 ar 
    36   20   21 ar 
    37   21   22 ar 
    38   22   23 ar 
    39    2   35 1  
    40    2   36 1  
    41    3   37 1  
    42    3   38 1  
    43    4   39 1  
    44    5   40 1  
    45    6   41 1  
    46    7   42 1  
    47    8   43 1  
    48    9   44 1  
    49    9   45 1  
    50   10   46 1  
    51   10   47 1  
    52   11   48 1  
    53   16   49 1  
    54   18   50 1  
    55   19   51 1  
    56   20   52 1  
    57   21   53 1  
    58   22   54 1  
    59   23   55 1  
    60   24   56 1  
    61   25   57 1  
    62   26   58 1  
    63   27   59 1  
    64   28   60 1  
    65   30   61 1  
@<TRIPOS>SUBSTRUCTURE
     1 FUV         1

