### 
### Created by X-TOOL on Mon Aug  2 16:11:56 2021
### 

@<TRIPOS>MOLECULE
6d4q_ligand
   55    58     1     0     0
SMALL
GAST_HUCK


@<TRIPOS>ATOM
      1 C15       133.7700   15.2120    4.4180 C.3       1 FWG         0.0510
      2 C20       129.5100   18.4160    4.2750 C.ar      1 FWG         0.0243
      3 C21       130.7410   19.0880    4.2100 C.ar      1 FWG        -0.0294
      4 C22       130.9420   20.1520    3.2890 C.ar      1 FWG         0.0077
      5 C24       128.7390   19.8950    2.4650 C.ar      1 FWG         0.0199
      6 C26       127.2280   18.1410    3.4170 C.ar      1 FWG        -0.0451
      7 C28       128.0360   16.6950    5.2140 C.ar      1 FWG        -0.0287
      8 O01       133.0480   12.0190    2.8110 O.2       1 FWG        -0.3966
      9 C02       133.6300   13.0970    2.9450 C.2       1 FWG         0.1816
     10 C03       134.6820   13.4370    1.8950 C.3       1 FWG         0.0488
     11 C04       134.1070   14.4340    0.9030 C.3       1 FWG        -0.0332
     12 C05       134.6000   14.1100   -0.5190 C.3       1 FWG        -0.0507
     13 C06       135.9800   14.7270   -0.7760 C.3       1 FWG        -0.0529
     14 C07       137.0290   14.2460    0.1720 C.3       1 FWG        -0.0529
     15 C08       136.8750   14.7650    1.5880 C.3       1 FWG        -0.0507
     16 C09       136.0270   13.8240    2.4890 C.3       1 FWG        -0.0332
     17 N10       133.2370   13.9210    4.0860 N.am      1 FWG        -0.2699
     18 C11       132.2210   13.3960    4.9550 C.3       1 FWG         0.0510
     19 C12       131.1100   14.3750    5.3150 C.3       1 FWG         0.0501
     20 N13       131.5740   15.7530    5.4720 N.am      1 FWG        -0.2300
     21 C14       133.0220   15.9350    5.5420 C.3       1 FWG         0.0501
     22 S16       130.5370   16.7780    6.3430 S.o2      1 FWG         0.0729
     23 O17       129.9100   16.0520    7.4280 O.2       1 FWG        -0.1499
     24 O18       131.2760   17.8910    6.9240 O.2       1 FWG        -0.1499
     25 C19       129.2600   17.3410    5.1880 C.ar      1 FWG         0.1236
     26 N23       129.9390   20.5360    2.4390 N.ar      1 FWG        -0.2974
     27 C25       128.5030   18.8120    3.4000 C.ar      1 FWG         0.0110
     28 C27       126.9940   17.1100    4.3020 C.ar      1 FWG        -0.0534
     29 H1        133.7307   15.8425    3.5175 H         1 FWG         0.0538
     30 H2        134.8170   15.0823    4.7294 H         1 FWG         0.0538
     31 H3        131.5481   18.7918    4.8703 H         1 FWG         0.0716
     32 H4        131.8971   20.6638    3.2592 H         1 FWG         0.0775
     33 H5        127.9534   20.1962    1.7815 H         1 FWG         0.0870
     34 H6        126.4481   18.4486    2.7299 H         1 FWG         0.0659
     35 H7        127.8603   15.8848    5.9124 H         1 FWG         0.0675
     36 H8        134.8675   12.5128    1.3281 H         1 FWG         0.0538
     37 H9        134.4308   15.4487    1.1779 H         1 FWG         0.0292
     38 H10       133.0086   14.3801    0.9283 H         1 FWG         0.0292
     39 H11       133.8835   14.5146   -1.2491 H         1 FWG         0.0267
     40 H12       134.6665   13.0183   -0.6367 H         1 FWG         0.0267
     41 H13       135.8972   15.8196   -0.6797 H         1 FWG         0.0265
     42 H14       136.2913   14.4717   -1.7997 H         1 FWG         0.0265
     43 H15       138.0101   14.5671   -0.2078 H         1 FWG         0.0265
     44 H16       136.9890   13.1471    0.2016 H         1 FWG         0.0265
     45 H17       136.3852   15.7492    1.5497 H         1 FWG         0.0267
     46 H18       137.8751   14.8702    2.0339 H         1 FWG         0.0267
     47 H19       136.6035   12.9040    2.6657 H         1 FWG         0.0292
     48 H20       135.8471   14.3338    3.4470 H         1 FWG         0.0292
     49 H21       132.7048   13.0714    5.8880 H         1 FWG         0.0538
     50 H22       131.7628   12.5281    4.4583 H         1 FWG         0.0538
     51 H23       130.6542   14.0512    6.2623 H         1 FWG         0.0498
     52 H24       130.3532   14.3514    4.5170 H         1 FWG         0.0498
     53 H25       133.2439   17.0103    5.4759 H         1 FWG         0.0498
     54 H26       133.3781   15.5458    6.5072 H         1 FWG         0.0498
     55 H27       126.0313   16.6119    4.3139 H         1 FWG         0.0645
@<TRIPOS>BOND
     1    1   17 1  
     2   21    1 1  
     3    2    3 ar 
     4   25    2 ar 
     5    2   27 ar 
     6    3    4 ar 
     7    4   26 ar 
     8    5   26 ar 
     9   27    5 ar 
    10   27    6 ar 
    11   28    6 ar 
    12   25    7 ar 
    13    7   28 ar 
    14    9    8 2  
    15    9   10 1  
    16   17    9 am 
    17   10   11 1  
    18   10   16 1  
    19   11   12 1  
    20   12   13 1  
    21   14   13 1  
    22   15   14 1  
    23   16   15 1  
    24   18   17 1  
    25   19   18 1  
    26   20   19 1  
    27   20   21 1  
    28   22   20 am 
    29   22   23 2  
    30   22   24 2  
    31   22   25 1  
    32    1   29 1  
    33    1   30 1  
    34    3   31 1  
    35    4   32 1  
    36    5   33 1  
    37    6   34 1  
    38    7   35 1  
    39   10   36 1  
    40   11   37 1  
    41   11   38 1  
    42   12   39 1  
    43   12   40 1  
    44   13   41 1  
    45   13   42 1  
    46   14   43 1  
    47   14   44 1  
    48   15   45 1  
    49   15   46 1  
    50   16   47 1  
    51   16   48 1  
    52   18   49 1  
    53   18   50 1  
    54   19   51 1  
    55   19   52 1  
    56   21   53 1  
    57   21   54 1  
    58   28   55 1  
@<TRIPOS>SUBSTRUCTURE
     1 FWG         1

