### 
### Created by X-TOOL on Mon Aug  2 16:11:56 2021
### 

@<TRIPOS>MOLECULE
6d4r_ligand
   48    51     1     0     0
SMALL
GAST_HUCK


@<TRIPOS>ATOM
      1 C10        12.8430  -44.0550    3.3890 C.2       1 FWY         0.2089
      2 N12        13.5360  -43.5340    4.5780 N.am      1 FWY        -0.2692
      3 C13        12.9380  -42.5220    5.3640 C.3       1 FWY         0.0505
      4 C17        14.8230  -43.9900    5.0160 C.3       1 FWY         0.0505
      5 C21        16.9550  -39.3390    5.0050 C.ar      1 FWY         0.1236
      6 C22        18.0580  -39.5800    4.0420 C.ar      1 FWY         0.0243
      7 C24        19.7920  -40.9820    3.0240 C.ar      1 FWY         0.0077
      8 C26        19.5120  -38.7630    2.2580 C.ar      1 FWY         0.0199
      9 C28        17.8240  -37.3370    3.2150 C.ar      1 FWY        -0.0451
     10 O01        14.0350  -46.2450   -2.1990 O.2       1 FWY         0.1783
     11 N02        13.8400  -45.3620   -1.1680 N.2       1 FWY         0.3159
     12 O03        13.5240  -44.1980   -1.4110 O.2       1 FWY         0.1783
     13 C04        13.9520  -45.7620    0.1680 C.ar      1 FWY         0.2051
     14 C05        14.5390  -46.9700    0.5830 C.ar      1 FWY        -0.0147
     15 C06        14.5850  -47.2480    1.9480 C.ar      1 FWY        -0.0483
     16 C07        14.0350  -46.3190    2.9070 C.ar      1 FWY        -0.0368
     17 C08        13.4670  -45.1460    2.4730 C.ar      1 FWY         0.0581
     18 C09        13.4260  -44.8620    1.0910 C.ar      1 FWY         0.0012
     19 O11        11.7670  -43.5970    3.0960 O.2       1 FWY        -0.3844
     20 C14        13.9500  -41.5520    5.9490 C.3       1 FWY         0.0500
     21 N15        15.2960  -41.5720    5.3470 N.am      1 FWY        -0.2300
     22 C16        15.8460  -42.8700    5.0090 C.3       1 FWY         0.0500
     23 S18        16.4000  -40.5620    6.1180 S.o2      1 FWY         0.0729
     24 O19        17.4570  -41.3450    6.7030 O.2       1 FWY        -0.1499
     25 O20        15.7750  -39.9640    7.2450 O.2       1 FWY        -0.1499
     26 C23        18.7430  -40.8200    3.9440 C.ar      1 FWY        -0.0294
     27 N25        20.1610  -39.9610    2.2010 N.ar      1 FWY        -0.2974
     28 C27        18.4510  -38.5610    3.1860 C.ar      1 FWY         0.0110
     29 C29        16.7490  -37.1070    4.1460 C.ar      1 FWY        -0.0534
     30 C30        16.3390  -38.1410    5.0290 C.ar      1 FWY        -0.0287
     31 H1         12.3895  -42.9976    6.1904 H         1 FWY         0.0538
     32 H2         12.2348  -41.9577    4.7339 H         1 FWY         0.0538
     33 H3         15.1657  -44.7903    4.3436 H         1 FWY         0.0538
     34 H4         14.7327  -44.3841    6.0390 H         1 FWY         0.0538
     35 H5         20.3140  -41.9304    2.9682 H         1 FWY         0.0775
     36 H6         19.8057  -37.9593    1.5926 H         1 FWY         0.0870
     37 H7         18.1375  -36.5488    2.5401 H         1 FWY         0.0659
     38 H8         14.9456  -47.6676   -0.1403 H         1 FWY         0.0726
     39 H9         15.0380  -48.1704    2.2930 H         1 FWY         0.0643
     40 H10        14.0703  -46.5466    3.9663 H         1 FWY         0.0711
     41 H11        12.9814  -43.9357    0.7454 H         1 FWY         0.0746
     42 H12        14.0576  -41.7843    7.0188 H         1 FWY         0.0498
     43 H13        13.5460  -40.5355    5.8333 H         1 FWY         0.0498
     44 H14        16.2860  -42.8086    4.0027 H         1 FWY         0.0498
     45 H15        16.6321  -43.1140    5.7387 H         1 FWY         0.0498
     46 H16        18.4546  -41.6467    4.5831 H         1 FWY         0.0716
     47 H17        16.2525  -36.1437    4.1726 H         1 FWY         0.0645
     48 H18        15.5269  -37.9656    5.7253 H         1 FWY         0.0675
@<TRIPOS>BOND
     1    2    1 am 
     2    1   17 1  
     3    1   19 2  
     4    3    2 1  
     5    4    2 1  
     6   20    3 1  
     7   22    4 1  
     8    5    6 ar 
     9   23    5 1  
    10    5   30 ar 
    11    6   26 ar 
    12    6   28 ar 
    13   26    7 ar 
    14    7   27 ar 
    15    8   27 ar 
    16   28    8 ar 
    17   28    9 ar 
    18    9   29 ar 
    19   11   10 2  
    20   11   12 2  
    21   13   11 1  
    22   13   14 ar 
    23   18   13 ar 
    24   15   14 ar 
    25   16   15 ar 
    26   17   16 ar 
    27   17   18 ar 
    28   21   20 1  
    29   21   22 1  
    30   21   23 am 
    31   23   24 2  
    32   23   25 2  
    33   29   30 ar 
    34    3   31 1  
    35    3   32 1  
    36    4   33 1  
    37    4   34 1  
    38    7   35 1  
    39    8   36 1  
    40    9   37 1  
    41   14   38 1  
    42   15   39 1  
    43   16   40 1  
    44   18   41 1  
    45   20   42 1  
    46   20   43 1  
    47   22   44 1  
    48   22   45 1  
    49   26   46 1  
    50   29   47 1  
    51   30   48 1  
@<TRIPOS>SUBSTRUCTURE
     1 FWY         1

