### 
### Created by X-TOOL on Mon Aug  2 16:11:57 2021
### 

@<TRIPOS>MOLECULE
6d4s_ligand
   48    51     1     0     0
SMALL
GAST_HUCK


@<TRIPOS>ATOM
      1 C10       133.3620   76.8090   -6.3090 C.2       1 FWV         0.2902
      2 N12       132.9570   75.9750   -7.4750 N.am      1 FWV        -0.2510
      3 C13       131.8580   76.3540   -8.2890 C.3       1 FWV         0.0519
      4 C17       133.6160   74.7730   -7.8160 C.3       1 FWV         0.0519
      5 C21       129.2160   72.3380   -8.1200 C.ar      1 FWV         0.1236
      6 C22       129.4380   71.2780   -7.1570 C.ar      1 FWV         0.0243
      7 C24       130.8110   69.5510   -6.1190 C.ar      1 FWV         0.0077
      8 C26       128.6380   69.8760   -5.3310 C.ar      1 FWV         0.0199
      9 C28       127.2140   71.5950   -6.3250 C.ar      1 FWV        -0.0451
     10 CL01      135.6190   76.2920   -0.5350 Cl        1 FWV        -0.0742
     11 C02       135.4770   77.1970   -2.0560 C.ar      1 FWV         0.0407
     12 C03       135.8110   78.5420   -2.1500 C.ar      1 FWV        -0.0629
     13 C04       135.6830   79.1830   -3.3780 C.ar      1 FWV        -0.0750
     14 C05       135.2200   78.4530   -4.5380 C.ar      1 FWV        -0.0407
     15 C06       134.9010   77.1340   -4.4200 C.ar      1 FWV         0.0811
     16 C07       135.0280   76.4850   -3.1760 C.ar      1 FWV         0.0728
     17 CL08      134.6060   74.7970   -3.0200 Cl        1 FWV        -0.0826
     18 N09       134.4630   76.3770   -5.5200 N.am      1 FWV        -0.2185
     19 O11       132.7290   77.8710   -6.0290 O.2       1 FWV        -0.3901
     20 C14       130.8010   75.2740   -8.2030 C.3       1 FWV         0.0499
     21 N15       131.4050   74.0070   -8.5400 N.am      1 FWV        -0.2301
     22 C16       132.6020   73.6390   -7.7760 C.3       1 FWV         0.0499
     23 S18       130.4460   72.8540   -9.2750 S.o2      1 FWV         0.0729
     24 O19       129.7950   73.4330  -10.4410 O.2       1 FWV        -0.1499
     25 O20       131.2390   71.8020   -9.7690 O.2       1 FWV        -0.1499
     26 C23       130.6580   70.5690   -7.0590 C.ar      1 FWV        -0.0294
     27 N25       129.8030   69.2260   -5.2730 N.ar      1 FWV        -0.2974
     28 C27       128.4430   70.9300   -6.2950 C.ar      1 FWV         0.0110
     29 C29       127.0040   72.6190   -7.2510 C.ar      1 FWV        -0.0534
     30 C30       128.0210   72.9780   -8.1400 C.ar      1 FWV        -0.0287
     31 H1        132.1899   76.4660   -9.3317 H         1 FWV         0.0536
     32 H2        131.4433   77.3081   -7.9317 H         1 FWV         0.0536
     33 H3        134.4230   74.5748   -7.0953 H         1 FWV         0.0536
     34 H4        134.0400   74.8562   -8.8276 H         1 FWV         0.0536
     35 H5        131.7496   69.0115   -6.0638 H         1 FWV         0.0775
     36 H6        127.8365   69.6103   -4.6512 H         1 FWV         0.0870
     37 H7        126.4275   71.3172   -5.6327 H         1 FWV         0.0659
     38 H8        136.1657   79.0834   -1.2805 H         1 FWV         0.0493
     39 H9        135.9314   80.2345   -3.4661 H         1 FWV         0.0579
     40 H10       135.1275   78.9527   -5.4955 H         1 FWV         0.0503
     41 H11       134.9314   75.5241   -5.7506 H         1 FWV         0.2260
     42 H12       129.9872   75.4955   -8.9092 H         1 FWV         0.0498
     43 H13       130.3977   75.2314   -7.1805 H         1 FWV         0.0498
     44 H14       132.3201   73.4395   -6.7316 H         1 FWV         0.0498
     45 H15       133.0497   72.7348   -8.2142 H         1 FWV         0.0498
     46 H16       131.4801   70.8191   -7.7198 H         1 FWV         0.0716
     47 H17       126.0516   73.1358   -7.2803 H         1 FWV         0.0645
     48 H18       127.8525   73.7768   -8.8532 H         1 FWV         0.0675
@<TRIPOS>BOND
     1    2    1 am 
     2    1   18 am 
     3    1   19 2  
     4    3    2 1  
     5    4    2 1  
     6   20    3 1  
     7   22    4 1  
     8    5    6 ar 
     9   23    5 1  
    10    5   30 ar 
    11    6   26 ar 
    12    6   28 ar 
    13   26    7 ar 
    14    7   27 ar 
    15    8   27 ar 
    16   28    8 ar 
    17   28    9 ar 
    18    9   29 ar 
    19   11   10 1  
    20   11   12 ar 
    21   16   11 ar 
    22   13   12 ar 
    23   14   13 ar 
    24   15   14 ar 
    25   15   16 ar 
    26   18   15 1  
    27   16   17 1  
    28   21   20 1  
    29   21   22 1  
    30   21   23 am 
    31   23   24 2  
    32   23   25 2  
    33   29   30 ar 
    34    3   31 1  
    35    3   32 1  
    36    4   33 1  
    37    4   34 1  
    38    7   35 1  
    39    8   36 1  
    40    9   37 1  
    41   12   38 1  
    42   13   39 1  
    43   14   40 1  
    44   18   41 1  
    45   20   42 1  
    46   20   43 1  
    47   22   44 1  
    48   22   45 1  
    49   26   46 1  
    50   29   47 1  
    51   30   48 1  
@<TRIPOS>SUBSTRUCTURE
     1 FWV         1

