### 
### Created by X-TOOL on Mon Aug  2 16:11:57 2021
### 

@<TRIPOS>MOLECULE
6d4t_ligand
   54    58     1     0     0
SMALL
GAST_HUCK


@<TRIPOS>ATOM
      1 C13        45.7480  165.7080   -1.3320 C.ar      1 FWS         0.1107
      2 C24        39.7080  159.4120   -6.3580 C.ar      1 FWS         0.0243
      3 C26        41.1070  157.7130   -5.3570 C.ar      1 FWS         0.0077
      4 C28        38.9360  157.9410   -4.5610 C.ar      1 FWS         0.0199
      5 C01        42.9130  164.8780   -8.7830 C.3       1 FWS        -0.0404
      6 C02        42.3930  164.5230   -7.3850 C.3       1 FWS         0.0601
      7 C03        41.2900  163.4910   -7.4720 C.3       1 FWS         0.0524
      8 N04        41.7490  162.1380   -7.6690 N.am      1 FWS        -0.2298
      9 C05        43.0520  161.7240   -7.1610 C.3       1 FWS         0.0499
     10 C06        44.0570  162.8700   -7.0840 C.3       1 FWS         0.0521
     11 N07        43.4260  163.9830   -6.5620 N.am      1 FWS        -0.2488
     12 C08        43.7260  164.4960   -5.2540 C.2       1 FWS         0.2870
     13 O09        43.1640  165.4160   -4.8320 O.2       1 FWS        -0.3914
     14 N10        44.8060  163.8290   -4.5110 N.am      1 FWS        -0.2280
     15 C11        45.1900  164.2090   -3.1560 C.ar      1 FWS         0.0468
     16 C12        45.4040  165.5050   -2.7220 C.ar      1 FWS        -0.0209
     17 C14        45.8470  164.6700   -0.4830 C.ar      1 FWS         0.1076
     18 O15        46.1900  165.1350    0.8160 O.3       1 FWS        -0.3010
     19 C16        46.0950  166.5740    0.7620 C.3       1 FWS         0.1837
     20 O17        46.0360  166.9030   -0.6220 O.3       1 FWS        -0.2948
     21 C18        45.6080  163.3270   -0.9430 C.ar      1 FWS        -0.0541
     22 C19        45.2800  163.1320   -2.2640 C.ar      1 FWS        -0.0609
     23 S20        40.7600  161.0490   -8.4560 S.o2      1 FWS         0.0729
     24 O21        41.5770  159.9350   -9.0400 O.2       1 FWS        -0.1499
     25 O22        40.1150  161.6960   -9.5410 O.2       1 FWS        -0.1499
     26 C23        39.4700  160.4820   -7.2900 C.ar      1 FWS         0.1236
     27 C25        40.9310  158.7530   -6.2760 C.ar      1 FWS        -0.0294
     28 N27        40.0960  157.3400   -4.5260 N.ar      1 FWS        -0.2974
     29 C29        38.7140  159.0290   -5.5250 C.ar      1 FWS         0.0110
     30 C30        37.4150  159.7060   -5.5500 C.ar      1 FWS        -0.0451
     31 C31        37.1940  160.7380   -6.4540 C.ar      1 FWS        -0.0534
     32 C32        38.2110  161.1350   -7.3310 C.ar      1 FWS        -0.0287
     33 H1         42.0597  157.1983   -5.3063 H         1 FWS         0.0775
     34 H2         38.1440  157.6399   -3.8849 H         1 FWS         0.0870
     35 H3         42.0907  165.2900   -9.3864 H         1 FWS         0.0252
     36 H4         43.3063  163.9728   -9.2687 H         1 FWS         0.0252
     37 H5         43.7150  165.6259   -8.6969 H         1 FWS         0.0252
     38 H6         41.9997  165.4370   -6.9160 H         1 FWS         0.0569
     39 H7         40.6360  163.7578   -8.3153 H         1 FWS         0.0500
     40 H8         40.7135  163.5250   -6.5358 H         1 FWS         0.0500
     41 H9         43.4568  160.9478   -7.8270 H         1 FWS         0.0498
     42 H10        42.9180  161.3077   -6.1517 H         1 FWS         0.0498
     43 H11        44.4350  163.0982   -8.0915 H         1 FWS         0.0536
     44 H12        44.8963  162.5823   -6.4338 H         1 FWS         0.0536
     45 H13        45.2995  163.0810   -4.9549 H         1 FWS         0.2217
     46 H14        45.3165  166.3434   -3.4035 H         1 FWS         0.0395
     47 H15        46.9781  167.0348    1.2287 H         1 FWS         0.0968
     48 H16        45.1863  166.9183    1.2774 H         1 FWS         0.0968
     49 H17        45.6850  162.4870   -0.2622 H         1 FWS         0.0475
     50 H18        45.0876  162.1270   -2.6219 H         1 FWS         0.0384
     51 H19        41.7483  159.0459   -6.9251 H         1 FWS         0.0716
     52 H20        36.6299  159.4033   -4.8665 H         1 FWS         0.0659
     53 H21        36.2320  161.2369   -6.4804 H         1 FWS         0.0645
     54 H22        38.0371  161.9379   -8.0383 H         1 FWS         0.0675
@<TRIPOS>BOND
     1   16    1 ar 
     2    1   17 ar 
     3    1   20 1  
     4   26    2 ar 
     5    2   27 ar 
     6    2   29 ar 
     7   27    3 ar 
     8    3   28 ar 
     9    4   28 ar 
    10   29    4 ar 
    11    6    5 1  
    12    7    6 1  
    13    6   11 1  
    14    8    7 1  
    15    8    9 1  
    16   23    8 am 
    17    9   10 1  
    18   10   11 1  
    19   11   12 am 
    20   12   13 2  
    21   12   14 am 
    22   14   15 1  
    23   15   16 ar 
    24   15   22 ar 
    25   17   18 1  
    26   21   17 ar 
    27   18   19 1  
    28   20   19 1  
    29   22   21 ar 
    30   23   24 2  
    31   23   25 2  
    32   23   26 1  
    33   26   32 ar 
    34   29   30 ar 
    35   30   31 ar 
    36   31   32 ar 
    37    3   33 1  
    38    4   34 1  
    39    5   35 1  
    40    5   36 1  
    41    5   37 1  
    42    6   38 1  
    43    7   39 1  
    44    7   40 1  
    45    9   41 1  
    46    9   42 1  
    47   10   43 1  
    48   10   44 1  
    49   14   45 1  
    50   16   46 1  
    51   19   47 1  
    52   19   48 1  
    53   21   49 1  
    54   22   50 1  
    55   27   51 1  
    56   30   52 1  
    57   31   53 1  
    58   32   54 1  
@<TRIPOS>SUBSTRUCTURE
     1 FWS         1

