### 
### Created by X-TOOL on Mon Aug  2 16:11:58 2021
### 

@<TRIPOS>MOLECULE
6d4u_ligand
   57    60     1     0     0
SMALL
GAST_HUCK


@<TRIPOS>ATOM
      1 C15        14.6820  -43.8860    3.0140 C.3       1 FWP         0.0510
      2 C20        18.0100  -39.6080    2.4760 C.ar      1 FWP         0.0243
      3 C21        18.6890  -40.8790    2.4190 C.ar      1 FWP        -0.0294
      4 C22        19.7410  -41.0670    1.5190 C.ar      1 FWP         0.0077
      5 C24        19.5110  -38.8620    0.6770 C.ar      1 FWP         0.0199
      6 C26        17.7840  -37.3680    1.6100 C.ar      1 FWP        -0.0451
      7 C28        16.3140  -38.1140    3.3870 C.ar      1 FWP        -0.0287
      8 C01        11.4860  -46.0050   -5.4600 C.3       1 FWP         0.0577
      9 O02        10.7790  -46.1920   -4.2460 O.3       1 FWP        -0.3282
     10 C03        11.4970  -45.8130   -3.0900 C.ar      1 FWP         0.0754
     11 C04        10.9130  -45.9460   -1.8410 C.ar      1 FWP        -0.0110
     12 C05        11.6300  -45.5720   -0.6960 C.ar      1 FWP         0.0866
     13 C06        12.9260  -45.0770   -0.8250 C.ar      1 FWP        -0.0058
     14 C07        13.7060  -44.6740    0.4370 C.3       1 FWP         0.0639
     15 C08        13.0160  -43.5830    1.2380 C.2       1 FWP         0.1865
     16 O09        12.0480  -43.0100    0.8220 O.2       1 FWP        -0.3947
     17 N10        13.5340  -43.2610    2.4850 N.am      1 FWP        -0.2689
     18 C11        12.9870  -42.2600    3.2890 C.3       1 FWP         0.0510
     19 C12        14.0000  -41.1400    3.3290 C.3       1 FWP         0.0501
     20 N13        15.2790  -41.6440    3.7720 N.am      1 FWP        -0.2300
     21 C14        15.7730  -42.8560    3.1550 C.3       1 FWP         0.0501
     22 S16        16.3530  -40.5820    4.5390 S.o2      1 FWP         0.0729
     23 O17        15.6550  -39.9250    5.6180 O.2       1 FWP        -0.1499
     24 O18        17.3900  -41.3620    5.1950 O.2       1 FWP        -0.1499
     25 C19        16.9390  -39.3520    3.3850 C.ar      1 FWP         0.1236
     26 N23        20.1370  -40.0710    0.6640 N.ar      1 FWP        -0.2974
     27 C25        18.4210  -38.6270    1.6040 C.ar      1 FWP         0.0110
     28 C27        16.7400  -37.1190    2.4940 C.ar      1 FWP        -0.0534
     29 C29        13.5250  -44.9470   -2.0820 C.ar      1 FWP        -0.0747
     30 C30        12.8190  -45.3130   -3.2120 C.ar      1 FWP        -0.0504
     31 O31        11.0510  -45.6970    0.6110 O.3       1 FWP        -0.3272
     32 C32         9.6170  -45.9270    0.6300 C.3       1 FWP         0.0576
     33 H1         15.0137  -44.6856    2.3354 H         1 FWP         0.0538
     34 H2         14.4487  -44.3149    3.9997 H         1 FWP         0.0538
     35 H3         18.3836  -41.6874    3.0735 H         1 FWP         0.0716
     36 H4         20.2553  -42.0210    1.4962 H         1 FWP         0.0775
     37 H5         19.8261  -38.0785   -0.0027 H         1 FWP         0.0870
     38 H6         18.1090  -36.5938    0.9244 H         1 FWP         0.0659
     39 H7         15.5002  -37.9159    4.0752 H         1 FWP         0.0675
     40 H8         10.8564  -46.3239   -6.3038 H         1 FWP         0.0575
     41 H9         12.4081  -46.6046   -5.4435 H         1 FWP         0.0575
     42 H10        11.7421  -44.9415   -5.5751 H         1 FWP         0.0575
     43 H11         9.9063  -46.3374   -1.7494 H         1 FWP         0.0446
     44 H12        14.6995  -44.3115    0.1343 H         1 FWP         0.0617
     45 H13        13.8188  -45.5611    1.0776 H         1 FWP         0.0617
     46 H14        12.8054  -42.6444    4.3035 H         1 FWP         0.0538
     47 H15        12.0407  -41.9011    2.8580 H         1 FWP         0.0538
     48 H16        13.6547  -40.3616    4.0253 H         1 FWP         0.0498
     49 H17        14.1072  -40.7101    2.3222 H         1 FWP         0.0498
     50 H18        16.1679  -42.6142    2.1572 H         1 FWP         0.0498
     51 H19        16.5790  -43.2715    3.7776 H         1 FWP         0.0498
     52 H20        16.2525  -36.1508    2.4933 H         1 FWP         0.0645
     53 H21        14.5347  -44.5623   -2.1691 H         1 FWP         0.0505
     54 H22        13.2749  -45.2182   -4.1909 H         1 FWP         0.0433
     55 H23         9.2724  -46.0079    1.6715 H         1 FWP         0.0575
     56 H24         9.3882  -46.8602    0.0946 H         1 FWP         0.0575
     57 H25         9.1044  -45.0870    0.1384 H         1 FWP         0.0575
@<TRIPOS>BOND
     1    1   17 1  
     2   21    1 1  
     3    2    3 ar 
     4   25    2 ar 
     5    2   27 ar 
     6    3    4 ar 
     7    4   26 ar 
     8    5   26 ar 
     9   27    5 ar 
    10   27    6 ar 
    11   28    6 ar 
    12   25    7 ar 
    13    7   28 ar 
    14    9    8 1  
    15   10    9 1  
    16   11   10 ar 
    17   10   30 ar 
    18   12   11 ar 
    19   13   12 ar 
    20   12   31 1  
    21   14   13 1  
    22   13   29 ar 
    23   15   14 1  
    24   15   16 2  
    25   17   15 am 
    26   18   17 1  
    27   19   18 1  
    28   20   19 1  
    29   20   21 1  
    30   22   20 am 
    31   22   23 2  
    32   22   24 2  
    33   22   25 1  
    34   29   30 ar 
    35   31   32 1  
    36    1   33 1  
    37    1   34 1  
    38    3   35 1  
    39    4   36 1  
    40    5   37 1  
    41    6   38 1  
    42    7   39 1  
    43    8   40 1  
    44    8   41 1  
    45    8   42 1  
    46   11   43 1  
    47   14   44 1  
    48   14   45 1  
    49   18   46 1  
    50   18   47 1  
    51   19   48 1  
    52   19   49 1  
    53   21   50 1  
    54   21   51 1  
    55   28   52 1  
    56   29   53 1  
    57   30   54 1  
    58   32   55 1  
    59   32   56 1  
    60   32   57 1  
@<TRIPOS>SUBSTRUCTURE
     1 FWP         1

