### 
### Created by X-TOOL on Mon Aug  2 16:11:58 2021
### 

@<TRIPOS>MOLECULE
6d4v_ligand
   55    58     1     0     0
SMALL
GAST_HUCK


@<TRIPOS>ATOM
      1 C15       134.2200   15.4940    4.4800 C.3       1 FWM         0.0510
      2 C20       129.7350   18.4620    3.8970 C.ar      1 FWM         0.0243
      3 C21       131.0000   19.1230    3.8460 C.ar      1 FWM        -0.0294
      4 C22       131.2000   20.1960    2.9490 C.ar      1 FWM         0.0077
      5 C24       128.9610   19.9700    2.1290 C.ar      1 FWM         0.0199
      6 C26       127.4330   18.2260    3.0670 C.ar      1 FWM        -0.0451
      7 C28       128.2270   16.7480    4.8220 C.ar      1 FWM        -0.0287
      8 O01       134.6870   12.1060    3.6720 O.2       1 FWM        -0.3969
      9 C02       134.8970   13.2740    3.7380 C.2       1 FWM         0.1788
     10 C03       136.1710   13.9220    3.1150 C.3       1 FWM         0.0402
     11 C04       136.1710   13.8270    1.6020 C.3       1 FWM        -0.0241
     12 C05       134.8010   14.2060    1.0630 C.3       1 FWM        -0.0481
     13 C06       134.7410   14.3210   -0.4600 C.3       1 FWM        -0.0527
     14 C07       136.1240   14.2260   -1.1230 C.3       1 FWM        -0.0530
     15 C08       137.1400   15.0820   -0.4070 C.3       1 FWM        -0.0527
     16 C09       137.3300   14.6760    1.0520 C.3       1 FWM        -0.0481
     17 N10       133.9790   14.0870    4.4020 N.am      1 FWM        -0.2701
     18 C11       132.8270   13.5230    4.9640 C.3       1 FWM         0.0510
     19 C12       131.6270   14.4090    5.1060 C.3       1 FWM         0.0501
     20 N13       131.9020   15.8480    5.0930 N.am      1 FWM        -0.2300
     21 C14       133.2610   16.2140    5.3450 C.3       1 FWM         0.0501
     22 S16       130.7810   16.8130    5.9360 S.o2      1 FWM         0.0729
     23 O17       131.4910   17.9000    6.5710 O.2       1 FWM        -0.1499
     24 O18       130.1800   16.0880    7.0580 O.2       1 FWM        -0.1499
     25 C19       129.4820   17.3880    4.7980 C.ar      1 FWM         0.1236
     26 N23       130.1970   20.6000    2.1160 N.ar      1 FWM        -0.2974
     27 C25       128.7280   18.8870    3.0420 C.ar      1 FWM         0.0110
     28 C27       127.1990   17.1820    3.9330 C.ar      1 FWM        -0.0534
     29 H1        134.1558   15.9142    3.4655 H         1 FWM         0.0538
     30 H2        135.2331   15.6513    4.8786 H         1 FWM         0.0538
     31 H3        131.8063   18.8015    4.4953 H         1 FWM         0.0716
     32 H4        132.1579   20.7027    2.9221 H         1 FWM         0.0775
     33 H5        128.1766   20.2933    1.4543 H         1 FWM         0.0870
     34 H6        126.6464   18.5578    2.3990 H         1 FWM         0.0659
     35 H7        128.0438   15.9315    5.5111 H         1 FWM         0.0675
     36 H8        137.0600   13.4039    3.5038 H         1 FWM         0.0505
     37 H9        136.2086   14.9825    3.4047 H         1 FWM         0.0505
     38 H10       136.3596   12.7815    1.3167 H         1 FWM         0.0325
     39 H11       134.5162   15.1770    1.4944 H         1 FWM         0.0269
     40 H12       134.0801   13.4381    1.3803 H         1 FWM         0.0269
     41 H13       134.2928   15.2910   -0.7212 H         1 FWM         0.0265
     42 H14       134.1093   13.5086   -0.8485 H         1 FWM         0.0265
     43 H15       136.0441   14.5637   -2.1668 H         1 FWM         0.0265
     44 H16       136.4599   13.1788   -1.1011 H         1 FWM         0.0265
     45 H17       136.8037   16.1288   -0.4398 H         1 FWM         0.0265
     46 H18       138.1055   14.9905   -0.9261 H         1 FWM         0.0265
     47 H19       138.2595   14.0935    1.1343 H         1 FWM         0.0269
     48 H20       137.4140   15.5885    1.6604 H         1 FWM         0.0269
     49 H21       133.0921   13.1623    5.9688 H         1 FWM         0.0538
     50 H22       132.5352   12.6702    4.3334 H         1 FWM         0.0538
     51 H23       131.1370   14.1660    6.0604 H         1 FWM         0.0498
     52 H24       130.9414   14.1873    4.2749 H         1 FWM         0.0498
     53 H25       133.3720   17.2942    5.1692 H         1 FWM         0.0498
     54 H26       133.4967   15.9872    6.3952 H         1 FWM         0.0498
     55 H27       126.2334   16.6894    3.9395 H         1 FWM         0.0645
@<TRIPOS>BOND
     1    1   17 1  
     2   21    1 1  
     3    2    3 ar 
     4   25    2 ar 
     5    2   27 ar 
     6    3    4 ar 
     7    4   26 ar 
     8    5   26 ar 
     9   27    5 ar 
    10   27    6 ar 
    11   28    6 ar 
    12   25    7 ar 
    13    7   28 ar 
    14    9    8 2  
    15    9   10 1  
    16   17    9 am 
    17   10   11 1  
    18   11   12 1  
    19   11   16 1  
    20   12   13 1  
    21   13   14 1  
    22   15   14 1  
    23   16   15 1  
    24   18   17 1  
    25   19   18 1  
    26   20   19 1  
    27   20   21 1  
    28   22   20 am 
    29   22   23 2  
    30   22   24 2  
    31   22   25 1  
    32    1   29 1  
    33    1   30 1  
    34    3   31 1  
    35    4   32 1  
    36    5   33 1  
    37    6   34 1  
    38    7   35 1  
    39   10   36 1  
    40   10   37 1  
    41   11   38 1  
    42   12   39 1  
    43   12   40 1  
    44   13   41 1  
    45   13   42 1  
    46   14   43 1  
    47   14   44 1  
    48   15   45 1  
    49   15   46 1  
    50   16   47 1  
    51   16   48 1  
    52   18   49 1  
    53   18   50 1  
    54   19   51 1  
    55   19   52 1  
    56   21   53 1  
    57   21   54 1  
    58   28   55 1  
@<TRIPOS>SUBSTRUCTURE
     1 FWM         1

