### 
### Created by X-TOOL on Mon Aug  2 16:11:58 2021
### 

@<TRIPOS>MOLECULE
6d4w_ligand
   49    52     1     0     0
SMALL
GAST_HUCK


@<TRIPOS>ATOM
      1 C10       120.0690    1.7810   -6.3200 C.3       1 FWJ         0.0511
      2 N12       117.7840    2.6000   -6.2080 N.am      1 FWJ        -0.2300
      3 C13       117.3250    1.3540   -5.6410 C.3       1 FWJ         0.0501
      4 C20       114.4390    3.4490   -4.9060 C.ar      1 FWJ        -0.0294
      5 C21       113.3870    3.2970   -3.9950 C.ar      1 FWJ         0.0077
      6 C24       114.6960    5.7390   -4.2330 C.ar      1 FWJ         0.0110
      7 C26       116.4460    7.2440   -5.2690 C.ar      1 FWJ        -0.0534
      8 C28       120.2290   -0.7300   -2.4310 C.ar      1 FWJ        -0.0596
      9 F01       118.7400   -1.3440    0.7990 F         1 FWJ        -0.1890
     10 C02       119.0050   -1.4620   -0.4800 C.ar      1 FWJ         0.1252
     11 C03       118.3500   -2.4510   -1.2870 C.ar      1 FWJ        -0.0345
     12 C04       118.6530   -2.5460   -2.6580 C.ar      1 FWJ        -0.0596
     13 C05       119.6060   -1.6730   -3.2180 C.ar      1 FWJ        -0.0281
     14 C06       119.9740   -1.7330   -4.6950 C.3       1 FWJ         0.0687
     15 C07       120.5000   -0.4000   -5.1760 C.2       1 FWJ         0.1894
     16 O08       121.6040   -0.0970   -5.0290 O.2       1 FWJ        -0.3940
     17 N09       119.6110    0.5200   -5.8400 N.am      1 FWJ        -0.2686
     18 C11       119.1490    2.9410   -5.9230 C.3       1 FWJ         0.0501
     19 C14       118.2700    0.2080   -6.0540 C.3       1 FWJ         0.0511
     20 S15       116.7920    3.6170   -7.0550 S.o2      1 FWJ         0.0729
     21 O16       117.5140    4.1920   -8.2150 O.2       1 FWJ        -0.1499
     22 O17       115.7580    2.8680   -7.6300 O.2       1 FWJ        -0.1499
     23 C18       116.2210    4.9310   -5.9940 C.ar      1 FWJ         0.1236
     24 C19       115.1030    4.7110   -5.0360 C.ar      1 FWJ         0.0243
     25 N22       112.9850    4.3490   -3.1920 N.ar      1 FWJ        -0.2974
     26 C23       113.5960    5.5440   -3.2820 C.ar      1 FWJ         0.0199
     27 C25       115.3540    7.0330   -4.3210 C.ar      1 FWJ        -0.0451
     28 C27       116.8610    6.2000   -6.0850 C.ar      1 FWJ        -0.0287
     29 C29       119.9140   -0.6280   -1.0250 C.ar      1 FWJ        -0.0345
     30 H1        120.1266    1.7388   -7.4177 H         1 FWJ         0.0538
     31 H2        121.0708    1.9707   -5.9073 H         1 FWJ         0.0538
     32 H3        116.3101    1.1391   -6.0067 H         1 FWJ         0.0498
     33 H4        117.3098    1.4364   -4.5442 H         1 FWJ         0.0498
     34 H5        114.7520    2.6086   -5.5150 H         1 FWJ         0.0716
     35 H6        112.8805    2.3417   -3.9178 H         1 FWJ         0.0775
     36 H7        116.9301    8.2117   -5.3349 H         1 FWJ         0.0645
     37 H8        120.9601   -0.0603   -2.8693 H         1 FWJ         0.0551
     38 H9        117.6245   -3.1225   -0.8424 H         1 FWJ         0.0587
     39 H10       118.1573   -3.2845   -3.2776 H         1 FWJ         0.0551
     40 H11       119.0799   -1.9986   -5.2781 H         1 FWJ         0.0652
     41 H12       120.7488   -2.4998   -4.8420 H         1 FWJ         0.0652
     42 H13       119.4274    3.8394   -6.4934 H         1 FWJ         0.0498
     43 H14       119.2580    3.1415   -4.8469 H         1 FWJ         0.0498
     44 H15       118.1230   -0.0026   -7.1236 H         1 FWJ         0.0538
     45 H16       118.0177   -0.6868   -5.4660 H         1 FWJ         0.0538
     46 H17       113.2750    6.3646   -2.6506 H         1 FWJ         0.0870
     47 H18       115.0326    7.8457   -3.6797 H         1 FWJ         0.0659
     48 H19       117.6706    6.3506   -6.7900 H         1 FWJ         0.0675
     49 H20       120.4066    0.1164   -0.4100 H         1 FWJ         0.0587
@<TRIPOS>BOND
     1    1   17 1  
     2   18    1 1  
     3    2    3 1  
     4    2   18 1  
     5   20    2 am 
     6    3   19 1  
     7    4    5 ar 
     8   24    4 ar 
     9    5   25 ar 
    10   24    6 ar 
    11    6   26 ar 
    12    6   27 ar 
    13   27    7 ar 
    14    7   28 ar 
    15   13    8 ar 
    16    8   29 ar 
    17   10    9 1  
    18   11   10 ar 
    19   29   10 ar 
    20   12   11 ar 
    21   13   12 ar 
    22   14   13 1  
    23   15   14 1  
    24   15   16 2  
    25   17   15 am 
    26   19   17 1  
    27   20   21 2  
    28   20   22 2  
    29   23   20 1  
    30   23   24 ar 
    31   23   28 ar 
    32   25   26 ar 
    33    1   30 1  
    34    1   31 1  
    35    3   32 1  
    36    3   33 1  
    37    4   34 1  
    38    5   35 1  
    39    7   36 1  
    40    8   37 1  
    41   11   38 1  
    42   12   39 1  
    43   14   40 1  
    44   14   41 1  
    45   18   42 1  
    46   18   43 1  
    47   19   44 1  
    48   19   45 1  
    49   26   46 1  
    50   27   47 1  
    51   28   48 1  
    52   29   49 1  
@<TRIPOS>SUBSTRUCTURE
     1 FWJ         1

