### 
### Created by X-TOOL on Wed Jan  1 15:39:35 2020
### 

@<TRIPOS>MOLECULE
6d50_ligand
   20    20     1     0     0
SMALL
GAST_HUCK


@<TRIPOS>ATOM
      1 C1         19.0270   -9.5620  -22.6980 C.2       1 GCB         0.2675
      2 C2         17.7060   -8.7100  -22.7750 C.3       1 GCB         0.1834
      3 C3         16.6050   -9.3740  -23.4280 C.3       1 GCB         0.1296
      4 C4         16.9540   -9.7970  -24.7790 C.3       1 GCB         0.1279
      5 C5         18.0920  -10.7690  -24.6900 C.3       1 GCB         0.1679
      6 C6         18.5690  -11.1940  -26.0310 C.2       1 GCB         0.0712
      7 O1         19.7400   -9.6550  -21.7550 O.2       1 GCB        -0.3673
      8 O2         17.2750   -8.3550  -21.4220 O.3       1 GCB        -0.3674
      9 O3         15.4400   -8.4970  -23.5280 O.3       1 GCB        -0.3839
     10 O4         15.9580  -10.4430  -25.4580 O.3       1 GCB        -0.3843
     11 O5         19.3090  -10.2700  -23.9760 O.3       1 GCB        -0.2540
     12 O6A        18.2250  -12.3240  -26.4420 O.co2     1 GCB        -0.5660
     13 O6B        19.3040  -10.4490  -26.7230 O.co2     1 GCB        -0.5660
     14 H1         17.9313   -7.7901  -23.3345 H         1 GCB         0.0881
     15 H2         16.3370  -10.2603  -22.8342 H         1 GCB         0.0675
     16 H3         17.2570   -8.9091  -25.3532 H         1 GCB         0.0670
     17 H4         17.7164  -11.6512  -24.1508 H         1 GCB         0.0848
     18 H5         17.0379   -9.1441  -20.9491 H         1 GCB         0.2136
     19 H6         15.1894   -8.2050  -22.6594 H         1 GCB         0.2102
     20 H7         16.2708  -10.6857  -26.3216 H         1 GCB         0.2102
@<TRIPOS>BOND
     1    1    2 1  
     2    1    7 2  
     3    1   11 1  
     4    2    3 1  
     5    2    8 1  
     6    3    4 1  
     7    3    9 1  
     8    4    5 1  
     9    4   10 1  
    10    5    6 1  
    11    5   11 1  
    12    6   12 ar 
    13    6   13 ar 
    14    2   14 1  
    15    3   15 1  
    16    4   16 1  
    17    5   17 1  
    18    8   18 1  
    19    9   19 1  
    20   10   20 1  
@<TRIPOS>SUBSTRUCTURE
     1 GCB         1

