### 
### Created by X-TOOL on Wed Jan  1 15:39:35 2020
### 

@<TRIPOS>MOLECULE
6d55_ligand
   68    73     1     0     0
SMALL
GAST_HUCK


@<TRIPOS>ATOM
      1 N1         36.9590   28.6180   26.7860 N.pl3     1 FWA        -0.3029
      2 N3         35.8510   28.0030   21.5120 N.pl3     1 FWA        -0.2611
      3 C4         39.4120   28.6100   26.5080 C.3       1 FWA        -0.0121
      4 C5         35.6950   28.9220   26.2940 C.ar      1 FWA         0.0369
      5 C6         34.6540   29.3960   27.1280 C.ar      1 FWA        -0.0496
      6 C7         33.4330   29.6370   26.5750 C.ar      1 FWA         0.0103
      7 C8         33.0240   29.5050   25.3160 C.ar      1 FWA        -0.0450
      8 C10        35.3450   28.7500   24.9510 C.ar      1 FWA         0.0326
      9 C13        36.5540   26.7980   19.9970 C.3       1 FWA         0.0911
     10 C15        37.1310   27.2940   18.6170 C.3       1 FWA        -0.0190
     11 C17        32.8780   28.7140   22.2880 C.3       1 FWA         0.0856
     12 C20        33.3110   32.2960   21.0120 C.ar      1 FWA        -0.0256
     13 C21        34.0390   33.5840   21.3430 C.3       1 FWA        -0.0335
     14 C22        32.4730   32.2330   19.9180 C.ar      1 FWA         0.1253
     15 C24        30.8090   31.1070   18.4440 C.3       1 FWA        -0.0335
     16 N          39.5730   28.5650   27.9810 N.4       1 FWA         0.2359
     17 C          40.8750   27.8970   28.3280 C.3       1 FWA        -0.0430
     18 C1         38.4400   27.8310   28.6370 C.3       1 FWA        -0.0121
     19 C11        35.4050   28.2660   22.8400 C.2       1 FWA         0.2156
     20 C12        37.1620   27.3310   21.2930 C.3       1 FWA         0.0531
     21 C14        36.7340   25.3320   19.5760 C.3       1 FWA        -0.0190
     22 C16        35.1200   27.2570   20.4340 C.3       1 FWA         0.0531
     23 C18        32.8050   29.9500   21.4490 C.ar      1 FWA        -0.0317
     24 C19        33.5110   31.1600   21.7920 C.ar      1 FWA        -0.0652
     25 C2         37.0710   28.5440   28.2870 C.3       1 FWA         0.0660
     26 C23        31.7740   31.0650   19.6070 C.ar      1 FWA        -0.0256
     27 C25        31.9310   29.9300   20.3510 C.ar      1 FWA        -0.0652
     28 C3         38.0670   29.3140   26.1770 C.3       1 FWA         0.0660
     29 C9         34.0660   29.0120   24.4830 C.ar      1 FWA         0.0697
     30 F          32.2810   33.2890   19.1220 F         1 FWA        -0.2007
     31 N2         36.2110   28.2750   23.9250 N.2       1 FWA        -0.3180
     32 N4         37.1460   25.8400   18.1620 N.4       1 FWA         0.2283
     33 N5         34.0690   28.6820   23.1180 N.pl3     1 FWA        -0.2103
     34 CL         32.1380   30.1700   27.6950 Cl        1 FWA        -0.0853
     35 H1         39.4035   27.5866   26.1048 H         1 FWA         0.0834
     36 H2         40.2446   29.1732   26.0613 H         1 FWA         0.0834
     37 H3         34.8252   29.5637   28.1852 H         1 FWA         0.0395
     38 H4         32.0248   29.7427   24.9695 H         1 FWA         0.0419
     39 H5         38.1238   27.7636   18.6791 H         1 FWA         0.0822
     40 H6         36.4527   27.9446   18.0455 H         1 FWA         0.0822
     41 H7         32.8849   27.8362   21.6252 H         1 FWA         0.0751
     42 H8         31.9920   28.6751   22.9388 H         1 FWA         0.0751
     43 H9         34.6540   33.4367   22.2431 H         1 FWA         0.0381
     44 H10        33.3056   34.3829   21.5268 H         1 FWA         0.0381
     45 H11        34.6857   33.8669   20.4994 H         1 FWA         0.0381
     46 H12        30.3378   30.1204   18.3227 H         1 FWA         0.0381
     47 H13        31.3537   31.3686   17.5248 H         1 FWA         0.0381
     48 H14        30.0333   31.8624   18.6382 H         1 FWA         0.0381
     49 H15        39.5875   29.5103   28.3306 H         1 FWA         0.2032
     50 H16        40.9909   27.8655   29.4214 H         1 FWA         0.0778
     51 H17        41.7075   28.4651   27.8873 H         1 FWA         0.0778
     52 H18        40.8789   26.8719   27.9292 H         1 FWA         0.0778
     53 H19        38.5853   27.8329   29.7274 H         1 FWA         0.0834
     54 H20        38.4160   26.7936   28.2721 H         1 FWA         0.0834
     55 H21        37.4190   26.5615   22.0359 H         1 FWA         0.0537
     56 H22        38.0158   28.0115   21.1595 H         1 FWA         0.0537
     57 H23        35.8101   24.7353   19.5949 H         1 FWA         0.0822
     58 H24        37.5277   24.7962   20.1172 H         1 FWA         0.0822
     59 H25        34.5846   27.8850   19.7067 H         1 FWA         0.0537
     60 H26        34.4551   26.4540   20.7848 H         1 FWA         0.0537
     61 H27        34.1846   31.1846   22.6410 H         1 FWA         0.0430
     62 H28        36.2315   27.9630   28.6964 H         1 FWA         0.0566
     63 H29        37.0578   29.5579   28.7134 H         1 FWA         0.0566
     64 H30        31.3882   29.0267   20.0969 H         1 FWA         0.0430
     65 H31        38.0973   30.3457   26.5572 H         1 FWA         0.0566
     66 H32        37.9272   29.3292   25.0860 H         1 FWA         0.0566
     67 H33        38.0546   25.5188   17.8666 H         1 FWA         0.2014
     68 H34        36.4675   25.6341   17.4456 H         1 FWA         0.2014
@<TRIPOS>BOND
     1    4    1 1  
     2    1   25 1  
     3    1   28 1  
     4   19    2 1  
     5    2   20 1  
     6    2   22 1  
     7    3   16 1  
     8   28    3 1  
     9    4    5 ar 
    10    8    4 ar 
    11    5    6 ar 
    12    7    6 ar 
    13    6   34 1  
    14   29    7 ar 
    15    8   29 ar 
    16   31    8 1  
    17    9   10 1  
    18   20    9 1  
    19    9   21 1  
    20   22    9 1  
    21   10   32 1  
    22   23   11 1  
    23   11   33 1  
    24   12   13 1  
    25   12   14 ar 
    26   24   12 ar 
    27   14   26 ar 
    28   14   30 1  
    29   26   15 1  
    30   16   17 1  
    31   18   16 1  
    32   25   18 1  
    33   19   31 2  
    34   33   19 1  
    35   21   32 1  
    36   23   24 ar 
    37   23   27 ar 
    38   26   27 ar 
    39   29   33 1  
    40    3   35 1  
    41    3   36 1  
    42    5   37 1  
    43    7   38 1  
    44   10   39 1  
    45   10   40 1  
    46   11   41 1  
    47   11   42 1  
    48   13   43 1  
    49   13   44 1  
    50   13   45 1  
    51   15   46 1  
    52   15   47 1  
    53   15   48 1  
    54   16   49 1  
    55   17   50 1  
    56   17   51 1  
    57   17   52 1  
    58   18   53 1  
    59   18   54 1  
    60   20   55 1  
    61   20   56 1  
    62   21   57 1  
    63   21   58 1  
    64   22   59 1  
    65   22   60 1  
    66   24   61 1  
    67   25   62 1  
    68   25   63 1  
    69   27   64 1  
    70   28   65 1  
    71   28   66 1  
    72   32   67 1  
    73   32   68 1  
@<TRIPOS>SUBSTRUCTURE
     1 FWA         1

