### 
### Created by X-TOOL on Wed Jan  1 15:39:35 2020
### 

@<TRIPOS>MOLECULE
6d56_ligand
   63    68     1     0     0
SMALL
GAST_HUCK


@<TRIPOS>ATOM
      1 N1         36.4360   29.4800   23.6450 N.2       1 FVM        -0.3161
      2 N3         39.2540   31.5840   26.0950 N.2       1 FVM        -0.2390
      3 C4         33.0230   28.9860   22.1860 C.3       1 FVM         0.0860
      4 C5         35.6350   29.0700   22.6350 C.2       1 FVM         0.2181
      5 C6         35.5560   29.8490   24.6770 C.ar      1 FVM         0.0101
      6 C7         35.8590   30.3650   25.9340 C.ar      1 FVM        -0.0473
      7 C8         34.8170   30.6170   26.8110 C.ar      1 FVM        -0.0708
      8 C10        33.1410   29.8920   25.1490 C.ar      1 FVM        -0.0383
      9 C13        38.1290   30.0140   27.1210 C.2       1 FVM         0.0729
     10 C15        37.9660   31.6780   25.5790 C.2       1 FVM         0.0049
     11 C17        35.5060   27.3200   20.7510 C.3       1 FVM         0.0535
     12 C20        37.4090   25.6530   19.8840 C.3       1 FVM        -0.0190
     13 C21        37.4600   27.9370   21.3450 C.3       1 FVM         0.0535
     14 C22        33.5070   31.3900   21.5810 C.ar      1 FVM        -0.0652
     15 C24        34.0390   33.7950   21.0480 C.3       1 FVM        -0.0335
     16 N          34.2430   29.1720   22.9800 N.pl3     1 FVM        -0.2081
     17 C          30.8010   31.1760   18.2840 C.3       1 FVM        -0.0335
     18 C1         31.7680   31.2110   19.3990 C.ar      1 FVM        -0.0256
     19 C11        34.2110   29.6430   24.2950 C.ar      1 FVM         0.0734
     20 C12        37.2260   30.6680   26.2230 C.2       1 FVM        -0.0011
     21 C14        37.8480   28.8800   28.0310 C.3       1 FVM         0.0005
     22 C16        37.5530   32.6890   24.5660 C.3       1 FVM        -0.0288
     23 C18        36.9090   27.0810   20.1870 C.3       1 FVM         0.0913
     24 C19        37.2440   27.4880   18.7380 C.3       1 FVM        -0.0190
     25 C2         31.9620   30.1020   20.2080 C.ar      1 FVM        -0.0652
     26 C23        33.3330   32.5100   20.7700 C.ar      1 FVM        -0.0256
     27 C25        32.4720   32.4000   19.6860 C.ar      1 FVM         0.1253
     28 C3         32.8310   30.1920   21.3030 C.ar      1 FVM        -0.0317
     29 C9         33.5020   30.3530   26.3890 C.ar      1 FVM         0.0151
     30 F          32.3200   33.4350   18.8920 F         1 FVM        -0.2007
     31 N2         39.3680   30.5890   27.0280 N.pl3     1 FVM        -0.2239
     32 N4         36.0870   28.5890   21.3660 N.pl3     1 FVM        -0.2600
     33 N5         37.7510   26.0900   18.4730 N.4       1 FVM         0.2283
     34 CL         32.2390   30.5300   27.5540 Cl        1 FVM        -0.0836
     35 H1         32.1580   28.8773   22.8568 H         1 FVM         0.0751
     36 H2         33.1204   28.0840   21.5640 H         1 FVM         0.0751
     37 H3         35.0113   31.0097   27.8025 H         1 FVM         0.0441
     38 H4         32.1086   29.7347   24.8584 H         1 FVM         0.0475
     39 H5         35.1623   26.5676   21.4760 H         1 FVM         0.0538
     40 H6         34.7236   27.4858   19.9958 H         1 FVM         0.0538
     41 H7         36.6286   24.8799   19.9405 H         1 FVM         0.0822
     42 H8         38.2774   25.3420   20.4833 H         1 FVM         0.0822
     43 H9         38.2894   28.6071   21.0748 H         1 FVM         0.0538
     44 H10        37.7229   27.3763   22.2541 H         1 FVM         0.0538
     45 H11        34.1716   31.4448   22.4356 H         1 FVM         0.0430
     46 H12        34.6699   33.6808   21.9419 H         1 FVM         0.0381
     47 H13        33.2988   34.5901   21.2208 H         1 FVM         0.0381
     48 H14        34.6688   34.0612   20.1863 H         1 FVM         0.0381
     49 H15        30.3559   30.1724   18.2161 H         1 FVM         0.0381
     50 H16        31.3183   31.4121   17.3424 H         1 FVM         0.0381
     51 H17        30.0083   31.9173   18.4627 H         1 FVM         0.0381
     52 H18        38.7622   28.6184   28.5840 H         1 FVM         0.0453
     53 H19        37.5141   28.0122   27.4433 H         1 FVM         0.0453
     54 H20        37.0591   29.1670   28.7418 H         1 FVM         0.0453
     55 H21        36.4885   32.5525   24.3246 H         1 FVM         0.0379
     56 H22        38.1550   32.5616   23.6542 H         1 FVM         0.0379
     57 H23        37.7104   33.6995   24.9711 H         1 FVM         0.0379
     58 H24        38.0138   28.2695   18.6560 H         1 FVM         0.0822
     59 H25        36.3683   27.7713   18.1357 H         1 FVM         0.0822
     60 H26        31.4456   29.1730   19.9950 H         1 FVM         0.0430
     61 H27        40.2141   30.3262   27.5534 H         1 FVM         0.2504
     62 H28        37.2344   25.5995   17.7598 H         1 FVM         0.2014
     63 H29        38.7360   26.0487   18.2629 H         1 FVM         0.2014
@<TRIPOS>BOND
     1    4    1 2  
     2    5    1 1  
     3   10    2 2  
     4    2   31 1  
     5    3   16 1  
     6   28    3 1  
     7   16    4 1  
     8    4   32 1  
     9    5    6 ar 
    10   19    5 ar 
    11    6    7 ar 
    12    6   20 1  
    13   29    7 ar 
    14   19    8 ar 
    15    8   29 ar 
    16   20    9 2  
    17    9   21 1  
    18    9   31 1  
    19   20   10 1  
    20   10   22 1  
    21   11   23 1  
    22   32   11 1  
    23   23   12 1  
    24   12   33 1  
    25   13   23 1  
    26   32   13 1  
    27   14   26 ar 
    28   28   14 ar 
    29   26   15 1  
    30   16   19 1  
    31   18   17 1  
    32   25   18 ar 
    33   18   27 ar 
    34   23   24 1  
    35   24   33 1  
    36   25   28 ar 
    37   26   27 ar 
    38   27   30 1  
    39   29   34 1  
    40    3   35 1  
    41    3   36 1  
    42    7   37 1  
    43    8   38 1  
    44   11   39 1  
    45   11   40 1  
    46   12   41 1  
    47   12   42 1  
    48   13   43 1  
    49   13   44 1  
    50   14   45 1  
    51   15   46 1  
    52   15   47 1  
    53   15   48 1  
    54   17   49 1  
    55   17   50 1  
    56   17   51 1  
    57   21   52 1  
    58   21   53 1  
    59   21   54 1  
    60   22   55 1  
    61   22   56 1  
    62   22   57 1  
    63   24   58 1  
    64   24   59 1  
    65   25   60 1  
    66   31   61 1  
    67   33   62 1  
    68   33   63 1  
@<TRIPOS>SUBSTRUCTURE
     1 FVM         1

