### 
### Created by X-TOOL on Wed Jan  1 15:39:35 2020
### 

@<TRIPOS>MOLECULE
6d59_ligand
   62    66     1     0     0
SMALL
GAST_HUCK


@<TRIPOS>ATOM
      1 N1         36.5290   29.3920   23.3890 N.2       1 FVJ        -0.3161
      2 N3         39.6070   30.7970   26.5990 N.2       1 FVJ        -0.2390
      3 C4         33.0730   28.9940   22.1090 C.3       1 FVJ         0.0860
      4 C5         35.6470   28.9440   22.4770 C.2       1 FVJ         0.2184
      5 C6         35.7290   29.8570   24.4580 C.ar      1 FVJ         0.0101
      6 C7         36.1160   30.4640   25.6520 C.ar      1 FVJ        -0.0473
      7 C8         35.1100   30.7880   26.5570 C.ar      1 FVJ        -0.0708
      8 C10        33.3330   29.9560   25.0680 C.ar      1 FVJ        -0.0383
      9 C13        38.2910   31.7680   25.1650 C.2       1 FVJ         0.0729
     10 C15        38.3760   30.1970   26.7990 C.2       1 FVJ         0.0049
     11 C17        37.2910   28.5540   20.7720 C.3       1 FVJ         0.0762
     12 C20        35.5410   26.8980   21.0990 C.3       1 FVJ         0.0762
     13 C21        31.9470   30.2650   20.2300 C.ar      1 FVJ        -0.0652
     14 C22        31.7160   31.4290   19.4930 C.ar      1 FVJ        -0.0256
     15 C24        32.4400   32.5950   19.8090 C.ar      1 FVJ         0.1253
     16 N          34.3030   29.1110   22.8860 N.pl3     1 FVJ        -0.2081
     17 C          34.0910   33.9170   21.1440 C.3       1 FVJ        -0.0335
     18 C1         33.3760   32.6300   20.8330 C.ar      1 FVJ        -0.0256
     19 C11        34.3610   29.6480   24.1760 C.ar      1 FVJ         0.0734
     20 C12        37.5050   30.7940   25.8800 C.2       1 FVJ        -0.0011
     21 C14        37.8280   32.6960   24.1180 C.3       1 FVJ         0.0005
     22 C16        38.1280   29.1540   27.8050 C.3       1 FVJ        -0.0288
     23 C18        37.3560   28.1860   19.2770 C.3       1 FVJ        -0.0123
     24 C19        35.6010   26.4590   19.6280 C.3       1 FVJ        -0.0123
     25 C2         33.6040   31.4550   21.5550 C.ar      1 FVJ        -0.0652
     26 C23        30.7060   31.4670   18.3950 C.3       1 FVJ        -0.0335
     27 C3         32.8810   30.2690   21.2600 C.ar      1 FVJ        -0.0317
     28 C9         33.7660   30.5090   26.2470 C.ar      1 FVJ         0.0151
     29 F          32.2190   33.6940   19.0860 F         1 FVJ        -0.2007
     30 N2         39.5820   31.7480   25.6150 N.pl3     1 FVJ        -0.2239
     31 N4         35.9000   28.3350   21.2120 N.pl3     1 FVJ        -0.2518
     32 N5         36.9190   26.7830   19.0300 N.4       1 FVJ         0.2299
     33 CL         32.5550   30.8430   27.4650 Cl        1 FVJ        -0.0836
     34 H1         32.2180   28.8746   22.7907 H         1 FVJ         0.0751
     35 H2         33.1390   28.1183   21.4466 H         1 FVJ         0.0751
     36 H3         35.3618   31.2558   27.5019 H         1 FVJ         0.0441
     37 H4         32.2868   29.7748   24.8494 H         1 FVJ         0.0475
     38 H5         37.5700   29.6086   20.9136 H         1 FVJ         0.0581
     39 H6         37.9745   27.9133   21.3485 H         1 FVJ         0.0581
     40 H7         36.2497   26.2975   21.6882 H         1 FVJ         0.0581
     41 H8         34.5220   26.7451   21.4841 H         1 FVJ         0.0581
     42 H9         31.3984   29.3591   19.9990 H         1 FVJ         0.0430
     43 H10        34.7896   33.7560   21.9783 H         1 FVJ         0.0381
     44 H11        33.3563   34.6862   21.4243 H         1 FVJ         0.0381
     45 H12        34.6498   34.2497   20.2569 H         1 FVJ         0.0381
     46 H13        38.6728   33.3101   23.7726 H         1 FVJ         0.0453
     47 H14        37.0434   33.3491   24.5277 H         1 FVJ         0.0453
     48 H15        37.4223   32.1216   23.2721 H         1 FVJ         0.0453
     49 H16        37.0731   28.8455   27.7609 H         1 FVJ         0.0379
     50 H17        38.3528   29.5496   28.8065 H         1 FVJ         0.0379
     51 H18        38.7725   28.2864   27.6003 H         1 FVJ         0.0379
     52 H19        38.3923   28.3024   18.9269 H         1 FVJ         0.0834
     53 H20        36.7003   28.8668   18.7144 H         1 FVJ         0.0834
     54 H21        34.8127   26.9798   19.0647 H         1 FVJ         0.0834
     55 H22        35.4368   25.3729   19.5697 H         1 FVJ         0.0834
     56 H23        34.3414   31.4491   22.3495 H         1 FVJ         0.0430
     57 H24        30.2421   30.4752   18.2891 H         1 FVJ         0.0381
     58 H25        31.2000   31.7433   17.4518 H         1 FVJ         0.0381
     59 H26        29.9315   32.2103   18.6348 H         1 FVJ         0.0381
     60 H27        40.3681   32.3255   25.2840 H         1 FVJ         0.2504
     61 H28        37.6085   26.1606   19.4215 H         1 FVJ         0.2015
     62 H29        36.8618   26.6374   18.0342 H         1 FVJ         0.2015
@<TRIPOS>BOND
     1    4    1 2  
     2    1    5 1  
     3   10    2 2  
     4    2   30 1  
     5    3   16 1  
     6   27    3 1  
     7   16    4 1  
     8    4   31 1  
     9    5    6 ar 
    10    5   19 ar 
    11    6    7 ar 
    12    6   20 1  
    13    7   28 ar 
    14   19    8 ar 
    15    8   28 ar 
    16   20    9 2  
    17    9   21 1  
    18    9   30 1  
    19   20   10 1  
    20   10   22 1  
    21   11   23 1  
    22   31   11 1  
    23   12   24 1  
    24   31   12 1  
    25   13   14 ar 
    26   13   27 ar 
    27   14   15 ar 
    28   14   26 1  
    29   15   18 ar 
    30   15   29 1  
    31   16   19 1  
    32   18   17 1  
    33   18   25 ar 
    34   23   32 1  
    35   24   32 1  
    36   25   27 ar 
    37   28   33 1  
    38    3   34 1  
    39    3   35 1  
    40    7   36 1  
    41    8   37 1  
    42   11   38 1  
    43   11   39 1  
    44   12   40 1  
    45   12   41 1  
    46   13   42 1  
    47   17   43 1  
    48   17   44 1  
    49   17   45 1  
    50   21   46 1  
    51   21   47 1  
    52   21   48 1  
    53   22   49 1  
    54   22   50 1  
    55   22   51 1  
    56   23   52 1  
    57   23   53 1  
    58   24   54 1  
    59   24   55 1  
    60   25   56 1  
    61   26   57 1  
    62   26   58 1  
    63   26   59 1  
    64   30   60 1  
    65   32   61 1  
    66   32   62 1  
@<TRIPOS>SUBSTRUCTURE
     1 FVJ         1

