### 
### Created by X-TOOL on Wed Jan  1 15:39:35 2020
### 

@<TRIPOS>MOLECULE
6d5e_ligand
   67    71     1     0     0
SMALL
GAST_HUCK


@<TRIPOS>ATOM
      1 N1         36.3000   28.0970   23.5430 N.2       1 FVG        -0.3180
      2 N3         37.9900   26.2570   25.0620 N.4       1 FVG         0.2201
      3 C4         32.9910   28.8510   22.0830 C.3       1 FVG         0.0856
      4 C5         35.4500   28.1530   22.5110 C.2       1 FVG         0.2159
      5 C6         35.5900   28.6710   24.6220 C.ar      1 FVG         0.0326
      6 C7         35.9630   28.8250   25.9640 C.ar      1 FVG         0.0370
      7 C8         34.9960   29.3760   26.8280 C.ar      1 FVG        -0.0496
      8 C10        33.3520   29.6400   25.0410 C.ar      1 FVG        -0.0450
      9 C13        39.1360   28.5870   27.8830 C.3       1 FVG        -0.0311
     10 C15        38.5160   28.7050   25.5500 C.3       1 FVG         0.0766
     11 C17        36.6880   26.5250   21.1890 C.3       1 FVG         0.0758
     12 C20        35.7450   28.4990   20.0760 C.3       1 FVG         0.0758
     13 C21        31.9440   30.0870   20.2370 C.ar      1 FVG        -0.0652
     14 C22        31.6770   31.2490   19.5250 C.ar      1 FVG        -0.0256
     15 C24        32.3320   32.4260   19.9080 C.ar      1 FVG         0.1253
     16 N          34.2250   28.7240   22.8300 N.pl3     1 FVG        -0.2103
     17 C          33.8520   33.7780   21.3460 C.3       1 FVG        -0.0335
     18 C1         33.2120   32.4840   20.9670 C.ar      1 FVG        -0.0256
     19 C11        34.3140   29.0700   24.1970 C.ar      1 FVG         0.0697
     20 C12        37.5920   28.5750   27.8520 C.3       1 FVG         0.0264
     21 C14        39.5170   29.2700   26.5720 C.3       1 FVG        -0.0238
     22 C16        39.0310   27.3320   25.0390 C.3       1 FVG        -0.0125
     23 C18        36.3710   25.7080   19.9200 C.3       1 FVG        -0.0123
     24 C19        35.5010   27.6790   18.7980 C.3       1 FVG        -0.0123
     25 C2         33.4740   31.3250   21.6710 C.ar      1 FVG        -0.0652
     26 C23        30.7010   31.2870   18.3960 C.3       1 FVG        -0.0335
     27 C3         32.8330   30.1330   21.3070 C.ar      1 FVG        -0.0317
     28 C9         33.7370   29.7490   26.3460 C.ar      1 FVG         0.0103
     29 F          32.0890   33.5200   19.2020 F         1 FVG        -0.2007
     30 N2         37.2760   28.3750   26.3880 N.pl3     1 FVG        -0.3050
     31 N4         35.7370   27.6500   21.2590 N.pl3     1 FVG        -0.2529
     32 N5         36.4640   26.5720   18.7270 N.4       1 FVG         0.2299
     33 CL         32.5010   30.3280   27.4720 Cl        1 FVG        -0.0853
     34 H1         38.3880   25.3965   24.7197 H         1 FVG         0.1995
     35 H2         37.2161   26.5261   24.4749 H         1 FVG         0.1995
     36 H3         37.6648   26.1243   26.0068 H         1 FVG         0.1995
     37 H4         32.1550   28.7800   22.7944 H         1 FVG         0.0751
     38 H5         32.9382   28.0146   21.3705 H         1 FVG         0.0751
     39 H6         35.2302   29.5123   27.8776 H         1 FVG         0.0395
     40 H7         32.3813   29.9677   24.6867 H         1 FVG         0.0419
     41 H8         39.5359   27.5630   27.9228 H         1 FVG         0.0285
     42 H9         39.5069   29.1593   28.7460 H         1 FVG         0.0285
     43 H10        38.3126   29.4069   24.7279 H         1 FVG         0.0602
     44 H11        37.7173   26.9096   21.1374 H         1 FVG         0.0580
     45 H12        36.5786   25.8884   22.0793 H         1 FVG         0.0580
     46 H13        34.9527   29.2559   20.1728 H         1 FVG         0.0580
     47 H14        36.7221   28.9986   20.0001 H         1 FVG         0.0580
     48 H15        31.4652   29.1541   19.9624 H         1 FVG         0.0430
     49 H16        34.5162   33.6198   22.2084 H         1 FVG         0.0381
     50 H17        33.0734   34.5081   21.6119 H         1 FVG         0.0381
     51 H18        34.4381   34.1597   20.4970 H         1 FVG         0.0381
     52 H19        37.1830   29.5287   28.2168 H         1 FVG         0.0513
     53 H20        37.1920   27.7487   28.4580 H         1 FVG         0.0513
     54 H21        40.5494   29.0196   26.2868 H         1 FVG         0.0289
     55 H22        39.4145   30.3619   26.6564 H         1 FVG         0.0289
     56 H23        39.3813   27.4552   24.0036 H         1 FVG         0.0835
     57 H24        39.8711   27.0167   25.6753 H         1 FVG         0.0835
     58 H25        35.3526   25.2990   19.9950 H         1 FVG         0.0834
     59 H26        37.0920   24.8823   19.8288 H         1 FVG         0.0834
     60 H27        35.6247   28.3278   17.9184 H         1 FVG         0.0834
     61 H28        34.4786   27.2734   18.8137 H         1 FVG         0.0834
     62 H29        34.1716   31.3372   22.5006 H         1 FVG         0.0430
     63 H30        30.2868   30.2807   18.2354 H         1 FVG         0.0381
     64 H31        31.2111   31.6237   17.4815 H         1 FVG         0.0381
     65 H32        29.8859   31.9845   18.6392 H         1 FVG         0.0381
     66 H33        36.2713   26.0205   17.9055 H         1 FVG         0.2015
     67 H34        37.3963   26.9504   18.6666 H         1 FVG         0.2015
@<TRIPOS>BOND
     1    4    1 2  
     2    1    5 1  
     3   22    2 1  
     4    3   16 1  
     5   27    3 1  
     6   16    4 1  
     7    4   31 1  
     8    5    6 ar 
     9    5   19 ar 
    10    6    7 ar 
    11    6   30 1  
    12    7   28 ar 
    13   19    8 ar 
    14    8   28 ar 
    15    9   20 1  
    16   21    9 1  
    17   10   21 1  
    18   10   22 1  
    19   30   10 1  
    20   11   23 1  
    21   31   11 1  
    22   12   24 1  
    23   31   12 1  
    24   13   14 ar 
    25   13   27 ar 
    26   14   15 ar 
    27   14   26 1  
    28   15   18 ar 
    29   15   29 1  
    30   16   19 1  
    31   18   17 1  
    32   18   25 ar 
    33   20   30 1  
    34   23   32 1  
    35   24   32 1  
    36   25   27 ar 
    37   28   33 1  
    38    2   34 1  
    39    2   35 1  
    40    2   36 1  
    41    3   37 1  
    42    3   38 1  
    43    7   39 1  
    44    8   40 1  
    45    9   41 1  
    46    9   42 1  
    47   10   43 1  
    48   11   44 1  
    49   11   45 1  
    50   12   46 1  
    51   12   47 1  
    52   13   48 1  
    53   17   49 1  
    54   17   50 1  
    55   17   51 1  
    56   20   52 1  
    57   20   53 1  
    58   21   54 1  
    59   21   55 1  
    60   22   56 1  
    61   22   57 1  
    62   23   58 1  
    63   23   59 1  
    64   24   60 1  
    65   24   61 1  
    66   25   62 1  
    67   26   63 1  
    68   26   64 1  
    69   26   65 1  
    70   32   66 1  
    71   32   67 1  
@<TRIPOS>SUBSTRUCTURE
     1 FVG         1

