### 
### Created by X-TOOL on Wed Jan  1 15:39:35 2020
### 

@<TRIPOS>MOLECULE
6d5g_ligand
   63    67     1     0     0
SMALL
GAST_HUCK


@<TRIPOS>ATOM
      1 N1         34.1780   28.6840   22.8260 N.pl3     1 FVD        -0.2065
      2 N3         36.4760   26.6120   18.8340 N.4       1 FVD         0.2299
      3 C4         32.7880   30.0900   21.2450 C.ar      1 FVD        -0.0316
      4 C5         33.0170   28.7920   21.9660 C.3       1 FVD         0.0862
      5 C6         35.3930   28.0880   22.5860 C.2       1 FVD         0.2203
      6 C7         36.6320   26.4590   21.2480 C.3       1 FVD         0.0765
      7 C8         36.4040   25.7060   19.9650 C.3       1 FVD        -0.0122
      8 C10        35.4900   28.4220   20.1470 C.3       1 FVD         0.0765
      9 C13        36.9650   28.3770   26.6040 C.2       1 FVD        -0.0479
     10 C15        39.3930   28.0250   26.5260 C.3       1 FVD        -0.0129
     11 C17        36.9430   28.0280   28.0490 C.3       1 FVD         0.0110
     12 C20        33.1930   29.5760   24.9440 C.ar      1 FVD        -0.0339
     13 C21        34.1610   28.9990   24.1540 C.ar      1 FVD         0.0778
     14 C22        33.4200   31.2610   21.6170 C.ar      1 FVD        -0.0652
     15 C24        33.8740   33.7060   21.3510 C.3       1 FVD        -0.0335
     16 C14        38.0710   28.2990   25.9050 C.2       1 FVD        -0.0419
     17 N5         39.3560   28.1650   27.9750 N.4       1 FVD         0.2394
     18 C16        38.2330   27.4660   28.5990 C.3       1 FVD        -0.0258
     19 C12        35.6870   28.8130   26.0010 C.ar      1 FVD        -0.0370
     20 C18        34.7180   29.3710   26.8020 C.ar      1 FVD        -0.0639
     21 C19        33.4950   29.7590   26.2780 C.ar      1 FVD         0.0202
     22 CL1        32.3110   30.4740   27.3390 Cl        1 FVD        -0.0824
     23 C11        35.3920   28.6150   24.6540 C.ar      1 FVD         0.0164
     24 N4         36.1480   28.0650   23.6410 N.2       1 FVD        -0.3126
     25 N2         35.7730   27.6420   21.3540 N.pl3     1 FVD        -0.2510
     26 C9         35.3790   27.5600   18.9100 C.3       1 FVD        -0.0122
     27 C3         31.8780   30.1160   20.2100 C.ar      1 FVD        -0.0652
     28 C2         31.6090   31.2730   19.5170 C.ar      1 FVD        -0.0256
     29 C1         30.6300   31.2710   18.3840 C.3       1 FVD        -0.0335
     30 C25        32.2690   32.4130   19.9090 C.ar      1 FVD         0.1253
     31 F1         32.0140   33.5390   19.2410 F         1 FVD        -0.2007
     32 C23        33.1600   32.4520   20.9610 C.ar      1 FVD        -0.0256
     33 H1         36.4084   26.0866   17.9765 H         1 FVD         0.2015
     34 H2         37.3528   27.1088   18.8555 H         1 FVD         0.2015
     35 H3         32.1303   28.6039   22.5893 H         1 FVD         0.0752
     36 H4         33.1020   28.0049   21.2023 H         1 FVD         0.0752
     37 H5         37.6834   26.7796   21.2889 H         1 FVD         0.0582
     38 H6         36.4195   25.7896   22.0946 H         1 FVD         0.0582
     39 H7         37.1749   24.9287   19.8578 H         1 FVD         0.0834
     40 H8         35.4100   25.2356   19.9913 H         1 FVD         0.0834
     41 H9         36.3026   29.1483   19.9984 H         1 FVD         0.0582
     42 H10        34.5402   28.9584   20.2889 H         1 FVD         0.0582
     43 H11        40.1297   28.7337   26.1197 H         1 FVD         0.0962
     44 H12        39.6962   26.9975   26.2764 H         1 FVD         0.0962
     45 H13        36.1526   27.2792   28.2054 H         1 FVD         0.0435
     46 H14        36.7015   28.9398   28.6149 H         1 FVD         0.0435
     47 H15        32.2341   29.8741   24.5357 H         1 FVD         0.0512
     48 H16        34.1306   31.2469   22.4354 H         1 FVD         0.0430
     49 H17        34.5293   33.5025   22.2107 H         1 FVD         0.0381
     50 H18        33.1385   34.4767   21.6249 H         1 FVD         0.0381
     51 H19        34.4797   34.0615   20.5044 H         1 FVD         0.0381
     52 H20        38.0191   28.4406   24.8265 H         1 FVD         0.0558
     53 H21        39.2863   29.1452   28.1994 H         1 FVD         0.2028
     54 H22        40.2132   27.7937   28.3536 H         1 FVD         0.2028
     55 H23        38.2945   26.3914   28.3721 H         1 FVD         0.0833
     56 H24        38.2655   27.6132   29.6886 H         1 FVD         0.0833
     57 H25        34.9139   29.5094   27.8591 H         1 FVD         0.0486
     58 H26        34.4282   27.0077   18.9411 H         1 FVD         0.0834
     59 H27        35.3993   28.2053   18.0194 H         1 FVD         0.0834
     60 H28        31.3622   29.2029   19.9358 H         1 FVD         0.0430
     61 H29        30.2274   30.2563   18.2491 H         1 FVD         0.0381
     62 H30        31.1365   31.5901   17.4612 H         1 FVD         0.0381
     63 H31        29.8069   31.9651   18.6094 H         1 FVD         0.0381
@<TRIPOS>BOND
     1    1    4 1  
     2    1    5 1  
     3   13    1 1  
     4    7    2 1  
     5   26    2 1  
     6    4    3 1  
     7    3   14 ar 
     8    3   27 ar 
     9    5   24 2  
    10    5   25 1  
    11    6    7 1  
    12   25    6 1  
    13   25    8 1  
    14    8   26 1  
    15    9   11 1  
    16    9   16 2  
    17   19    9 1  
    18   16   10 1  
    19   10   17 1  
    20   11   18 1  
    21   13   12 ar 
    22   12   21 ar 
    23   23   13 ar 
    24   14   32 ar 
    25   32   15 1  
    26   18   17 1  
    27   19   20 ar 
    28   19   23 ar 
    29   20   21 ar 
    30   21   22 1  
    31   23   24 1  
    32   27   28 ar 
    33   28   29 1  
    34   28   30 ar 
    35   30   31 1  
    36   30   32 ar 
    37    2   33 1  
    38    2   34 1  
    39    4   35 1  
    40    4   36 1  
    41    6   37 1  
    42    6   38 1  
    43    7   39 1  
    44    7   40 1  
    45    8   41 1  
    46    8   42 1  
    47   10   43 1  
    48   10   44 1  
    49   11   45 1  
    50   11   46 1  
    51   12   47 1  
    52   14   48 1  
    53   15   49 1  
    54   15   50 1  
    55   15   51 1  
    56   16   52 1  
    57   17   53 1  
    58   17   54 1  
    59   18   55 1  
    60   18   56 1  
    61   20   57 1  
    62   26   58 1  
    63   26   59 1  
    64   27   60 1  
    65   29   61 1  
    66   29   62 1  
    67   29   63 1  
@<TRIPOS>SUBSTRUCTURE
     1 FVD         1

