### 
### Created by X-TOOL on Wed Jan  1 15:39:35 2020
### 

@<TRIPOS>MOLECULE
6d5h_ligand
   59    63     1     0     0
SMALL
GAST_HUCK


@<TRIPOS>ATOM
      1 N1         36.4600   29.4790   23.1980 N.2       1 FV7        -0.3104
      2 N3         36.8480   26.7740   18.9630 N.4       1 FV7         0.2299
      3 C4         32.9860   29.0480   22.1100 C.3       1 FV7         0.0865
      4 C5         35.5380   28.9860   22.3390 C.2       1 FV7         0.2216
      5 C6         35.7290   29.9830   24.2930 C.ar      1 FV7         0.0212
      6 C7         36.1720   30.6370   25.4570 C.ar      1 FV7        -0.0235
      7 C8         35.2050   30.9800   26.3900 C.ar      1 FV7        -0.0583
      8 C10        33.3870   30.1010   25.0060 C.ar      1 FV7        -0.0298
      9 C13        38.4180   30.3080   26.4560 C.ar      1 FV7        -0.0562
     10 C15        40.3130   31.6270   25.7270 C.ar      1 FV7        -0.0626
     11 C17        38.1540   32.0020   24.8080 C.ar      1 FV7         0.0455
     12 C20        37.3010   28.1630   19.1410 C.3       1 FV7        -0.0122
     13 C21        37.2760   28.4980   20.6370 C.3       1 FV7         0.0768
     14 C22        33.4500   31.5070   21.5230 C.ar      1 FV7        -0.0652
     15 C24        33.9300   33.9280   21.0840 C.3       1 FV7        -0.0335
     16 F          32.1020   33.6760   18.9820 F         1 FV7        -0.2007
     17 C25        32.3070   32.6000   19.7290 C.ar      1 FV7         0.1253
     18 C1         31.6120   31.4090   19.4280 C.ar      1 FV7        -0.0256
     19 C          30.6010   31.4450   18.3440 C.3       1 FV7        -0.0335
     20 C23        33.2150   32.6610   20.7700 C.ar      1 FV7        -0.0256
     21 C3         32.7810   30.3050   21.2420 C.ar      1 FV7        -0.0316
     22 C2         31.8690   30.2610   20.1820 C.ar      1 FV7        -0.0652
     23 N          34.2460   29.1660   22.8070 N.pl3     1 FV7        -0.2050
     24 C11        34.3590   29.7590   24.0780 C.ar      1 FV7         0.0819
     25 C9         33.8540   30.6860   26.1470 C.ar      1 FV7         0.0245
     26 CL         32.6670   31.0260   27.3870 Cl        1 FV7        -0.0814
     27 C12        37.5810   30.9930   25.5790 C.ar      1 FV7        -0.0116
     28 CL1        37.2340   32.9740   23.7220 Cl        1 FV7        -0.0709
     29 C16        39.5000   32.3300   24.8600 C.ar      1 FV7        -0.0489
     30 C14        39.7680   30.6280   26.5220 C.ar      1 FV7        -0.0626
     31 N2         35.9120   28.3580   21.1360 N.pl3     1 FV7        -0.2503
     32 C19        35.5110   26.5010   19.5400 C.3       1 FV7        -0.0122
     33 C18        35.5250   26.9230   21.0310 C.3       1 FV7         0.0768
     34 H1         37.5159   26.1629   19.4062 H         1 FV7         0.2015
     35 H2         36.8142   26.5751   17.9754 H         1 FV7         0.2015
     36 H3         33.0000   28.1541   21.4692 H         1 FV7         0.0752
     37 H4         32.1665   28.9639   22.8389 H         1 FV7         0.0752
     38 H5         35.4932   31.4765   27.3095 H         1 FV7         0.0525
     39 H6         32.3322   29.9169   24.8372 H         1 FV7         0.0545
     40 H7         38.0157   29.5244   27.0877 H         1 FV7         0.0610
     41 H8         41.3713   31.8541   25.7865 H         1 FV7         0.0606
     42 H9         36.6298   28.8442   18.5975 H         1 FV7         0.0834
     43 H10        38.3250   28.2713   18.7542 H         1 FV7         0.0834
     44 H11        37.6191   29.5321   20.7885 H         1 FV7         0.0582
     45 H12        37.9391   27.8084   21.1798 H         1 FV7         0.0582
     46 H13        34.1623   31.5407   22.3394 H         1 FV7         0.0430
     47 H14        34.6020   33.7673   21.9399 H         1 FV7         0.0381
     48 H15        33.1979   34.7098   21.3345 H         1 FV7         0.0381
     49 H16        34.5186   34.2432   20.2098 H         1 FV7         0.0381
     50 H17        30.1498   30.4483   18.2302 H         1 FV7         0.0381
     51 H18        31.0850   31.7382   17.4007 H         1 FV7         0.0381
     52 H19        29.8181   32.1752   18.5968 H         1 FV7         0.0381
     53 H20        31.3603   29.3336   19.9449 H         1 FV7         0.0430
     54 H21        39.9041   33.1186   24.2357 H         1 FV7         0.0620
     55 H22        40.4091   30.0866   27.2083 H         1 FV7         0.0615
     56 H23        35.2842   25.4276   19.4601 H         1 FV7         0.0834
     57 H24        34.7477   27.0784   18.9979 H         1 FV7         0.0834
     58 H25        34.5230   26.7807   21.4620 H         1 FV7         0.0582
     59 H26        36.2514   26.3059   21.5801 H         1 FV7         0.0582
@<TRIPOS>BOND
     1    4    1 2  
     2    1    5 1  
     3   12    2 1  
     4    2   32 1  
     5   21    3 1  
     6    3   23 1  
     7   23    4 1  
     8    4   31 1  
     9    5    6 ar 
    10    5   24 ar 
    11    6    7 ar 
    12    6   27 1  
    13    7   25 ar 
    14   24    8 ar 
    15    8   25 ar 
    16   27    9 ar 
    17    9   30 ar 
    18   29   10 ar 
    19   30   10 ar 
    20   27   11 ar 
    21   11   28 1  
    22   11   29 ar 
    23   13   12 1  
    24   31   13 1  
    25   20   14 ar 
    26   14   21 ar 
    27   20   15 1  
    28   17   16 1  
    29   17   18 ar 
    30   17   20 ar 
    31   18   19 1  
    32   18   22 ar 
    33   21   22 ar 
    34   23   24 1  
    35   25   26 1  
    36   31   33 1  
    37   32   33 1  
    38    2   34 1  
    39    2   35 1  
    40    3   36 1  
    41    3   37 1  
    42    7   38 1  
    43    8   39 1  
    44    9   40 1  
    45   10   41 1  
    46   12   42 1  
    47   12   43 1  
    48   13   44 1  
    49   13   45 1  
    50   14   46 1  
    51   15   47 1  
    52   15   48 1  
    53   15   49 1  
    54   19   50 1  
    55   19   51 1  
    56   19   52 1  
    57   22   53 1  
    58   29   54 1  
    59   30   55 1  
    60   32   56 1  
    61   32   57 1  
    62   33   58 1  
    63   33   59 1  
@<TRIPOS>SUBSTRUCTURE
     1 FV7         1

