### 
### Created by X-TOOL on Wed Jan  1 15:39:35 2020
### 

@<TRIPOS>MOLECULE
6d5j_ligand
   49    52     1     0     0
SMALL
GAST_HUCK


@<TRIPOS>ATOM
      1 N1         36.3860   28.7290   23.6230 N.2       1 FV4        -0.3129
      2 N3         36.7360   26.6560   19.0300 N.4       1 FV4         0.2299
      3 C4         33.0440   28.9050   22.0520 C.3       1 FV4         0.0865
      4 C5         35.5290   28.5490   22.5950 C.2       1 FV4         0.2205
      5 C6         35.5780   29.2540   24.6640 C.ar      1 FV4         0.0119
      6 C7         35.9310   29.6180   25.9700 C.ar      1 FV4        -0.0687
      7 C8         34.9310   30.0880   26.7950 C.ar      1 FV4        -0.0670
      8 C10        33.2140   29.8600   25.0590 C.ar      1 FV4        -0.0306
      9 C13        36.4950   28.1200   19.0380 C.3       1 FV4        -0.0122
     10 C15        36.0340   26.5440   21.3370 C.3       1 FV4         0.0767
     11 C17        31.6570   31.3140   19.5180 C.ar      1 FV4        -0.0256
     12 N          34.2110   28.9370   22.9030 N.pl3     1 FV4        -0.2053
     13 C          33.8710   33.8780   21.2740 C.3       1 FV4        -0.0335
     14 C1         33.2170   32.5690   20.9270 C.ar      1 FV4        -0.0256
     15 C11        34.2320   29.3820   24.2280 C.ar      1 FV4         0.0805
     16 C12        36.7220   28.6460   20.4650 C.3       1 FV4         0.0767
     17 C14        35.8440   25.9190   19.9490 C.3       1 FV4        -0.0122
     18 C16        31.9340   30.1600   20.2380 C.ar      1 FV4        -0.0652
     19 C18        30.6560   31.3320   18.4130 C.3       1 FV4        -0.0335
     20 C19        32.3130   32.5020   19.8670 C.ar      1 FV4         0.1253
     21 C2         33.4860   31.4000   21.6430 C.ar      1 FV4        -0.0652
     22 C3         32.8370   30.2010   21.2920 C.ar      1 FV4        -0.0316
     23 C9         33.6140   30.1880   26.3210 C.ar      1 FV4         0.0230
     24 F          32.0580   33.5810   19.1320 F         1 FV4        -0.2007
     25 N2         35.7460   27.9830   21.3110 N.pl3     1 FV4        -0.2506
     26 CL         32.3910   30.7420   27.4340 Cl        1 FV4        -0.0819
     27 H1         37.6910   26.4861   19.3043 H         1 FV4         0.2015
     28 H2         36.5888   26.3113   18.0943 H         1 FV4         0.2015
     29 H3         32.1581   28.7183   22.6767 H         1 FV4         0.0752
     30 H4         33.1601   28.0865   21.3264 H         1 FV4         0.0752
     31 H5         36.9536   29.5332   26.3195 H         1 FV4         0.0517
     32 H6         35.1629   30.3810   27.8126 H         1 FV4         0.0515
     33 H7         32.1874   29.9619   24.7263 H         1 FV4         0.0539
     34 H8         35.4605   28.3271   18.7268 H         1 FV4         0.0834
     35 H9         37.1922   28.6143   18.3455 H         1 FV4         0.0834
     36 H10        37.0741   26.3914   21.6607 H         1 FV4         0.0582
     37 H11        35.3529   26.0539   22.0483 H         1 FV4         0.0582
     38 H12        34.5464   33.7348   22.1303 H         1 FV4         0.0381
     39 H13        33.0984   34.6159   21.5359 H         1 FV4         0.0381
     40 H14        34.4467   34.2408   20.4097 H         1 FV4         0.0381
     41 H15        36.5736   29.7355   20.4961 H         1 FV4         0.0582
     42 H16        37.7414   28.4050   20.8008 H         1 FV4         0.0582
     43 H17        36.1179   24.8539   19.9714 H         1 FV4         0.0834
     44 H18        34.7974   26.0218   19.6263 H         1 FV4         0.0834
     45 H19        31.4459   29.2278   19.9777 H         1 FV4         0.0430
     46 H20        30.2433   30.3216   18.2757 H         1 FV4         0.0381
     47 H21        31.1430   31.6587   17.4824 H         1 FV4         0.0381
     48 H22        29.8432   32.0288   18.6658 H         1 FV4         0.0381
     49 H23        34.1917   31.4160   22.4657 H         1 FV4         0.0430
@<TRIPOS>BOND
     1    4    1 2  
     2    5    1 1  
     3    9    2 1  
     4   17    2 1  
     5    3   12 1  
     6   22    3 1  
     7   12    4 1  
     8    4   25 1  
     9    5    6 ar 
    10   15    5 ar 
    11    6    7 ar 
    12   23    7 ar 
    13   15    8 ar 
    14    8   23 ar 
    15   16    9 1  
    16   10   17 1  
    17   25   10 1  
    18   18   11 ar 
    19   11   19 1  
    20   11   20 ar 
    21   12   15 1  
    22   14   13 1  
    23   20   14 ar 
    24   14   21 ar 
    25   25   16 1  
    26   18   22 ar 
    27   20   24 1  
    28   21   22 ar 
    29   23   26 1  
    30    2   27 1  
    31    2   28 1  
    32    3   29 1  
    33    3   30 1  
    34    6   31 1  
    35    7   32 1  
    36    8   33 1  
    37    9   34 1  
    38    9   35 1  
    39   10   36 1  
    40   10   37 1  
    41   13   38 1  
    42   13   39 1  
    43   13   40 1  
    44   16   41 1  
    45   16   42 1  
    46   17   43 1  
    47   17   44 1  
    48   18   45 1  
    49   19   46 1  
    50   19   47 1  
    51   19   48 1  
    52   21   49 1  
@<TRIPOS>SUBSTRUCTURE
     1 FV4         1

