### 
### Created by X-TOOL on Mon Aug  2 16:10:40 2021
### 

@<TRIPOS>MOLECULE
6d5w_ligand
   38    41     1     0     0
SMALL
GAST_HUCK


@<TRIPOS>ATOM
      1 C10        31.9240   32.1490   19.4390 C.ar      1 FVV         0.1248
      2 C13        35.8050   28.2180   20.8760 C.ar      1 FVV         0.0379
      3 C15        32.7040   31.3120   21.5380 C.ar      1 FVV        -0.0594
      4 C17        31.8490   30.8630   18.9210 C.ar      1 FVV        -0.0348
      5 C20        37.1480   27.9900   20.5980 C.ar      1 FVV        -0.0071
      6 C21        38.1210   28.2820   21.5410 C.ar      1 FVV        -0.0071
      7 C01        34.4330   29.6030   24.0490 C.cat     1 FVV         0.2150
      8 N02        34.2630   29.0670   22.6410 N.pl3     1 FVV        -0.2113
      9 N03        35.8320   29.5540   24.2040 N.pl3     1 FVV        -0.2220
     10 C04        35.5100   28.7490   22.1350 C.ar      1 FVV         0.1979
     11 C05        36.4600   29.0410   23.0670 C.ar      1 FVV         0.1963
     12 N06        33.5810   30.0150   24.9060 N.pl3     1 FVV        -0.3257
     13 C07        33.0280   28.8510   21.9200 C.3       1 FVV         0.0874
     14 C08        36.4880   29.9800   25.4260 C.3       1 FVV         0.0574
     15 C09        32.6470   30.0140   21.0400 C.ar      1 FVV        -0.0172
     16 F11        31.5780   33.1850   18.6740 F         1 FVV        -0.1893
     17 C12        34.0590   30.4860   26.1970 C.3       1 FVV         0.0250
     18 C14        37.8120   28.8130   22.7970 C.ar      1 FVV         0.0378
     19 C16        32.2100   29.7820   19.7230 C.ar      1 FVV        -0.0594
     20 C18        32.3430   32.3890   20.7380 C.ar      1 FVV        -0.0348
     21 C19        35.5440   30.8470   26.2670 C.3       1 FVV        -0.0048
     22 H1         35.0274   27.9956   20.1543 H         1 FVV         0.0740
     23 H2         33.0322   31.4840   22.5567 H         1 FVV         0.0548
     24 H3         31.5131   30.7015   17.9031 H         1 FVV         0.0587
     25 H4         37.4364   27.5808   19.6365 H         1 FVV         0.0978
     26 H5         39.1596   28.0917   21.2957 H         1 FVV         0.0978
     27 H6         32.5744   30.0140   24.6876 H         1 FVV         0.1778
     28 H7         32.2213   28.6844   22.6490 H         1 FVV         0.0768
     29 H8         33.1424   27.9572   21.2891 H         1 FVV         0.0768
     30 H9         37.3849   30.5636   25.1711 H         1 FVV         0.0612
     31 H10        36.7804   29.0936   26.0080 H         1 FVV         0.0612
     32 H11        33.8693   29.6940   26.9364 H         1 FVV         0.0531
     33 H12        33.4809   31.3830   26.4639 H         1 FVV         0.0531
     34 H13        38.5831   29.0367   23.5253 H         1 FVV         0.0740
     35 H14        32.1546   28.7712   19.3354 H         1 FVV         0.0548
     36 H15        32.3884   33.4010   21.1238 H         1 FVV         0.0587
     37 H16        35.6532   31.8882   25.9293 H         1 FVV         0.0313
     38 H17        35.8603   30.7671   27.3175 H         1 FVV         0.0313
@<TRIPOS>BOND
     1    1    4 ar 
     2    1   16 1  
     3   20    1 ar 
     4    2    5 ar 
     5   10    2 ar 
     6   15    3 ar 
     7    3   20 ar 
     8    4   19 ar 
     9    5    6 ar 
    10   18    6 ar 
    11    8    7 ar 
    12    7    9 ar 
    13    7   12 ar 
    14    8   10 1  
    15   13    8 1  
    16   11    9 1  
    17    9   14 1  
    18   10   11 ar 
    19   11   18 ar 
    20   12   17 1  
    21   13   15 1  
    22   14   21 1  
    23   15   19 ar 
    24   17   21 1  
    25    2   22 1  
    26    3   23 1  
    27    4   24 1  
    28    5   25 1  
    29    6   26 1  
    30   12   27 1  
    31   13   28 1  
    32   13   29 1  
    33   14   30 1  
    34   14   31 1  
    35   17   32 1  
    36   17   33 1  
    37   18   34 1  
    38   19   35 1  
    39   20   36 1  
    40   21   37 1  
    41   21   38 1  
@<TRIPOS>SUBSTRUCTURE
     1 FVV         1

