### 
### Created by X-TOOL on Wed Jan  1 15:39:38 2020
### 

@<TRIPOS>MOLECULE
6d6t_ligand
   36    38     1     0     0
SMALL
GAST_HUCK


@<TRIPOS>ATOM
      1 C01       123.9620  171.0260  157.0500 C.3       1 FYP        -0.0373
      2 C02       123.6070  171.7740  155.8170 C.3       1 FYP         0.0720
      3 C04       122.4610  171.3290  153.8070 C.2       1 FYP         0.2397
      4 C06       121.4090  170.5410  153.1570 C.2       1 FYP         0.1045
      5 C07       120.3830  169.8190  153.6590 C.2       1 FYP         0.1220
      6 C08       119.8360  169.4580  154.9770 C.3       1 FYP         0.0981
      7 C10       119.5310  167.0680  154.5380 C.2       1 FYP         0.2062
      8 C12       118.5010  167.4460  153.5450 C.ar      1 FYP         0.0833
      9 C13       118.5770  168.4840  152.6400 C.ar      1 FYP         0.1181
     10 C15       120.3800  169.7480  151.4770 C.2       1 FYP         0.1123
     11 C17       117.5340  168.7480  151.7670 C.ar      1 FYP        -0.0221
     12 C18       116.4140  167.9590  151.7990 C.ar      1 FYP        -0.0276
     13 C19       116.3680  166.9480  152.7020 C.ar      1 FYP         0.1305
     14 C20       117.3550  166.6620  153.5670 C.ar      1 FYP        -0.0122
     15 C22       121.1400  167.7210  156.1870 C.3       1 FYP         0.0245
     16 F21       115.2640  166.1680  152.7440 F         1 FYP        -0.1880
     17 N09       120.1270  168.0590  155.1990 N.am      1 FYP        -0.2612
     18 N14       119.7230  169.3080  152.5820 N.pl3     1 FYP        -0.1906
     19 N16       121.4000  170.4970  151.7770 N.2       1 FYP        -0.3178
     20 O03       122.7790  170.8820  155.0130 O.3       1 FYP        -0.2838
     21 O05       122.9800  172.2860  153.3080 O.2       1 FYP        -0.3787
     22 O11       119.7670  165.8950  154.7160 O.2       1 FYP        -0.3884
     23 H1        124.5901  171.6585  157.6945 H         1 FYP         0.0255
     24 H2        124.5153  170.1146  156.7795 H         1 FYP         0.0255
     25 H3        123.0436  170.7509  157.5893 H         1 FYP         0.0255
     26 H4        124.5174  172.0482  155.2639 H         1 FYP         0.0607
     27 H5        123.0456  172.6845  156.0736 H         1 FYP         0.0607
     28 H6        118.7484  169.6222  154.9903 H         1 FYP         0.0736
     29 H7        120.3087  170.0689  155.7602 H         1 FYP         0.0736
     30 H8        120.0863  169.5018  150.4576 H         1 FYP         0.1202
     31 H9        117.6033  169.5711  151.0651 H         1 FYP         0.0589
     32 H10       115.5873  168.1380  151.1211 H         1 FYP         0.0624
     33 H11       117.2592  165.8387  154.2657 H         1 FYP         0.0638
     34 H12       121.2480  166.6277  156.2421 H         1 FYP         0.0487
     35 H13       120.8371  168.1095  157.1705 H         1 FYP         0.0487
     36 H14       122.1009  168.1701  155.8954 H         1 FYP         0.0487
@<TRIPOS>BOND
     1    2    1 1  
     2   20    2 1  
     3    4    3 1  
     4    3   20 1  
     5    3   21 2  
     6    5    4 2  
     7    4   19 1  
     8    6    5 1  
     9    5   18 1  
    10   17    6 1  
    11    7    8 1  
    12    7   17 am 
    13    7   22 2  
    14    8    9 ar 
    15    8   14 ar 
    16    9   11 ar 
    17    9   18 1  
    18   18   10 1  
    19   10   19 2  
    20   11   12 ar 
    21   12   13 ar 
    22   13   14 ar 
    23   13   16 1  
    24   17   15 1  
    25    1   23 1  
    26    1   24 1  
    27    1   25 1  
    28    2   26 1  
    29    2   27 1  
    30    6   28 1  
    31    6   29 1  
    32   10   30 1  
    33   11   31 1  
    34   12   32 1  
    35   14   33 1  
    36   15   34 1  
    37   15   35 1  
    38   15   36 1  
@<TRIPOS>SUBSTRUCTURE
     1 FYP         1

