### 
### Created by X-TOOL on Wed Jan  1 15:39:38 2020
### 

@<TRIPOS>MOLECULE
6d6u_ligand
   36    38     1     0     0
SMALL
GAST_HUCK


@<TRIPOS>ATOM
      1 C01       124.1460  170.3170  156.9210 C.3       1 FYP        -0.0373
      2 C02       123.8090  170.8810  155.5870 C.3       1 FYP         0.0720
      3 C04       122.7320  170.1040  153.6450 C.2       1 FYP         0.2397
      4 C06       121.6000  169.3580  153.0870 C.2       1 FYP         0.1045
      5 C07       120.6430  168.5670  153.6270 C.2       1 FYP         0.1220
      6 C08       120.2500  168.0710  154.9570 C.3       1 FYP         0.0981
      7 C10       119.6730  165.7460  154.3600 C.2       1 FYP         0.2062
      8 C12       118.6450  166.2350  153.4110 C.ar      1 FYP         0.0833
      9 C13       118.7310  167.3470  152.6010 C.ar      1 FYP         0.1181
     10 C15       120.3900  168.7420  151.4650 C.2       1 FYP         0.1123
     11 C17       117.7020  167.7020  151.7490 C.ar      1 FYP        -0.0221
     12 C18       116.5750  166.9330  151.7020 C.ar      1 FYP        -0.0276
     13 C19       116.5070  165.8410  152.5050 C.ar      1 FYP         0.1305
     14 C20       117.4900  165.4630  153.3460 C.ar      1 FYP        -0.0122
     15 C22       121.4110  166.1160  155.9810 C.3       1 FYP         0.0245
     16 F21       115.3860  165.0810  152.4600 F         1 FYP        -0.1880
     17 N09       120.4000  166.6320  155.0550 N.am      1 FYP        -0.2612
     18 N14       119.8640  168.1790  152.5770 N.pl3     1 FYP        -0.1906
     19 N16       121.4330  169.4620  151.7230 N.2       1 FYP        -0.3178
     20 O03       122.9270  169.9150  154.9400 O.3       1 FYP        -0.2838
     21 O05       123.4110  170.8320  152.9830 O.2       1 FYP        -0.3787
     22 O11       119.8080  164.5470  154.4590 O.2       1 FYP        -0.3884
     23 H1        124.8132  171.0102  157.4542 H         1 FYP         0.0255
     24 H2        124.6508  169.3481  156.7926 H         1 FYP         0.0255
     25 H3        123.2234  170.1756  157.5030 H         1 FYP         0.0255
     26 H4        124.7231  171.0197  154.9910 H         1 FYP         0.0607
     27 H5        123.2957  171.8471  155.7014 H         1 FYP         0.0607
     28 H6        119.1975  168.3335  155.1394 H         1 FYP         0.0736
     29 H7        120.8843  168.5488  155.7181 H         1 FYP         0.0736
     30 H8        119.9812  168.6044  150.4651 H         1 FYP         0.1202
     31 H9        117.7892  168.5832  151.1237 H         1 FYP         0.0589
     32 H10       115.7553  167.1881  151.0401 H         1 FYP         0.0624
     33 H11       117.3826  164.5755  153.9591 H         1 FYP         0.0638
     34 H12       121.4105  165.0165  155.9488 H         1 FYP         0.0487
     35 H13       121.1791  166.4530  157.0021 H         1 FYP         0.0487
     36 H14       122.4026  166.4910  155.6875 H         1 FYP         0.0487
@<TRIPOS>BOND
     1    2    1 1  
     2   20    2 1  
     3    4    3 1  
     4    3   20 1  
     5    3   21 2  
     6    5    4 2  
     7    4   19 1  
     8    6    5 1  
     9    5   18 1  
    10   17    6 1  
    11    7    8 1  
    12    7   17 am 
    13    7   22 2  
    14    8    9 ar 
    15    8   14 ar 
    16    9   11 ar 
    17    9   18 1  
    18   18   10 1  
    19   10   19 2  
    20   11   12 ar 
    21   12   13 ar 
    22   13   14 ar 
    23   13   16 1  
    24   17   15 1  
    25    1   23 1  
    26    1   24 1  
    27    1   25 1  
    28    2   26 1  
    29    2   27 1  
    30    6   28 1  
    31    6   29 1  
    32   10   30 1  
    33   11   31 1  
    34   12   32 1  
    35   14   33 1  
    36   15   34 1  
    37   15   35 1  
    38   15   36 1  
@<TRIPOS>SUBSTRUCTURE
     1 FYP         1

