### 
### Created by X-TOOL on Mon Aug  2 16:12:55 2021
### 

@<TRIPOS>MOLECULE
6d78_ligand
  124   123     1     0     0
SMALL
GAST_HUCK


@<TRIPOS>ATOM
      1 N         -32.2860  -19.9090   -8.5750 N.4       1 ALA         0.2377
      2 CA        -32.8920  -19.1820   -7.4650 C.3       1 ALA         0.0621
      3 C         -31.8460  -18.8020   -6.4190 C.2       1 ALA         0.2264
      4 O         -30.7010  -19.2510   -6.4780 O.2       1 ALA        -0.3907
      5 CB        -34.0010  -20.0100   -6.8340 C.3       1 ALA        -0.0040
      6 N         -32.2510  -17.9730   -5.4610 N.am      1 ALA        -0.2613
      7 CA        -31.3340  -17.4750   -4.4470 C.3       1 ALA         0.1283
      8 C         -31.0440  -18.5460   -3.4050 C.2       1 ALA         0.2034
      9 O         -31.9480  -19.2530   -2.9490 O.2       1 ALA        -0.3944
     10 CB        -31.9130  -16.2320   -3.7700 C.3       1 ALA        -0.0244
     11 N         -29.7720  -18.6580   -3.0270 N.am      1 ALA        -0.2664
     12 CA        -29.3560  -19.6070   -2.0130 C.3       1 ALA         0.1201
     13 C         -29.0000  -18.9320   -0.7060 C.2       1 ALA         0.2008
     14 O         -28.6820  -19.5970    0.2840 O.2       1 ALA        -0.3947
     15 N         -29.0440  -17.5980   -0.7010 N.am      1 ALA        -0.2637
     16 CA        -28.7770  -16.7860    0.4800 C.3       1 ALA         0.1335
     17 C         -29.7320  -15.5990    0.4690 C.2       1 ALA         0.2040
     18 O         -30.3670  -15.2900   -0.5400 O.2       1 ALA        -0.3944
     19 CB        -27.3130  -16.2940    0.5450 C.3       1 ALA        -0.0037
     20 CG1       -26.9080  -15.6400   -0.7780 C.3       1 ALA        -0.0491
     21 CG2       -26.3680  -17.4320    0.9070 C.3       1 ALA        -0.0582
     22 CD1       -25.4940  -15.1020   -0.7820 C.3       1 ALA        -0.0648
     23 N         -29.8270  -14.9280    1.6150 N.am      1 ALA        -0.2664
     24 CA        -30.6460  -13.7380    1.7120 C.3       1 ALA         0.1201
     25 C         -32.1390  -13.9700    1.7070 C.2       1 ALA         0.2008
     26 O         -32.8950  -13.0130    1.5160 O.2       1 ALA        -0.3947
     27 N         -32.5910  -15.2040    1.9040 N.am      1 ALA        -0.2637
     28 CA        -34.0110  -15.5280    1.9860 C.3       1 ALA         0.1335
     29 C         -34.3040  -15.8500    3.4470 C.2       1 ALA         0.2042
     30 O         -34.0960  -16.9810    3.9030 O.2       1 ALA        -0.3944
     31 CB        -34.3930  -16.6880    1.0600 C.3       1 ALA        -0.0037
     32 CG1       -34.0400  -16.3480   -0.3890 C.3       1 ALA        -0.0491
     33 CG2       -35.8790  -16.9990    1.1770 C.3       1 ALA        -0.0582
     34 CD1       -34.7750  -15.1370   -0.9250 C.3       1 ALA        -0.0648
     35 N         -34.7900  -14.8570    4.1870 N.am      1 ALA        -0.2637
     36 CA        -35.0060  -14.9710    5.6210 C.3       1 ALA         0.1312
     37 C         -36.4690  -14.7040    5.9530 C.2       1 ALA         0.2040
     38 O         -37.1550  -13.9560    5.2500 O.2       1 ALA        -0.3944
     39 CB        -34.1030  -13.9930    6.3880 C.3       1 ALA        -0.0101
     40 CG        -34.1270  -14.0510    7.9160 C.3       1 ALA        -0.0425
     41 CD1       -33.6570  -15.4090    8.4110 C.3       1 ALA        -0.0625
     42 CD2       -33.2780  -12.9400    8.5030 C.3       1 ALA        -0.0625
     43 N         -36.9420  -15.3290    7.0300 N.am      1 ALA        -0.2613
     44 CA        -38.3170  -15.1340    7.4680 C.3       1 ALA         0.1564
     45 C         -38.5360  -13.7030    7.9480 C.2       1 ALA         0.2059
     46 O         -37.6400  -13.0640    8.5060 O.2       1 ALA        -0.3943
     47 CB        -38.6730  -16.1150    8.5880 C.3       1 ALA         0.0924
     48 OG1       -37.7530  -15.9600    9.6760 O.3       1 ALA        -0.3874
     49 CG2       -38.6210  -17.5510    8.0830 C.3       1 ALA        -0.0346
     50 N         -39.7480  -13.2030    7.7250 N.am      1 ALA        -0.2692
     51 CA        -40.0970  -11.8320    8.0850 C.3       1 ALA         0.0967
     52 C         -40.3090  -11.6950    9.5890 C.2       1 ALA         0.0603
     53 O         -40.4620  -12.6840   10.3080 O.co2     1 ALA        -0.5666
     54 CB        -41.3490  -11.3590    7.3210 C.3       1 ALA        -0.0118
     55 CG1       -41.1500  -11.5180    5.8220 C.3       1 ALA        -0.0590
     56 CG2       -42.5810  -12.1210    7.7910 C.3       1 ALA        -0.0590
     57 OXT       -40.3360  -10.5850   10.1210 O.co2     1 ALA        -0.5666
     58 H1        -32.9969  -20.1468   -9.2489 H         1 ALA         0.2015
     59 H2        -31.8553  -20.7522   -8.2292 H         1 ALA         0.2015
     60 H3        -31.5871  -19.3304   -9.0140 H         1 ALA         0.2015
     61 H4        -33.3340  -18.2557   -7.8608 H         1 ALA         0.1095
     62 H5        -34.4477  -19.4493   -5.9997 H         1 ALA         0.0310
     63 H6        -33.5839  -20.9560   -6.4583 H         1 ALA         0.0310
     64 H7        -34.7734  -20.2234   -7.5876 H         1 ALA         0.0310
     65 H8        -33.2084  -17.6852   -5.4371 H         1 ALA         0.1884
     66 H9        -30.3888  -17.1997   -4.9377 H         1 ALA         0.0797
     67 H10       -31.2088  -15.8684   -3.0072 H         1 ALA         0.0277
     68 H11       -32.8708  -16.4869   -3.2929 H         1 ALA         0.0277
     69 H12       -32.0758  -15.4467   -4.5228 H         1 ALA         0.0277
     70 H13       -29.0845  -18.0711   -3.4546 H         1 ALA         0.1881
     71 H14       -28.4749  -20.1536   -2.3803 H         1 ALA         0.0763
     72 H15       -30.1781  -20.3153   -1.8328 H         1 ALA         0.0763
     73 H16       -29.2727  -17.1297   -1.5544 H         1 ALA         0.1883
     74 H17       -28.9733  -17.3953    1.3746 H         1 ALA         0.0803
     75 H18       -27.2443  -15.5328    1.3361 H         1 ALA         0.0345
     76 H19       -27.5973  -14.8066   -0.9789 H         1 ALA         0.0267
     77 H20       -26.9965  -16.3900   -1.5777 H         1 ALA         0.0267
     78 H21       -26.6836  -17.8815    1.8601 H         1 ALA         0.0235
     79 H22       -25.3447  -17.0411    1.0070 H         1 ALA         0.0235
     80 H23       -26.3932  -18.1954    0.1155 H         1 ALA         0.0235
     81 H24       -25.2767  -14.6494   -1.7607 H         1 ALA         0.0230
     82 H25       -24.7882  -15.9244   -0.5935 H         1 ALA         0.0230
     83 H26       -25.3890  -14.3410    0.0053 H         1 ALA         0.0230
     84 H27       -29.3265  -15.2499    2.4187 H         1 ALA         0.1881
     85 H28       -30.4017  -13.0887    0.8584 H         1 ALA         0.0763
     86 H29       -30.3867  -13.2243    2.6495 H         1 ALA         0.0763
     87 H30       -31.9267  -15.9452    2.0006 H         1 ALA         0.1883
     88 H31       -34.5976  -14.6467    1.6873 H         1 ALA         0.0803
     89 H32       -33.8231  -17.5792    1.3614 H         1 ALA         0.0345
     90 H33       -34.2900  -17.2137   -1.0200 H         1 ALA         0.0267
     91 H34       -32.9591  -16.1521   -0.4467 H         1 ALA         0.0267
     92 H35       -36.1216  -17.2419    2.2221 H         1 ALA         0.0235
     93 H36       -36.1258  -17.8570    0.5344 H         1 ALA         0.0235
     94 H37       -36.4632  -16.1228    0.8591 H         1 ALA         0.0235
     95 H38       -34.4714  -14.9552   -1.9665 H         1 ALA         0.0230
     96 H39       -34.5282  -14.2574   -0.3123 H         1 ALA         0.0230
     97 H40       -35.8591  -15.3189   -0.8856 H         1 ALA         0.0230
     98 H41       -35.0171  -13.9932    3.7371 H         1 ALA         0.1883
     99 H42       -34.7554  -15.9959    5.9322 H         1 ALA         0.0800
    100 H43       -34.3970  -12.9748    6.0935 H         1 ALA         0.0315
    101 H44       -33.0676  -14.1826    6.0685 H         1 ALA         0.0315
    102 H45       -35.1647  -13.9042    8.2500 H         1 ALA         0.0298
    103 H46       -33.6826  -15.4274    9.5105 H         1 ALA         0.0232
    104 H47       -32.6285  -15.5895    8.0651 H         1 ALA         0.0232
    105 H48       -34.3197  -16.1929    8.0157 H         1 ALA         0.0232
    106 H49       -33.6366  -11.9689    8.1309 H         1 ALA         0.0232
    107 H50       -32.2292  -13.0827    8.2036 H         1 ALA         0.0232
    108 H51       -33.3524  -12.9624    9.6002 H         1 ALA         0.0232
    109 H52       -36.3434  -15.9418    7.5459 H         1 ALA         0.1884
    110 H53       -38.9829  -15.3220    6.6129 H         1 ALA         0.0826
    111 H54       -39.6914  -15.8973    8.9422 H         1 ALA         0.0639
    112 H55       -37.9775  -16.5704   10.3685 H         1 ALA         0.2101
    113 H56       -38.8797  -18.2375    8.9026 H         1 ALA         0.0257
    114 H57       -37.6065  -17.7764    7.7224 H         1 ALA         0.0257
    115 H58       -39.3392  -17.6763    7.2593 H         1 ALA         0.0257
    116 H59       -40.4411  -13.7837    7.2979 H         1 ALA         0.1875
    117 H60       -39.2568  -11.1825    7.7984 H         1 ALA         0.0729
    118 H61       -41.5023  -10.2912    7.5363 H         1 ALA         0.0336
    119 H62       -42.0524  -11.1759    5.2940 H         1 ALA         0.0234
    120 H63       -40.9668  -12.5768    5.5867 H         1 ALA         0.0234
    121 H64       -40.2870  -10.9163    5.5008 H         1 ALA         0.0234
    122 H65       -42.7015  -11.9895    8.8764 H         1 ALA         0.0234
    123 H66       -42.4602  -13.1902    7.5624 H         1 ALA         0.0234
    124 H67       -43.4712  -11.7337    7.2737 H         1 ALA         0.0234
@<TRIPOS>BOND
     1    1    2 1  
     2    2    3 1  
     3    2    5 1  
     4    3    4 2  
     5    3    6 am 
     6    6    7 1  
     7    7    8 1  
     8    7   10 1  
     9    8    9 2  
    10    8   11 am 
    11   11   12 1  
    12   12   13 1  
    13   13   14 2  
    14   13   15 am 
    15   15   16 1  
    16   16   17 1  
    17   16   19 1  
    18   17   18 2  
    19   17   23 am 
    20   19   20 1  
    21   19   21 1  
    22   20   22 1  
    23   23   24 1  
    24   24   25 1  
    25   25   26 2  
    26   25   27 am 
    27   27   28 1  
    28   28   29 1  
    29   28   31 1  
    30   29   30 2  
    31   29   35 am 
    32   31   32 1  
    33   31   33 1  
    34   32   34 1  
    35   35   36 1  
    36   36   37 1  
    37   36   39 1  
    38   37   38 2  
    39   37   43 am 
    40   39   40 1  
    41   40   41 1  
    42   40   42 1  
    43   43   44 1  
    44   44   45 1  
    45   44   47 1  
    46   45   46 2  
    47   45   50 am 
    48   47   48 1  
    49   47   49 1  
    50   50   51 1  
    51   51   52 1  
    52   51   54 1  
    53   52   53 ar 
    54   52   57 ar 
    55   54   55 1  
    56   54   56 1  
    57    1   58 1  
    58    1   59 1  
    59    1   60 1  
    60    2   61 1  
    61    5   62 1  
    62    5   63 1  
    63    5   64 1  
    64    6   65 1  
    65    7   66 1  
    66   10   67 1  
    67   10   68 1  
    68   10   69 1  
    69   11   70 1  
    70   12   71 1  
    71   12   72 1  
    72   15   73 1  
    73   16   74 1  
    74   19   75 1  
    75   20   76 1  
    76   20   77 1  
    77   21   78 1  
    78   21   79 1  
    79   21   80 1  
    80   22   81 1  
    81   22   82 1  
    82   22   83 1  
    83   23   84 1  
    84   24   85 1  
    85   24   86 1  
    86   27   87 1  
    87   28   88 1  
    88   31   89 1  
    89   32   90 1  
    90   32   91 1  
    91   33   92 1  
    92   33   93 1  
    93   33   94 1  
    94   34   95 1  
    95   34   96 1  
    96   34   97 1  
    97   35   98 1  
    98   36   99 1  
    99   39  100 1  
   100   39  101 1  
   101   40  102 1  
   102   41  103 1  
   103   41  104 1  
   104   41  105 1  
   105   42  106 1  
   106   42  107 1  
   107   42  108 1  
   108   43  109 1  
   109   44  110 1  
   110   47  111 1  
   111   48  112 1  
   112   49  113 1  
   113   49  114 1  
   114   49  115 1  
   115   50  116 1  
   116   51  117 1  
   117   54  118 1  
   118   55  119 1  
   119   55  120 1  
   120   55  121 1  
   121   56  122 1  
   122   56  123 1  
   123   56  124 1  
@<TRIPOS>SUBSTRUCTURE
     1 ALA         1

