### 
### Created by X-TOOL on Wed Jan  1 15:39:37 2020
### 

@<TRIPOS>MOLECULE
6d8e_ligand
   60    63     1     0     0
SMALL
GAST_HUCK


@<TRIPOS>ATOM
      1 C4          0.9370  -52.8840   18.5680 C.2       1 FZP         0.1112
      2 C14         2.5980  -53.1960   29.5700 C.ar      1 FZP         0.1248
      3 C5          1.1970  -53.7420   20.9270 C.ar      1 FZP         0.1895
      4 C6          0.1560  -52.7390   22.8170 C.ar      1 FZP         0.1679
      5 C11         0.9200  -51.8690   27.8330 C.ar      1 FZP        -0.0167
      6 C7          0.6590  -53.7540   23.6350 C.ar      1 FZP         0.0017
      7 C8          1.4470  -54.7560   23.0460 C.ar      1 FZP        -0.0015
      8 C9         -0.9380  -51.4220   24.5390 C.2       1 FZP         0.3882
      9 C10         0.0040  -51.1350   26.8680 C.3       1 FZP         0.1107
     10 C12         0.3750  -52.4600   28.9860 C.ar      1 FZP        -0.0595
     11 C13         1.2200  -53.1300   29.8590 C.ar      1 FZP        -0.0348
     12 N1          0.6030  -51.9310   16.6770 N.pl3     1 FZP        -0.2240
     13 N2          1.4350  -52.8850   17.3080 N.2       1 FZP        -0.2124
     14 C3         -0.1360  -52.0100   18.7480 C.2       1 FZP        -0.0227
     15 N3          1.4260  -53.6770   19.5860 N.pl3     1 FZP        -0.2449
     16 C1          0.9220  -51.7160   15.2350 C.3       1 FZP         0.0550
     17 C15         3.1630  -52.6030   28.4390 C.ar      1 FZP        -0.0348
     18 C16         2.3030  -51.9520   27.5580 C.ar      1 FZP        -0.0595
     19 C17        -1.3760  -50.8980   22.2710 C.ar      1 FZP         0.0876
     20 C18        -0.7880  -49.8880   21.4650 C.ar      1 FZP        -0.0484
     21 C19        -1.5700  -49.1790   20.5450 C.ar      1 FZP        -0.0852
     22 C2         -0.3200  -51.4030   17.5090 C.2       1 FZP         0.0438
     23 C20        -2.9390  -49.4480   20.4090 C.ar      1 FZP        -0.0538
     24 C21        -3.5490  -50.4500   21.1940 C.ar      1 FZP         0.0553
     25 C22        -2.7620  -51.1390   22.1070 C.ar      1 FZP        -0.0145
     26 C23        -5.7800  -50.5790   20.2230 C.2       1 FZP         0.2031
     27 C24        -7.2510  -50.9610   20.3250 C.3       1 FZP         0.0403
     28 C25        -7.6010  -52.0590   19.3110 C.3       1 FZP        -0.0477
     29 F1          3.4200  -53.8470   30.3940 F         1 FZP        -0.1893
     30 N4          0.4360  -52.7700   21.4850 N.ar      1 FZP        -0.2342
     31 N5          1.7050  -54.7350   21.7140 N.ar      1 FZP        -0.2729
     32 N6         -0.6490  -51.6540   23.2430 N.am      1 FZP        -0.1278
     33 N7         -4.9370  -50.7660   21.1460 N.am      1 FZP        -0.2368
     34 O1         -1.9630  -50.8530   24.8750 O.2       1 FZP        -0.3543
     35 O2          0.0010  -51.7750   25.5940 O.3       1 FZP        -0.2406
     36 O3         -5.3930  -50.0960   19.1680 O.2       1 FZP        -0.3849
     37 H1          0.4462  -53.7676   24.6978 H         1 FZP         0.0574
     38 H2          1.8522  -55.5522   23.6600 H         1 FZP         0.0837
     39 H3          0.3566  -50.0996   26.7515 H         1 FZP         0.0769
     40 H4         -1.0188  -51.1307   27.2728 H         1 FZP         0.0769
     41 H5         -0.6876  -52.3934   29.1897 H         1 FZP         0.0548
     42 H6          0.8247  -53.5976   30.7535 H         1 FZP         0.0587
     43 H7         -0.7059  -51.8398   19.6602 H         1 FZP         0.0320
     44 H8          2.1141  -54.3710   19.2608 H         1 FZP         0.2142
     45 H9          0.2365  -50.9647   14.8159 H         1 FZP         0.0593
     46 H10         0.8059  -52.6636   14.6885 H         1 FZP         0.0593
     47 H11         1.9586  -51.3612   15.1377 H         1 FZP         0.0593
     48 H12         4.2301  -52.6477   28.2539 H         1 FZP         0.0587
     49 H13         2.6985  -51.5050   26.6531 H         1 FZP         0.0548
     50 H14         0.2684  -49.6653   21.5620 H         1 FZP         0.0409
     51 H15        -1.1112  -48.4128   19.9305 H         1 FZP         0.0547
     52 H16        -1.0643  -50.6484   17.2591 H         1 FZP         0.0973
     53 H17        -3.5317  -48.8841   19.6979 H         1 FZP         0.0401
     54 H18        -3.2306  -51.8974   22.7236 H         1 FZP         0.0406
     55 H19        -7.8688  -50.0736   20.1231 H         1 FZP         0.0505
     56 H20        -7.4584  -51.3289   21.3407 H         1 FZP         0.0505
     57 H21        -8.6662  -52.3175   19.4035 H         1 FZP         0.0254
     58 H22        -6.9887  -52.9508   19.5102 H         1 FZP         0.0254
     59 H23        -7.3991  -51.6955   18.2926 H         1 FZP         0.0254
     60 H24        -5.3003  -51.2029   21.9689 H         1 FZP         0.2253
@<TRIPOS>BOND
     1    1   13 2  
     2    1   14 1  
     3   15    1 1  
     4   11    2 ar 
     5   17    2 ar 
     6    2   29 1  
     7    3   15 1  
     8   30    3 ar 
     9    3   31 ar 
    10    4    6 ar 
    11    4   30 ar 
    12   32    4 1  
    13    9    5 1  
    14    5   10 ar 
    15    5   18 ar 
    16    6    7 ar 
    17    7   31 ar 
    18   32    8 am 
    19    8   34 2  
    20    8   35 1  
    21   35    9 1  
    22   10   11 ar 
    23   13   12 1  
    24   12   16 1  
    25   22   12 1  
    26   14   22 2  
    27   18   17 ar 
    28   19   20 ar 
    29   25   19 ar 
    30   19   32 1  
    31   21   20 ar 
    32   23   21 ar 
    33   24   23 ar 
    34   24   25 ar 
    35   33   24 1  
    36   26   27 1  
    37   26   33 am 
    38   26   36 2  
    39   27   28 1  
    40    6   37 1  
    41    7   38 1  
    42    9   39 1  
    43    9   40 1  
    44   10   41 1  
    45   11   42 1  
    46   14   43 1  
    47   15   44 1  
    48   16   45 1  
    49   16   46 1  
    50   16   47 1  
    51   17   48 1  
    52   18   49 1  
    53   20   50 1  
    54   21   51 1  
    55   22   52 1  
    56   23   53 1  
    57   25   54 1  
    58   27   55 1  
    59   27   56 1  
    60   28   57 1  
    61   28   58 1  
    62   28   59 1  
    63   33   60 1  
@<TRIPOS>SUBSTRUCTURE
     1 FZP         1

