### 
### Created by X-TOOL on Mon Aug  2 16:12:55 2021
### 

@<TRIPOS>MOLECULE
6d8v_ligand
   23    23     1     0     0
SMALL
GAST_HUCK


@<TRIPOS>ATOM
      1 N          47.6370   56.3180  136.6060 N.4       1 PBE         0.2527
      2 CD         46.6280   57.1210  136.3930 C.3       1 PBE        -0.0287
      3 CA         48.8060   57.1810  136.1610 C.3       1 PBE         0.0334
      4 CB         48.4350   58.5760  136.8070 C.3       1 PBE         0.0074
      5 CG         47.1730   58.6120  136.8000 C.3       1 PBE        -0.0057
      6 CE         47.7070   55.9700  138.0410 C.3       1 PBE        -0.0399
      7 CF         47.5240   55.1090  135.7670 C.3       1 PBE        -0.0399
      8 C          50.1240   56.7420  136.5590 C.2       1 PBE         0.0846
      9 O          51.0830   57.5610  136.5210 O.co2     1 PBE        -0.5643
     10 OXT        50.3370   55.5530  136.9150 O.co2     1 PBE        -0.5643
     11 H1         45.7707   56.8387  137.0218 H         1 PBE         0.0815
     12 H2         46.3307   57.0946  135.3343 H         1 PBE         0.0815
     13 H3         48.8036   57.2563  135.0636 H         1 PBE         0.1026
     14 H4         48.8490   59.4015  136.2094 H         1 PBE         0.0340
     15 H5         48.8182   58.6401  137.8361 H         1 PBE         0.0340
     16 H6         46.8016   58.8859  137.7985 H         1 PBE         0.0320
     17 H7         46.8245   59.3511  136.0636 H         1 PBE         0.0320
     18 H8         46.8410   55.3473  138.3099 H         1 PBE         0.0778
     19 H9         47.6973   56.8909  138.6425 H         1 PBE         0.0778
     20 H10        48.6347   55.4128  138.2384 H         1 PBE         0.0778
     21 H11        47.4741   55.4012  134.7077 H         1 PBE         0.0778
     22 H12        46.6115   54.5581  136.0387 H         1 PBE         0.0778
     23 H13        48.4021   54.4667  135.9292 H         1 PBE         0.0778
@<TRIPOS>BOND
     1    1    2 1  
     2    1    3 1  
     3    1    6 1  
     4    1    7 1  
     5    2    5 1  
     6    3    4 1  
     7    3    8 1  
     8    4    5 1  
     9    8    9 ar 
    10    8   10 ar 
    11    2   11 1  
    12    2   12 1  
    13    3   13 1  
    14    4   14 1  
    15    4   15 1  
    16    5   16 1  
    17    5   17 1  
    18    6   18 1  
    19    6   19 1  
    20    6   20 1  
    21    7   21 1  
    22    7   22 1  
    23    7   23 1  
@<TRIPOS>SUBSTRUCTURE
     1 PBE         1

