### 
### Created by X-TOOL on Wed Jan  1 15:39:37 2020
### 

@<TRIPOS>MOLECULE
6d9x_ligand
   24    26     1     0     0
SMALL
GAST_HUCK


@<TRIPOS>ATOM
      1 C12        -9.7590   24.4710    1.9190 C.ar      1 FZM        -0.0649
      2 C13        -9.0450   26.5180    0.8760 C.ar      1 FZM        -0.0649
      3 C14        -8.9450   25.5940    1.9060 C.ar      1 FZM        -0.0652
      4 C11       -10.6700   24.2810    0.8960 C.ar      1 FZM        -0.0568
      5 C10        -9.9630   26.3300   -0.1470 C.ar      1 FZM        -0.0568
      6 N01       -12.4590   23.8360   -1.4950 N.pl3     1 FZM        -0.2616
      7 C02       -11.7940   24.9830   -1.2360 C.2       1 FZM         0.0902
      8 N03       -13.2450   25.2870   -2.9220 N.pl3     1 FZM        -0.2426
      9 C04       -13.3280   24.0410   -2.5300 C.2       1 FZM         0.1538
     10 C05       -12.2950   25.9380   -2.1360 C.2       1 FZM         0.0722
     11 C06       -10.7690   25.2010   -0.1430 C.ar      1 FZM        -0.0022
     12 C07       -14.0990   25.5250   -3.9520 C.2       1 FZM         0.0036
     13 C08       -14.3010   23.3590   -3.3370 C.2       1 FZM        -0.0731
     14 C09       -14.7890   24.3350   -4.2510 C.2       1 FZM        -0.1124
     15 H1         -9.6818   23.7488    2.7237 H         1 FZM         0.0608
     16 H2         -8.4027   27.3912    0.8705 H         1 FZM         0.0608
     17 H3         -8.2279   25.7503    2.7038 H         1 FZM         0.0589
     18 H4        -11.3124   23.4079    0.9037 H         1 FZM         0.0593
     19 H5        -10.0498   27.0600   -0.9436 H         1 FZM         0.0593
     20 H6        -12.3313   22.9465   -0.9916 H         1 FZM         0.2157
     21 H7        -11.9990   26.9836   -2.2062 H         1 FZM         0.0833
     22 H8        -14.2282   26.4786   -4.4618 H         1 FZM         0.0559
     23 H9        -14.6020   22.3149   -3.2648 H         1 FZM         0.0052
     24 H10       -15.5424   24.1906   -5.0239 H         1 FZM         0.0215
@<TRIPOS>BOND
     1    1    3 ar 
     2    4    1 ar 
     3    2    3 ar 
     4    5    2 ar 
     5   11    4 ar 
     6   11    5 ar 
     7    7    6 1  
     8    6    9 1  
     9    7   10 2  
    10    7   11 1  
    11    9    8 1  
    12    8   10 1  
    13    8   12 1  
    14    9   13 2  
    15   12   14 2  
    16   13   14 1  
    17    1   15 1  
    18    2   16 1  
    19    3   17 1  
    20    4   18 1  
    21    5   19 1  
    22    6   20 1  
    23   10   21 1  
    24   12   22 1  
    25   13   23 1  
    26   14   24 1  
@<TRIPOS>SUBSTRUCTURE
     1 FZM         1

