### 
### Created by X-TOOL on Wed Jan  1 15:39:35 2020
### 

@<TRIPOS>MOLECULE
6dai_ligand
   37    40     1     0     0
SMALL
GAST_HUCK


@<TRIPOS>ATOM
      1 C01        -8.6530   24.4600    3.1680 C.3       1 G2V        -0.0271
      2 C02        -7.8570   25.5330    3.9560 C.3       1 G2V         0.0237
      3 N03        -7.7310   26.7030    3.0760 N.pl3     1 G2V        -0.3305
      4 C04        -9.2210   25.1780    1.9720 C.2       1 G2V        -0.0798
      5 C05        -8.6920   26.4920    1.9310 C.2       1 G2V        -0.0080
      6 C06        -9.0890   27.4810    0.8020 C.3       1 G2V        -0.0154
      7 C07       -10.0500   27.0290   -0.2690 C.3       1 G2V        -0.0353
      8 C08       -10.6090   25.6460   -0.2180 C.3       1 G2V        -0.0134
      9 C09       -11.6160   25.2130   -1.2710 C.2       1 G2V        -0.0184
     10 C10       -12.3580   26.0730   -2.0840 C.2       1 G2V         0.0327
     11 N11       -13.1490   25.3200   -2.8390 N.pl3     1 G2V        -0.2353
     12 C12       -14.1930   25.3870   -3.9150 C.2       1 G2V         0.0454
     13 C13       -14.6510   23.9900   -4.2200 C.2       1 G2V        -0.0456
     14 C14       -13.8530   23.0940   -3.3510 C.3       1 G2V         0.0442
     15 C15       -12.9370   23.9830   -2.4950 C.2       1 G2V         0.1291
     16 N16       -11.9820   23.9380   -1.5360 N.2       1 G2V        -0.3372
     17 C17       -10.2380   24.6970    0.8940 C.3       1 G2V        -0.0371
     18 C18        -6.6290   27.6490    3.0620 C.3       1 G2V         0.0102
     19 H1         -9.4621   24.0483    3.7892 H         1 G2V         0.0344
     20 H2         -7.9867   23.6458    2.8469 H         1 G2V         0.0344
     21 H3         -6.8605   25.1480    4.2183 H         1 G2V         0.0518
     22 H4         -8.3977   25.8067    4.8740 H         1 G2V         0.0518
     23 H5         -8.1597   27.7791    0.2946 H         1 G2V         0.0397
     24 H6         -9.5394   28.3591    1.2879 H         1 G2V         0.0397
     25 H7         -9.5261   27.1271   -1.2312 H         1 G2V         0.0303
     26 H8        -10.9049   27.7208   -0.2447 H         1 G2V         0.0303
     27 H9         -9.7765   25.2718   -0.8319 H         1 G2V         0.0423
     28 H10       -12.2986   27.1603   -2.0963 H         1 G2V         0.0635
     29 H11       -14.5568   26.2951   -4.3935 H         1 G2V         0.0868
     30 H12       -15.4163   23.6946   -4.9363 H         1 G2V         0.0501
     31 H13       -13.2475   22.4132   -3.9674 H         1 G2V         0.0665
     32 H14       -14.5199   22.5065   -2.7028 H         1 G2V         0.0665
     33 H15       -11.1676   24.4327    1.4193 H         1 G2V         0.0345
     34 H16        -9.8132   23.7972    0.4250 H         1 G2V         0.0345
     35 H17        -6.8149   28.4171    2.2969 H         1 G2V         0.0469
     36 H18        -5.6936   27.1189    2.8296 H         1 G2V         0.0469
     37 H19        -6.5439   28.1275    4.0488 H         1 G2V         0.0469
@<TRIPOS>BOND
     1    1    2 1  
     2    1    4 1  
     3    2    3 1  
     4    3    5 1  
     5    3   18 1  
     6    4    5 2  
     7    4   17 1  
     8    5    6 1  
     9    6    7 1  
    10    7    8 1  
    11    8    9 1  
    12    8   17 1  
    13    9   10 2  
    14    9   16 1  
    15   10   11 1  
    16   11   12 1  
    17   11   15 1  
    18   12   13 2  
    19   13   14 1  
    20   14   15 1  
    21   15   16 2  
    22    1   19 1  
    23    1   20 1  
    24    2   21 1  
    25    2   22 1  
    26    6   23 1  
    27    6   24 1  
    28    7   25 1  
    29    7   26 1  
    30    8   27 1  
    31   10   28 1  
    32   12   29 1  
    33   13   30 1  
    34   14   31 1  
    35   14   32 1  
    36   17   33 1  
    37   17   34 1  
    38   18   35 1  
    39   18   36 1  
    40   18   37 1  
@<TRIPOS>SUBSTRUCTURE
     1 G2V         1

