### 
### Created by X-TOOL on Wed Jan  1 15:39:35 2020
### 

@<TRIPOS>MOLECULE
6dak_ligand
   41    44     1     0     0
SMALL
GAST_HUCK


@<TRIPOS>ATOM
      1 O01       -12.0290   23.1100    3.2970 O.2       1 G1Y        -0.3845
      2 C02       -11.7140   23.9350    4.0950 C.2       1 G1Y         0.2068
      3 C03       -12.6730   24.4260    5.1600 C.ar      1 G1Y         0.0500
      4 C04       -12.4630   25.8110    5.7590 C.ar      1 G1Y        -0.0419
      5 C05       -13.4180   26.3230    6.8290 C.ar      1 G1Y        -0.0562
      6 C06       -14.5740   25.4410    7.2890 C.ar      1 G1Y        -0.0575
      7 C07       -14.7790   24.0570    6.6770 C.ar      1 G1Y        -0.0562
      8 C08       -13.8270   23.5430    5.6090 C.ar      1 G1Y        -0.0419
      9 N09       -10.3980   24.5110    4.1040 N.am      1 G1Y        -0.2749
     10 C10        -9.4440   24.0390    3.1370 C.3       1 G1Y         0.0629
     11 C11        -9.6120   24.9150    1.9170 C.ar      1 G1Y        -0.0259
     12 C12        -8.8000   26.1880    1.7920 C.ar      1 G1Y        -0.0629
     13 C13        -8.9510   27.0850    0.5780 C.ar      1 G1Y        -0.0728
     14 C14        -9.9240   26.7040   -0.5250 C.ar      1 G1Y        -0.0681
     15 C15       -10.7270   25.4380   -0.3540 C.ar      1 G1Y        -0.0387
     16 C16       -11.7620   25.0500   -1.3660 C.2       1 G1Y         0.0076
     17 C17       -12.4470   25.9310   -2.1920 C.2       1 G1Y         0.0526
     18 N18       -13.2930   25.1890   -2.9000 N.pl3     1 G1Y        -0.2202
     19 C19       -14.3480   25.2620   -3.9670 C.2       1 G1Y         0.0512
     20 C20       -14.7680   23.8620   -4.3110 C.2       1 G1Y        -0.0432
     21 C21       -14.1270   22.9830   -3.3100 C.3       1 G1Y         0.0471
     22 C22       -13.1590   23.8540   -2.5060 C.2       1 G1Y         0.1367
     23 N23       -12.2060   23.7840   -1.5550 N.2       1 G1Y        -0.3316
     24 C24       -10.6020   24.5340    0.8510 C.ar      1 G1Y        -0.0585
     25 H1        -11.6375   26.4292    5.4251 H         1 G1Y         0.0669
     26 H2        -13.2771   27.3073    7.2606 H         1 G1Y         0.0629
     27 H3        -15.2536   25.7983    8.0542 H         1 G1Y         0.0653
     28 H4        -15.6066   23.4387    7.0054 H         1 G1Y         0.0629
     29 H5        -13.9688   22.5605    5.1734 H         1 G1Y         0.0669
     30 H6        -10.1521   25.2205    4.7644 H         1 G1Y         0.1871
     31 H7         -9.6467   22.9882    2.8827 H         1 G1Y         0.0682
     32 H8         -8.4221   24.1297    3.5338 H         1 G1Y         0.0682
     33 H9         -8.1045   26.4604    2.5776 H         1 G1Y         0.0521
     34 H10        -8.3668   27.9946    0.4977 H         1 G1Y         0.0588
     35 H11       -10.0378   27.3227   -1.4078 H         1 G1Y         0.0523
     36 H12       -12.3176   27.0108   -2.2485 H         1 G1Y         0.0834
     37 H13       -14.7408   26.1739   -4.4143 H         1 G1Y         0.0878
     38 H14       -15.4144   23.5559   -5.1322 H         1 G1Y         0.0516
     39 H15       -13.5780   22.1739   -3.8138 H         1 G1Y         0.0671
     40 H16       -14.8882   22.5504   -2.6442 H         1 G1Y         0.0671
     41 H17       -11.2069   23.6393    0.9438 H         1 G1Y         0.0515
@<TRIPOS>BOND
     1    1    2 2  
     2    2    3 1  
     3    2    9 am 
     4    3    4 ar 
     5    3    8 ar 
     6    4    5 ar 
     7    5    6 ar 
     8    6    7 ar 
     9    7    8 ar 
    10    9   10 1  
    11   10   11 1  
    12   11   12 ar 
    13   11   24 ar 
    14   12   13 ar 
    15   13   14 ar 
    16   14   15 ar 
    17   15   16 1  
    18   15   24 ar 
    19   16   17 2  
    20   16   23 1  
    21   17   18 1  
    22   18   19 1  
    23   18   22 1  
    24   19   20 2  
    25   20   21 1  
    26   21   22 1  
    27   22   23 2  
    28    4   25 1  
    29    5   26 1  
    30    6   27 1  
    31    7   28 1  
    32    8   29 1  
    33    9   30 1  
    34   10   31 1  
    35   10   32 1  
    36   12   33 1  
    37   13   34 1  
    38   14   35 1  
    39   17   36 1  
    40   19   37 1  
    41   20   38 1  
    42   21   39 1  
    43   21   40 1  
    44   24   41 1  
@<TRIPOS>SUBSTRUCTURE
     1 G1Y         1

