### 
### Created by X-TOOL on Wed Jan  1 15:39:35 2020
### 

@<TRIPOS>MOLECULE
6dar_ligand
   57    61     1     0     0
SMALL
GAST_HUCK


@<TRIPOS>ATOM
      1 O01        20.7250   27.5150    5.2660 O.2       1 G2J        -0.3843
      2 C02        21.5680   28.3710    5.5450 C.2       1 G2J         0.2067
      3 C03        22.0240   29.2600    4.4140 C.ar      1 G2J         0.0415
      4 C04        21.7100   30.6370    4.4080 C.ar      1 G2J        -0.0530
      5 C05        22.1220   31.4620    3.3460 C.ar      1 G2J        -0.0649
      6 C06        22.8220   30.9120    2.2590 C.ar      1 G2J        -0.0288
      7 C07        23.1280   29.5290    2.2280 C.ar      1 G2J         0.0960
      8 O08        23.8070   28.9460    1.1800 O.3       1 G2J        -0.3202
      9 C09        24.0560   27.5480    1.1580 C.3       1 G2J         0.0594
     10 C10        22.7320   28.7140    3.3160 C.ar      1 G2J        -0.0135
     11 N11        22.0440   28.5250    6.8220 N.am      1 G2J        -0.2611
     12 C12        23.0570   29.5420    7.1670 C.3       1 G2J         0.0384
     13 C13        23.1860   29.9270    8.6290 C.3       1 G2J        -0.0204
     14 C14        22.2820   30.9400    9.2920 C.3       1 G2J        -0.0481
     15 C15        23.7180   31.2930    8.9970 C.3       1 G2J        -0.0481
     16 C16        21.5980   27.6740    7.9400 C.3       1 G2J         0.0658
     17 C17        22.4170   26.3990    8.0150 C.ar      1 G2J        -0.0260
     18 C18        23.4360   26.2800    8.9770 C.ar      1 G2J        -0.0633
     19 C19        24.2100   25.1100    9.0360 C.ar      1 G2J        -0.0732
     20 C20        23.9730   24.0550    8.1280 C.ar      1 G2J        -0.0686
     21 C21        22.9660   24.1600    7.1430 C.ar      1 G2J        -0.0384
     22 C22        22.7720   23.0920    6.1360 C.2       1 G2J         0.0115
     23 C23        23.7610   22.2940    5.6050 C.2       1 G2J         0.0449
     24 N24        23.1190   21.4990    4.6950 N.pl3     1 G2J        -0.2431
     25 C25        23.5030   20.4380    3.7780 C.3       1 G2J         0.0616
     26 C26        22.1560   20.0390    3.1050 C.3       1 G2J        -0.0088
     27 C27        21.0650   20.9960    3.6520 C.3       1 G2J         0.0273
     28 C28        21.8340   21.7870    4.6350 C.2       1 G2J         0.1178
     29 N29        21.5830   22.7660    5.5130 N.2       1 G2J        -0.3281
     30 C30        22.2000   25.3500    7.0930 C.ar      1 G2J        -0.0589
     31 H1         21.1458   31.0623    5.2301 H         1 G2J         0.0575
     32 H2         21.8994   32.5227    3.3662 H         1 G2J         0.0601
     33 H3         23.1300   31.5501    1.4386 H         1 G2J         0.0578
     34 H4         24.6071   27.2881    0.2422 H         1 G2J         0.0577
     35 H5         23.0997   27.0049    1.1770 H         1 G2J         0.0577
     36 H6         24.6542   27.2682    2.0377 H         1 G2J         0.0577
     37 H7         22.9742   27.6574    3.3083 H         1 G2J         0.0592
     38 H8         22.8130   30.4555    6.6050 H         1 G2J         0.0526
     39 H9         24.0346   29.1595    6.8385 H         1 G2J         0.0526
     40 H10        23.5029   29.0423    9.2007 H         1 G2J         0.0320
     41 H11        21.9556   30.7884   10.3314 H         1 G2J         0.0269
     42 H12        21.4709   31.4118    8.7180 H         1 G2J         0.0269
     43 H13        23.9540   32.0221    8.2079 H         1 G2J         0.0269
     44 H14        24.4387   31.3986    9.8213 H         1 G2J         0.0269
     45 H15        20.5395   27.4131    7.7932 H         1 G2J         0.0684
     46 H16        21.7114   28.2299    8.8824 H         1 G2J         0.0684
     47 H17        23.6236   27.0905    9.6720 H         1 G2J         0.0518
     48 H18        24.9919   25.0164    9.7809 H         1 G2J         0.0587
     49 H19        24.5714   23.1531    8.1876 H         1 G2J         0.0520
     50 H20        24.8210   22.2954    5.8546 H         1 G2J         0.0879
     51 H21        23.9391   19.5867    4.3212 H         1 G2J         0.0623
     52 H22        24.2229   20.8042    3.0313 H         1 G2J         0.0623
     53 H23        21.9037   18.9982    3.3560 H         1 G2J         0.0320
     54 H24        22.2354   20.1439    2.0129 H         1 G2J         0.0320
     55 H25        20.2478   20.4399    4.1346 H         1 G2J         0.0503
     56 H26        20.6541   21.6341    2.8558 H         1 G2J         0.0503
     57 H27        21.4336   25.4583    6.3341 H         1 G2J         0.0511
@<TRIPOS>BOND
     1    1    2 2  
     2    2    3 1  
     3    2   11 am 
     4    3    4 ar 
     5    3   10 ar 
     6    4    5 ar 
     7    5    6 ar 
     8    6    7 ar 
     9    7    8 1  
    10    7   10 ar 
    11    8    9 1  
    12   11   12 1  
    13   11   16 1  
    14   12   13 1  
    15   13   14 1  
    16   13   15 1  
    17   14   15 1  
    18   16   17 1  
    19   17   18 ar 
    20   17   30 ar 
    21   18   19 ar 
    22   19   20 ar 
    23   20   21 ar 
    24   21   22 1  
    25   21   30 ar 
    26   22   23 2  
    27   22   29 1  
    28   23   24 1  
    29   24   25 1  
    30   24   28 1  
    31   25   26 1  
    32   26   27 1  
    33   27   28 1  
    34   28   29 2  
    35    4   31 1  
    36    5   32 1  
    37    6   33 1  
    38    9   34 1  
    39    9   35 1  
    40    9   36 1  
    41   10   37 1  
    42   12   38 1  
    43   12   39 1  
    44   13   40 1  
    45   14   41 1  
    46   14   42 1  
    47   15   43 1  
    48   15   44 1  
    49   16   45 1  
    50   16   46 1  
    51   18   47 1  
    52   19   48 1  
    53   20   49 1  
    54   23   50 1  
    55   25   51 1  
    56   25   52 1  
    57   26   53 1  
    58   26   54 1  
    59   27   55 1  
    60   27   56 1  
    61   30   57 1  
@<TRIPOS>SUBSTRUCTURE
     1 G2J         1

