### 
### Created by X-TOOL on Wed Jan  1 15:39:36 2020
### 

@<TRIPOS>MOLECULE
6das_ligand
   54    58     1     0     0
SMALL
GAST_HUCK


@<TRIPOS>ATOM
      1 C05        32.6360   18.2190  -34.5920 C.ar      1 G2D        -0.0629
      2 C06        31.2840   18.0290  -34.2600 C.ar      1 G2D        -0.0118
      3 C13        36.1650   20.0590  -30.5340 C.3       1 G2D         0.0732
      4 C18        36.7520   18.0740  -27.4600 C.ar      1 G2D        -0.0705
      5 C17        36.8390   18.6470  -28.7190 C.ar      1 G2D        -0.0423
      6 C16        35.8900   19.5760  -29.1400 C.ar      1 G2D        -0.0200
      7 C15        37.8710   18.4110  -29.7770 C.3       1 G2D        -0.0194
      8 C19        35.6900   18.4370  -26.6130 C.ar      1 G2D        -0.0743
      9 C20        34.7300   19.3860  -27.0250 C.ar      1 G2D        -0.0444
     10 C21        33.5840   19.7980  -26.2250 C.2       1 G2D         0.0069
     11 C22        32.8410   18.9870  -25.3770 C.2       1 G2D         0.0420
     12 C24        32.0310   21.0450  -25.4750 C.2       1 G2D         0.1170
     13 C11        31.6680   19.1470  -32.1470 C.ar      1 G2D        -0.0199
     14 C02        33.9260   20.0250  -31.5410 C.2       1 G2D         0.1993
     15 C03        33.0150   19.3330  -32.4890 C.ar      1 G2D         0.0341
     16 C04        33.5030   18.8670  -33.7100 C.ar      1 G2D        -0.0595
     17 C27        30.7580   19.7140  -24.0150 C.3       1 G2D         0.0611
     18 O01        33.5370   21.0020  -30.9150 O.2       1 G2D        -0.3877
     19 C07        30.3630   17.3290  -35.2220 C.3       1 G2D        -0.0307
     20 C08        30.7980   18.4990  -33.0270 C.ar      1 G2D         0.0977
     21 O09        29.4680   18.2720  -32.7820 O.3       1 G2D        -0.3239
     22 C10        28.9450   18.7240  -31.5400 C.3       1 G2D         0.0578
     23 N12        35.1860   19.4890  -31.4270 N.am      1 G2D        -0.2740
     24 C14        37.5820   19.5240  -30.8010 C.3       1 G2D        -0.0128
     25 N23        31.8810   19.8130  -24.9200 N.pl3     1 G2D        -0.2448
     26 C25        31.0020   21.9900  -25.0080 C.3       1 G2D         0.0271
     27 C26        30.2330   21.1610  -23.9450 C.3       1 G2D        -0.0089
     28 N28        33.0520   21.0830  -26.2870 N.2       1 G2D        -0.3295
     29 C29        34.8410   19.9390  -28.3100 C.ar      1 G2D        -0.0640
     30 H1         33.0101   17.8585  -35.5434 H         1 G2D         0.0540
     31 H2         36.1371   21.1567  -30.5998 H         1 G2D         0.0704
     32 H3         37.4938   17.3547  -27.1323 H         1 G2D         0.0529
     33 H4         37.7511   17.4162  -30.2307 H         1 G2D         0.0408
     34 H5         38.8869   18.5066  -29.3661 H         1 G2D         0.0408
     35 H6         35.6076   17.9827  -25.6322 H         1 G2D         0.0507
     36 H7         32.9973   17.9359  -25.1390 H         1 G2D         0.0855
     37 H8         31.2995   19.5083  -31.1937 H         1 G2D         0.0570
     38 H9         34.5457   19.0067  -33.9716 H         1 G2D         0.0560
     39 H10        31.0802   19.3630  -23.0235 H         1 G2D         0.0623
     40 H11        29.9897   19.0346  -24.4127 H         1 G2D         0.0623
     41 H12        30.9248   17.0389  -36.1222 H         1 G2D         0.0378
     42 H13        29.5434   18.0064  -35.5038 H         1 G2D         0.0378
     43 H14        29.9475   16.4299  -34.7435 H         1 G2D         0.0378
     44 H15        27.8749   18.4762  -31.4808 H         1 G2D         0.0574
     45 H16        29.0738   19.8137  -31.4627 H         1 G2D         0.0574
     46 H17        29.4814   18.2319  -30.7154 H         1 G2D         0.0574
     47 H18        35.4292   18.6879  -31.9739 H         1 G2D         0.1871
     48 H19        38.3153   20.3359  -30.6867 H         1 G2D         0.0328
     49 H20        37.6414   19.1171  -31.8213 H         1 G2D         0.0328
     50 H21        30.3381   22.2921  -25.8314 H         1 G2D         0.0502
     51 H22        31.4592   22.8839  -24.5588 H         1 G2D         0.0502
     52 H23        30.4124   21.5773  -22.9428 H         1 G2D         0.0320
     53 H24        29.1549   21.1800  -24.1623 H         1 G2D         0.0320
     54 H25        34.1026   20.6536  -28.6552 H         1 G2D         0.0498
@<TRIPOS>BOND
     1    2    1 ar 
     2    1   16 ar 
     3    2   19 1  
     4   20    2 ar 
     5    3    6 1  
     6   23    3 1  
     7    3   24 1  
     8    5    4 ar 
     9    4    8 ar 
    10    6    5 ar 
    11    7    5 1  
    12    6   29 ar 
    13   24    7 1  
    14    9    8 ar 
    15    9   10 1  
    16   29    9 ar 
    17   10   11 2  
    18   10   28 1  
    19   11   25 1  
    20   12   25 1  
    21   12   26 1  
    22   28   12 2  
    23   15   13 ar 
    24   13   20 ar 
    25   14   15 1  
    26   14   18 2  
    27   14   23 am 
    28   15   16 ar 
    29   25   17 1  
    30   17   27 1  
    31   20   21 1  
    32   21   22 1  
    33   26   27 1  
    34    1   30 1  
    35    3   31 1  
    36    4   32 1  
    37    7   33 1  
    38    7   34 1  
    39    8   35 1  
    40   11   36 1  
    41   13   37 1  
    42   16   38 1  
    43   17   39 1  
    44   17   40 1  
    45   19   41 1  
    46   19   42 1  
    47   19   43 1  
    48   22   44 1  
    49   22   45 1  
    50   22   46 1  
    51   23   47 1  
    52   24   48 1  
    53   24   49 1  
    54   26   50 1  
    55   26   51 1  
    56   27   52 1  
    57   27   53 1  
    58   29   54 1  
@<TRIPOS>SUBSTRUCTURE
     1 G2D         1

