### 
### Created by X-TOOL on Wed Jan  1 15:39:36 2020
### 

@<TRIPOS>MOLECULE
6db3_ligand
   37    40     1     0     0
SMALL
GAST_HUCK


@<TRIPOS>ATOM
      1 N3          1.4540   12.1120   -3.5750 N.pl3     1 G54        -0.2595
      2 C4         -3.0020   17.6710   -5.4660 C.ar      1 G54        -0.0118
      3 N2          2.6500   14.1490   -3.0120 N.ar      1 G54        -0.2589
      4 C7         -4.1740   18.2840   -6.1940 C.3       1 G54        -0.0078
      5 C6         -1.6130   15.7120   -5.4680 C.ar      1 G54        -0.0298
      6 C9         -3.6280   16.0350   -7.1280 C.3       1 G54         0.0557
      7 C13         1.5740   13.4630   -3.4570 C.ar      1 G54         0.1484
      8 C8         -4.3320   17.4040   -7.4570 C.3       1 G54        -0.0370
      9 N5         -4.0120   12.7550   -5.9180 N.1       1 G54        -0.3570
     10 C16        -0.5070   12.9380   -4.2590 C.2       1 G54        -0.0496
     11 C1         -0.8230   16.2300   -4.4390 C.ar      1 G54         0.0254
     12 C2         -1.1470   17.4880   -3.9360 C.ar      1 G54        -0.0270
     13 C3         -2.2210   18.2000   -4.4400 C.ar      1 G54        -0.0251
     14 C5         -2.6970   16.4190   -5.9880 C.ar      1 G54        -0.0173
     15 C10        -2.8430   15.5180   -8.3380 C.3       1 G54        -0.0641
     16 C11         0.3190   15.4450   -3.8970 C.ar      1 G54         0.0577
     17 N1          1.3830   16.1450   -3.4690 N.ar      1 G54        -0.2822
     18 C12         2.4590   15.4690   -3.0490 C.ar      1 G54         0.0654
     19 C14         0.3250   14.0470   -3.9000 C.ar      1 G54         0.0280
     20 C15         0.2100   11.8040   -4.0530 C.2       1 G54         0.0310
     21 N4         -4.6700   15.0750   -6.6600 N.pl3     1 G54        -0.2513
     22 C17        -4.3600   13.8120   -6.2440 C.1       1 G54         0.1789
     23 H1          2.1870   11.4274   -3.3405 H         1 G54         0.2337
     24 H2         -3.9612   19.3276   -6.4688 H         1 G54         0.0505
     25 H3         -5.0823   18.2458   -5.5748 H         1 G54         0.0505
     26 H4         -1.3773   14.7346   -5.8731 H         1 G54         0.0859
     27 H5         -3.8475   17.8844   -8.3198 H         1 G54         0.0218
     28 H6         -5.3972   17.2417   -7.6781 H         1 G54         0.0218
     29 H7         -1.5293   12.9943   -4.6299 H         1 G54         0.0321
     30 H8         -0.5494   17.9150   -3.1387 H         1 G54         0.0869
     31 H9         -2.4568   19.1769   -4.0337 H         1 G54         0.0647
     32 H10        -2.3619   14.5625   -8.0819 H         1 G54         0.0149
     33 H11        -2.0734   16.2528   -8.6170 H         1 G54         0.0149
     34 H12        -3.5300   15.3675   -9.1838 H         1 G54         0.0149
     35 H13         3.2845   16.0739   -2.6916 H         1 G54         0.1015
     36 H14        -0.1529   10.7946   -4.2412 H         1 G54         0.0980
     37 H15        -5.6553   15.3749   -6.6504 H         1 G54         0.1956
@<TRIPOS>BOND
     1    7    1 1  
     2   20    1 1  
     3    2    4 1  
     4    2   13 ar 
     5   14    2 ar 
     6    7    3 ar 
     7   18    3 ar 
     8    8    4 1  
     9    5   11 ar 
    10   14    5 ar 
    11    6    8 1  
    12    6   14 1  
    13    6   15 1  
    14   21    6 1  
    15   19    7 ar 
    16   22    9 3  
    17   19   10 1  
    18   10   20 2  
    19   11   12 ar 
    20   11   16 1  
    21   13   12 ar 
    22   16   17 ar 
    23   16   19 ar 
    24   17   18 ar 
    25   21   22 1  
    26    1   23 1  
    27    4   24 1  
    28    4   25 1  
    29    5   26 1  
    30    8   27 1  
    31    8   28 1  
    32   10   29 1  
    33   12   30 1  
    34   13   31 1  
    35   15   32 1  
    36   15   33 1  
    37   15   34 1  
    38   18   35 1  
    39   20   36 1  
    40   21   37 1  
@<TRIPOS>SUBSTRUCTURE
     1 G54         1

