### 
### Created by X-TOOL on Wed Jan  1 15:39:35 2020
### 

@<TRIPOS>MOLECULE
6dcg_ligand
   92    98     1     0     0
SMALL
GAST_HUCK


@<TRIPOS>ATOM
      1 O2         48.1660   20.0890    7.2260 O.2       1 G67        -0.3908
      2 C21        48.1740   20.6250    8.3260 C.2       1 G67         0.2261
      3 N5         48.2860   21.9570    8.4640 N.am      1 G67        -0.2570
      4 C26        48.1670   22.8800    7.3370 C.3       1 G67         0.0576
      5 C25        46.8770   23.6150    7.4820 C.2       1 G67        -0.0587
      6 C24        46.2050   23.7270    8.7050 C.2       1 G67        -0.0459
      7 C27        44.8310   24.3100    8.8370 C.ar      1 G67        -0.0320
      8 C32        44.1140   24.1820   10.0280 C.ar      1 G67        -0.0593
      9 C31        42.8190   24.6560   10.1300 C.ar      1 G67        -0.0563
     10 C30        42.1920   25.2620    9.0450 C.ar      1 G67        -0.0022
     11 C33        40.7490   25.6000    9.1040 C.2       1 G67         0.1008
     12 N8         40.0660   25.6200   10.2410 N.2       1 G67        -0.1844
     13 N7         38.8340   26.0100    9.8300 N.pl3     1 G67        -0.1805
     14 C35        37.7810   26.2120   10.8150 C.3       1 G67         0.0655
     15 C34        38.8360   26.1920    8.5000 C.2       1 G67         0.1285
     16 N6         40.0350   25.9500    8.0020 N.2       1 G67        -0.2805
     17 C29        42.9130   25.4140    7.8610 C.ar      1 G67        -0.0563
     18 C28        44.2170   24.9560    7.7620 C.ar      1 G67        -0.0593
     19 C23        46.8430   23.1470    9.9750 C.3       1 G67        -0.0074
     20 C22        48.2710   22.6870    9.7320 C.3       1 G67         0.0430
     21 C20        48.0290   19.7780    9.5850 C.3       1 G67         0.0581
     22 N4         47.7000   18.3570    9.2500 N.4       1 G67         0.2521
     23 C18        46.2880   18.1520    8.8370 C.3       1 G67        -0.0297
     24 C17        46.1430   16.6450    8.8340 C.3       1 G67         0.0139
     25 C19        47.7930   17.4770   10.4770 C.3       1 G67        -0.0075
     26 C16        47.1200   16.2100    9.9390 C.3       1 G67         0.1445
     27 S          46.1010   15.4650   11.2870 S.3       1 G67        -0.1479
     28 C36        47.1980   14.8510   12.5660 C.3       1 G67        -0.0187
     29 C15        48.1450   15.2350    9.3770 C.2       1 G67         0.2394
     30 O1         49.3050   15.5730    9.1840 O.2       1 G67        -0.3367
     31 N3         47.6750   13.9810    9.2090 N.am      1 G67        -0.2376
     32 C11        48.3580   12.8950    8.6060 C.ar      1 G67         0.0576
     33 C10        47.7640   11.6350    8.6980 C.ar      1 G67        -0.0443
     34 C12        49.5870   13.0520    7.9560 C.ar      1 G67        -0.0445
     35 C13        50.2460   11.9620    7.4230 C.ar      1 G67        -0.0423
     36 C14        49.6810   10.7090    7.5740 C.ar      1 G67         0.0781
     37 C9         48.4480   10.5190    8.2300 C.ar      1 G67         0.0038
     38 N1         50.1000    9.4830    7.1840 N.pl3     1 G67        -0.2186
     39 N2         49.2350    8.5150    7.5630 N.2       1 G67        -0.2027
     40 C8         48.2110    9.0590    8.2130 C.2       1 G67         0.0598
     41 C6         47.0890    8.2480    8.7670 C.ar      1 G67         0.0061
     42 C5         46.7870    7.0070    8.2230 C.ar      1 G67        -0.0440
     43 C4         45.8140    6.2110    8.7940 C.ar      1 G67        -0.0047
     44 C7         46.3730    8.6470    9.8900 C.ar      1 G67         0.0072
     45 N          45.3940    7.9100   10.4550 N.ar      1 G67        -0.2735
     46 C3         45.1330    6.7270    9.9040 C.ar      1 G67         0.1649
     47 O          44.1540    6.0010   10.5180 O.3       1 G67        -0.2964
     48 C1         43.4020    4.9530    9.8110 C.3       1 G67         0.0794
     49 C2         42.8640    4.0800   10.9060 C.3       1 G67        -0.0340
     50 C          42.3120    5.5380    8.9480 C.3       1 G67        -0.0340
     51 H1         48.1730   22.3182    6.3913 H         1 G67         0.0682
     52 H2         49.0058   23.5915    7.3462 H         1 G67         0.0682
     53 H3         46.4405   24.0833    6.6010 H         1 G67         0.0574
     54 H4         44.5783   23.7050   10.8836 H         1 G67         0.0588
     55 H5         42.2848   24.5543   11.0677 H         1 G67         0.0613
     56 H6         36.8574   26.5242   10.3056 H         1 G67         0.0608
     57 H7         38.0891   26.9924   11.5263 H         1 G67         0.0608
     58 H8         37.6009   25.2720   11.3572 H         1 G67         0.0608
     59 H9         37.9702   26.4965    7.9138 H         1 G67         0.1372
     60 H10        42.4481   25.8959    7.0085 H         1 G67         0.0613
     61 H11        44.7670   25.1009    6.8392 H         1 G67         0.0588
     62 H12        46.2452   22.2877   10.3129 H         1 G67         0.0403
     63 H13        46.8468   23.9210   10.7565 H         1 G67         0.0403
     64 H14        48.9413   23.5572    9.6728 H         1 G67         0.0542
     65 H15        48.5977   22.0274   10.5494 H         1 G67         0.0542
     66 H16        47.2231   20.1953   10.2067 H         1 G67         0.1063
     67 H17        48.9752   19.8041   10.1453 H         1 G67         0.1063
     68 H18        48.3285   18.0407    8.5282 H         1 G67         0.2051
     69 H19        46.1059   18.5676    7.8350 H         1 G67         0.0813
     70 H20        45.5957   18.6133    9.5567 H         1 G67         0.0813
     71 H21        46.4304   16.2206    7.8607 H         1 G67         0.0317
     72 H22        45.1125   16.3450    9.0749 H         1 G67         0.0317
     73 H23        47.2423   17.9027   11.3288 H         1 G67         0.0812
     74 H24        48.8370   17.2928   10.7704 H         1 G67         0.0812
     75 H25        46.6029   14.4041   13.3760 H         1 G67         0.0339
     76 H26        47.7961   15.6828   12.9665 H         1 G67         0.0339
     77 H27        47.8678   14.0895   12.1401 H         1 G67         0.0339
     78 H28        46.7505   13.7994    9.5441 H         1 G67         0.2242
     79 H29        46.7762   11.5276    9.1314 H         1 G67         0.0446
     80 H30        50.0262   14.0393    7.8700 H         1 G67         0.0509
     81 H31        51.1860   12.0859    6.8975 H         1 G67         0.0541
     82 H32        50.9709    9.3084    6.6625 H         1 G67         0.2441
     83 H33        47.3186    6.6606    7.3441 H         1 G67         0.0702
     84 H34        45.5865    5.2273    8.3996 H         1 G67         0.0636
     85 H35        46.6149    9.6044   10.3370 H         1 G67         0.0787
     86 H36        44.0793    4.3713    9.1685 H         1 G67         0.0650
     87 H37        42.2802    3.2580   10.4661 H         1 G67         0.0259
     88 H38        42.2174    4.6765   11.5663 H         1 G67         0.0259
     89 H39        43.6999    3.6653   11.4884 H         1 G67         0.0259
     90 H40        41.7735    4.7262    8.4370 H         1 G67         0.0259
     91 H41        42.7576    6.2101    8.1999 H         1 G67         0.0259
     92 H42        41.6099    6.1042    9.5777 H         1 G67         0.0259
@<TRIPOS>BOND
     1    1    2 2  
     2    2    3 am 
     3    2   21 1  
     4    3    4 1  
     5    3   20 1  
     6    4    5 1  
     7    5    6 2  
     8    6    7 1  
     9    6   19 1  
    10    7    8 ar 
    11    7   18 ar 
    12    8    9 ar 
    13    9   10 ar 
    14   10   11 1  
    15   10   17 ar 
    16   11   12 2  
    17   11   16 1  
    18   12   13 1  
    19   13   14 1  
    20   13   15 1  
    21   15   16 2  
    22   17   18 ar 
    23   19   20 1  
    24   21   22 1  
    25   22   23 1  
    26   22   25 1  
    27   23   24 1  
    28   24   26 1  
    29   25   26 1  
    30   26   27 1  
    31   26   29 1  
    32   27   28 1  
    33   29   30 2  
    34   29   31 am 
    35   31   32 1  
    36   32   33 ar 
    37   32   34 ar 
    38   33   37 ar 
    39   34   35 ar 
    40   35   36 ar 
    41   36   37 ar 
    42   36   38 1  
    43   37   40 1  
    44   38   39 1  
    45   39   40 2  
    46   40   41 1  
    47   41   42 ar 
    48   41   44 ar 
    49   42   43 ar 
    50   43   46 ar 
    51   44   45 ar 
    52   45   46 ar 
    53   46   47 1  
    54   47   48 1  
    55   48   49 1  
    56   48   50 1  
    57    4   51 1  
    58    4   52 1  
    59    5   53 1  
    60    8   54 1  
    61    9   55 1  
    62   14   56 1  
    63   14   57 1  
    64   14   58 1  
    65   15   59 1  
    66   17   60 1  
    67   18   61 1  
    68   19   62 1  
    69   19   63 1  
    70   20   64 1  
    71   20   65 1  
    72   21   66 1  
    73   21   67 1  
    74   22   68 1  
    75   23   69 1  
    76   23   70 1  
    77   24   71 1  
    78   24   72 1  
    79   25   73 1  
    80   25   74 1  
    81   28   75 1  
    82   28   76 1  
    83   28   77 1  
    84   31   78 1  
    85   33   79 1  
    86   34   80 1  
    87   35   81 1  
    88   38   82 1  
    89   42   83 1  
    90   43   84 1  
    91   44   85 1  
    92   48   86 1  
    93   49   87 1  
    94   49   88 1  
    95   49   89 1  
    96   50   90 1  
    97   50   91 1  
    98   50   92 1  
@<TRIPOS>SUBSTRUCTURE
     1 G67         1

