### 
### Created by X-TOOL on Wed Jan  1 15:39:38 2020
### 

@<TRIPOS>MOLECULE
6dcy_ligand
   17    17     1     0     0
SMALL
GAST_HUCK


@<TRIPOS>ATOM
      1 OAK       -16.7650   17.1100  135.1470 O.co2     1 G5V        -0.5764
      2 CAJ       -17.8530   16.5280  135.3260 C.2       1 G5V         0.0382
      3 OAL       -17.7230   15.3690  135.6150 O.co2     1 G5V        -0.5764
      4 CAF       -19.0670   17.2380  135.1360 C.2       1 G5V         0.0704
      5 CAG       -19.6110   17.3880  133.8650 C.2       1 G5V         0.1224
      6 OAH       -19.0280   16.9000  132.9130 O.2       1 G5V        -0.4393
      7 CAC       -20.8220   18.0960  133.6710 C.2       1 G5V         0.1485
      8 OAD       -21.3470   18.2340  132.3950 O.3       1 G5V        -0.3428
      9 CAB       -21.4520   18.6320  134.7560 C.2       1 G5V         0.1328
     10 OAA       -20.9200   18.4850  136.0080 O.3       1 G5V        -0.2350
     11 CAE       -19.7570   17.8080  136.2060 C.2       1 G5V         0.1398
     12 CAI       -19.3310   17.7300  137.4820 C.3       1 G5V         0.0203
     13 H1        -21.5219   17.3741  132.0311 H         1 G5V         0.2395
     14 H2        -22.3838   19.1801  134.6248 H         1 G5V         0.1039
     15 H3        -20.0414   18.2539  138.1384 H         1 G5V         0.0514
     16 H4        -18.3394   18.1986  137.5668 H         1 G5V         0.0514
     17 H5        -19.2645   16.6739  137.7825 H         1 G5V         0.0514
@<TRIPOS>BOND
     1    1    2 ar 
     2    2    3 ar 
     3    2    4 1  
     4    4    5 1  
     5    4   11 2  
     6    5    6 2  
     7    5    7 1  
     8    7    8 1  
     9    7    9 2  
    10    9   10 1  
    11   10   11 1  
    12   11   12 1  
    13    8   13 1  
    14    9   14 1  
    15   12   15 1  
    16   12   16 1  
    17   12   17 1  
@<TRIPOS>SUBSTRUCTURE
     1 G5V         1

