### 
### Created by X-TOOL on Wed Jan  1 15:39:37 2020
### 

@<TRIPOS>MOLECULE
6dcz_ligand
   14    14     1     0     0
SMALL
GAST_HUCK


@<TRIPOS>ATOM
      1 OAI       -17.6630   16.1030  136.2490 O.co2     1 G5Y        -0.5607
      2 CAH       -18.4740   16.8480  136.8510 C.2       1 G5Y         0.0977
      3 OAK       -18.3620   16.9730  138.0710 O.co2     1 G5Y        -0.5607
      4 CAG       -19.5150   17.5390  136.2300 C.2       1 G5Y         0.1994
      5 OAC       -20.3480   18.2390  137.0770 O.3       1 G5Y        -0.2385
      6 CAB       -21.4390   18.9290  136.5940 C.2       1 G5Y         0.1061
      7 CAA       -21.7250   18.9440  135.2340 C.2       1 G5Y         0.0065
      8 CAE       -20.9090   18.2270  134.3590 C.2       1 G5Y         0.1288
      9 OAD       -21.1710   18.2080  133.1560 O.2       1 G5Y        -0.4297
     10 CAF       -19.8170   17.5440  134.8750 C.2       1 G5Y         0.1713
     11 OAJ       -19.0340   16.8470  134.0240 O.3       1 G5Y        -0.3339
     12 H1        -22.0842   19.4685  137.2858 H         1 G5Y         0.1285
     13 H2        -22.5760   19.5088  134.8561 H         1 G5Y         0.0409
     14 H3        -18.3304   16.4330  134.5098 H         1 G5Y         0.2443
@<TRIPOS>BOND
     1    1    2 ar 
     2    2    3 ar 
     3    2    4 1  
     4    4    5 1  
     5    4   10 2  
     6    5    6 1  
     7    6    7 2  
     8    7    8 1  
     9    8    9 2  
    10    8   10 1  
    11   10   11 1  
    12    6   12 1  
    13    7   13 1  
    14   11   14 1  
@<TRIPOS>SUBSTRUCTURE
     1 G5Y         1

