### 
### Created by X-TOOL on Mon Aug  2 16:12:56 2021
### 

@<TRIPOS>MOLECULE
6det_ligand
   27    26     1     0     0
SMALL
GAST_HUCK


@<TRIPOS>ATOM
      1 N          22.8480   15.3190   10.6800 N.4       1 ARG         0.2327
      2 CA         22.9260   13.8960   11.1010 C.3       1 ARG         0.0284
      3 C          24.2250   13.6660   11.8650 C.2       1 ARG         0.0844
      4 O          25.1580   14.4760   11.7060 O.co2     1 ARG        -0.5643
      5 CB         22.8670   12.9610    9.8940 C.3       1 ARG         0.0055
      6 CG         21.5340   12.9690    9.1540 C.3       1 ARG        -0.0131
      7 CD         21.5170   12.0950    7.9030 C.3       1 ARG         0.0628
      8 NE         21.6830   10.6990    8.2570 N.pl3     1 ARG        -0.2723
      9 CZ         22.7800    9.9820    8.0390 C.cat     1 ARG         0.2882
     10 NH1        22.7980    8.7160    8.4640 N.pl3     1 ARG        -0.2849
     11 NH2        23.8440   10.5110    7.4330 N.pl3     1 ARG        -0.2849
     12 OXT        24.3390   12.6800   12.6060 O.co2     1 ARG        -0.5643
     13 H1         21.9896   15.4733   10.1746 H         1 ARG         0.2010
     14 H2         23.6320   15.5369   10.0851 H         1 ARG         0.2010
     15 H3         22.8694   15.9121   11.4947 H         1 ARG         0.2010
     16 H4         22.0752   13.6743   11.7621 H         1 ARG         0.1024
     17 H5         23.0600   11.9360   10.2434 H         1 ARG         0.0340
     18 H6         23.6543   13.2619    9.1872 H         1 ARG         0.0340
     19 H7         21.3089   14.0039    8.8567 H         1 ARG         0.0302
     20 H8         20.7544   12.6068    9.8403 H         1 ARG         0.0302
     21 H9         22.3379   12.3997    7.2372 H         1 ARG         0.0689
     22 H10        20.5561   12.2249    7.3836 H         1 ARG         0.0689
     23 H11        20.8892   10.2266    8.7127 H         1 ARG         0.2642
     24 H12        23.6332    8.1331    8.3107 H         1 ARG         0.2615
     25 H13        21.9766    8.3225    8.9451 H         1 ARG         0.2615
     26 H14        23.8192   11.4885    7.1092 H         1 ARG         0.2615
     27 H15        24.6904    9.9420    7.2888 H         1 ARG         0.2615
@<TRIPOS>BOND
     1    1    2 1  
     2    2    3 1  
     3    2    5 1  
     4    3    4 ar 
     5    3   12 ar 
     6    5    6 1  
     7    6    7 1  
     8    7    8 1  
     9    8    9 ar 
    10    9   10 ar 
    11    9   11 ar 
    12    1   13 1  
    13    1   14 1  
    14    1   15 1  
    15    2   16 1  
    16    5   17 1  
    17    5   18 1  
    18    6   19 1  
    19    6   20 1  
    20    7   21 1  
    21    7   22 1  
    22    8   23 1  
    23   10   24 1  
    24   10   25 1  
    25   11   26 1  
    26   11   27 1  
@<TRIPOS>SUBSTRUCTURE
     1 ARG         1

