### 
### Created by X-TOOL on Wed Jan  1 15:39:35 2020
### 

@<TRIPOS>MOLECULE
6df4_ligand
   51    54     1     0     0
SMALL
GAST_HUCK


@<TRIPOS>ATOM
      1 C4         12.8310   17.7740    5.0660 C.3       1 G9Y         0.0764
      2 C14        13.1040   20.1090    5.8050 C.2       1 G9Y         0.2385
      3 C6         14.9940   18.5970    5.8370 C.2       1 G9Y         0.0593
      4 C7         15.8510   19.5240    6.3710 C.2       1 G9Y        -0.0153
      5 C8         15.3230   20.8820    6.5850 C.2       1 G9Y        -0.0362
      6 C9         15.8710   22.0930    7.1070 C.2       1 G9Y        -0.0722
      7 C10        14.8650   23.0000    7.0790 C.2       1 G9Y         0.0187
      8 C13        13.9710   21.1140    6.3020 C.2       1 G9Y         0.1256
      9 C3         12.5150   16.7610    6.1850 C.3       1 G9Y         0.0043
     10 C29        19.9970   15.2360    6.3600 C.3       1 G9Y         0.0569
     11 C19        19.8460   18.4060    7.4630 C.ar      1 G9Y        -0.0504
     12 C18        19.6360   19.6360    6.8630 C.ar      1 G9Y        -0.0651
     13 C1         12.0000   14.3780    5.7130 C.2       1 G9Y        -0.1174
     14 N5         13.6530   18.8760    5.5840 N.am      1 G9Y        -0.2098
     15 C2         11.6240   15.6380    5.7250 C.2       1 G9Y        -0.0865
     16 O23        18.5530   16.1290    9.5720 O.2       1 G9Y        -0.3845
     17 C16        17.2420   19.1300    6.7070 C.ar      1 G9Y        -0.0387
     18 N24        19.6040   15.2050    7.8050 N.am      1 G9Y        -0.2681
     19 O15        11.8760   20.3260    5.6040 O.2       1 G9Y        -0.4056
     20 C28        19.2160   14.1150    5.6590 C.3       1 G9Y         0.0680
     21 C25        19.8250   13.9200    8.4950 C.3       1 G9Y         0.0569
     22 C20        18.7560   17.5320    7.7030 C.ar      1 G9Y         0.0415
     23 C17        18.3390   19.9910    6.4890 C.ar      1 G9Y        -0.0627
     24 N11        13.7100   22.4220    6.5980 N.pl3     1 G9Y        -0.2840
     25 C26        19.1040   12.8310    7.6910 C.3       1 G9Y         0.0680
     26 C22        18.9580   16.2390    8.3980 C.2       1 G9Y         0.2056
     27 O27        19.5050   12.8650    6.3070 O.3       1 G9Y        -0.3758
     28 C21        17.4720   17.9060    7.3280 C.ar      1 G9Y        -0.0468
     29 H1         11.8889   18.1809    4.6699 H         1 G9Y         0.0659
     30 H2         13.3777   17.2633    4.2596 H         1 G9Y         0.0659
     31 H3         15.3761   17.6048    5.6016 H         1 G9Y         0.1124
     32 H4         16.8897   22.2545    7.4563 H         1 G9Y         0.0281
     33 H5         14.9561   24.0390    7.3923 H         1 G9Y         0.0890
     34 H6         12.0138   17.2920    7.0077 H         1 G9Y         0.0471
     35 H7         13.4609   16.3323    6.5476 H         1 G9Y         0.0471
     36 H8         21.0786   15.0633    6.2587 H         1 G9Y         0.0545
     37 H9         19.7382   16.2098    5.9188 H         1 G9Y         0.0545
     38 H10        20.8484   18.1100    7.7505 H         1 G9Y         0.0597
     39 H11        20.4649   20.3119    6.6867 H         1 G9Y         0.0605
     40 H12        11.3115   13.6076    5.3691 H         1 G9Y         0.0290
     41 H13        12.9999   14.1050    6.0470 H         1 G9Y         0.0290
     42 H14        10.6183   15.8812    5.3854 H         1 G9Y         0.0673
     43 H15        19.5176   14.0607    4.6026 H         1 G9Y         0.0580
     44 H16        18.1375   14.3221    5.7222 H         1 G9Y         0.0580
     45 H17        19.4151   13.9666    9.5147 H         1 G9Y         0.0545
     46 H18        20.9018   13.7001    8.5423 H         1 G9Y         0.0545
     47 H19        18.1698   20.9530    6.0189 H         1 G9Y         0.0579
     48 H20        12.8031   22.8961    6.4814 H         1 G9Y         0.2309
     49 H21        18.0182   12.9945    7.7557 H         1 G9Y         0.0580
     50 H22        19.3525   11.8465    8.1141 H         1 G9Y         0.0580
     51 H23        16.6406   17.2377    7.5210 H         1 G9Y         0.0600
@<TRIPOS>BOND
     1    1    9 1  
     2   14    1 1  
     3    8    2 1  
     4   14    2 am 
     5    2   19 2  
     6    4    3 2  
     7    3   14 1  
     8    4    5 1  
     9   17    4 1  
    10    5    6 1  
    11    5    8 2  
    12    6    7 2  
    13   24    7 1  
    14    8   24 1  
    15    9   15 1  
    16   18   10 1  
    17   10   20 1  
    18   11   12 ar 
    19   22   11 ar 
    20   12   23 ar 
    21   15   13 2  
    22   26   16 2  
    23   23   17 ar 
    24   17   28 ar 
    25   18   21 1  
    26   26   18 am 
    27   20   27 1  
    28   21   25 1  
    29   22   26 1  
    30   22   28 ar 
    31   25   27 1  
    32    1   29 1  
    33    1   30 1  
    34    3   31 1  
    35    6   32 1  
    36    7   33 1  
    37    9   34 1  
    38    9   35 1  
    39   10   36 1  
    40   10   37 1  
    41   11   38 1  
    42   12   39 1  
    43   13   40 1  
    44   13   41 1  
    45   15   42 1  
    46   20   43 1  
    47   20   44 1  
    48   21   45 1  
    49   21   46 1  
    50   23   47 1  
    51   24   48 1  
    52   25   49 1  
    53   25   50 1  
    54   28   51 1  
@<TRIPOS>SUBSTRUCTURE
     1 G9Y         1

