### 
### Created by X-TOOL on Wed Jan  1 15:39:37 2020
### 

@<TRIPOS>MOLECULE
6df7_ligand
   57    61     1     0     0
SMALL
GAST_HUCK


@<TRIPOS>ATOM
      1 C7          9.8150   10.8950   74.2720 C.ar      1 G9V        -0.0275
      2 C9         10.0880    9.5840   76.3070 C.ar      1 G9V        -0.0615
      3 N2          8.1950    9.8250   72.6170 N.pl3     1 G9V        -0.2412
      4 C10         9.1940    8.6150   75.8470 C.ar      1 G9V        -0.0367
      5 C6          8.9250    9.9390   73.7880 C.ar      1 G9V         0.0833
      6 C29        13.0580   10.9950   74.3000 C.3       1 G9V         0.0567
      7 N20         5.8450    5.8240   78.0030 N.pl3     1 G9V        -0.2839
      8 C18         6.1710    7.4590   76.5500 C.2       1 G9V        -0.0722
      9 C11         8.8490    7.4510   76.7260 C.2       1 G9V        -0.0185
     10 C1          8.1910   10.7760   71.5090 C.3       1 G9V         0.0462
     11 C8         10.4070   10.7200   75.5300 C.ar      1 G9V         0.0285
     12 C16         7.2180    5.9970   77.9230 C.2       1 G9V         0.1258
     13 C5          8.6130    8.7900   74.5630 C.ar      1 G9V         0.0348
     14 O15         8.1030    4.4360   79.3590 O.2       1 G9V        -0.4054
     15 N13         9.5900    5.7230   78.2410 N.am      1 G9V        -0.2102
     16 C24        12.5120    5.4400   80.7030 C.2       1 G9V        -0.0865
     17 C25        13.6910    5.9980   80.5570 C.2       1 G9V        -0.1174
     18 C32        14.9500   12.1910   76.1620 C.3       1 G9V         0.0680
     19 C17         7.4500    7.0360   76.9970 C.2       1 G9V        -0.0365
     20 C22        10.7630    5.0950   78.9080 C.3       1 G9V         0.0763
     21 O31        15.2970   11.2800   75.0920 O.3       1 G9V        -0.3758
     22 C12         9.8460    6.7580   77.3650 C.2       1 G9V         0.0585
     23 C19         5.2210    6.7000   77.1510 C.2       1 G9V         0.0187
     24 C14         8.3240    5.3470   78.5470 C.2       1 G9V         0.2386
     25 N28        12.6160   11.8600   75.4300 N.am      1 G9V        -0.2690
     26 C33        13.5910   12.8740   75.9020 C.3       1 G9V         0.0567
     27 C3          7.4840    8.6630   72.6960 C.2       1 G9V         0.1044
     28 C23        11.2800    6.0070   80.0400 C.3       1 G9V         0.0043
     29 C26        11.3900   11.7250   76.0140 C.2       1 G9V         0.1994
     30 C30        14.3360   10.2760   74.7450 C.3       1 G9V         0.0680
     31 O27        11.0760   12.4310   76.9550 O.2       1 G9V        -0.3871
     32 N4          7.7360    8.0680   73.8330 N.2       1 G9V        -0.3071
     33 H1         10.0488   11.7710   73.6778 H         1 G9V         0.0535
     34 H2         10.5472    9.4620   77.2813 H         1 G9V         0.0490
     35 H3         13.2633   11.6117   73.4126 H         1 G9V         0.0544
     36 H4         12.2761   10.2588   74.0620 H         1 G9V         0.0544
     37 H5          5.3666    5.1424   78.6091 H         1 G9V         0.2309
     38 H6          5.9829    8.2627   75.8396 H         1 G9V         0.0282
     39 H7          7.5151   10.4160   70.7193 H         1 G9V         0.0571
     40 H8          9.2094   10.8719   71.1044 H         1 G9V         0.0571
     41 H9          7.8454   11.7565   71.8685 H         1 G9V         0.0571
     42 H10        12.4202    4.5458   81.3177 H         1 G9V         0.0673
     43 H11        14.5622    5.5664   81.0476 H         1 G9V         0.0290
     44 H12        13.7980    6.8926   79.9453 H         1 G9V         0.0290
     45 H13        15.7292   12.9633   76.2412 H         1 G9V         0.0580
     46 H14        14.8933   11.6292   77.1060 H         1 G9V         0.0580
     47 H15        11.5635    4.9429   78.1690 H         1 G9V         0.0659
     48 H16        10.4647    4.1242   79.3305 H         1 G9V         0.0659
     49 H17        10.8813    7.0360   77.1731 H         1 G9V         0.1116
     50 H18         4.1471    6.7733   76.9857 H         1 G9V         0.0890
     51 H19        13.7118   13.6529   75.1347 H         1 G9V         0.0544
     52 H20        13.2248   13.3305   76.8334 H         1 G9V         0.0544
     53 H21         6.8088    8.2878   71.9283 H         1 G9V         0.1337
     54 H22        11.5252    6.9928   79.6181 H         1 G9V         0.0471
     55 H23        10.4888    6.1182   80.7961 H         1 G9V         0.0471
     56 H24        14.7224    9.6543   73.9239 H         1 G9V         0.0580
     57 H25        14.1249    9.6408   75.6179 H         1 G9V         0.0580
@<TRIPOS>BOND
     1    1    5 ar 
     2   11    1 ar 
     3    2    4 ar 
     4   11    2 ar 
     5    5    3 1  
     6    3   10 1  
     7    3   27 1  
     8    4    9 1  
     9    4   13 ar 
    10    5   13 ar 
    11   25    6 1  
    12    6   30 1  
    13   12    7 1  
    14    7   23 1  
    15   19    8 1  
    16    8   23 2  
    17    9   19 1  
    18    9   22 2  
    19   29   11 1  
    20   19   12 2  
    21   12   24 1  
    22   13   32 1  
    23   24   14 2  
    24   15   20 1  
    25   22   15 1  
    26   15   24 am 
    27   16   17 2  
    28   28   16 1  
    29   18   21 1  
    30   26   18 1  
    31   20   28 1  
    32   30   21 1  
    33   25   26 1  
    34   25   29 am 
    35   27   32 2  
    36   29   31 2  
    37    1   33 1  
    38    2   34 1  
    39    6   35 1  
    40    6   36 1  
    41    7   37 1  
    42    8   38 1  
    43   10   39 1  
    44   10   40 1  
    45   10   41 1  
    46   16   42 1  
    47   17   43 1  
    48   17   44 1  
    49   18   45 1  
    50   18   46 1  
    51   20   47 1  
    52   20   48 1  
    53   22   49 1  
    54   23   50 1  
    55   26   51 1  
    56   26   52 1  
    57   27   53 1  
    58   28   54 1  
    59   28   55 1  
    60   30   56 1  
    61   30   57 1  
@<TRIPOS>SUBSTRUCTURE
     1 G9V         1

