### 
### Created by X-TOOL on Wed Jan  1 15:39:38 2020
### 

@<TRIPOS>MOLECULE
6dge_ligand
   31    30     1     0     0
SMALL
GAST_HUCK


@<TRIPOS>ATOM
      1 C4         -7.1790   32.7540   -3.2890 C.3       1 GBG        -0.0424
      2 C3         -8.6890   32.7000   -3.0710 C.3       1 GBG         0.0025
      3 C2         -9.1920   34.1280   -2.9140 C.3       1 GBG         0.0283
      4 O2         -7.7330   35.6490   -3.9610 O.co2     1 GBG        -0.5643
      5 C1         -8.7710   34.9730   -4.1170 C.2       1 GBG         0.0844
      6 O1         -9.4930   34.9530   -5.1350 O.co2     1 GBG        -0.5643
      7 N1        -10.6580   34.1290   -2.8240 N.4       1 GBG         0.2327
      8 C5         -6.6360   31.3460   -3.3560 C.3       1 GBG        -0.0111
      9 C6         -5.1370   31.3440   -3.6520 C.3       1 GBG         0.0866
     10 N2         -4.8140   29.9370   -3.5140 N.pl3     1 GBG        -0.2638
     11 C7         -3.7960   29.5560   -2.7500 C.cat     1 GBG         0.2031
     12 C8         -3.6780   28.0740   -2.4850 C.3       1 GBG         0.0072
     13 N3         -3.0190   30.4020   -2.0760 N.pl3     1 GBG        -0.2763
     14 H1         -6.7057   33.2914   -2.4540 H         1 GBG         0.0270
     15 H2         -6.9619   33.2772   -4.2319 H         1 GBG         0.0270
     16 H3         -8.9148   32.1226   -2.1624 H         1 GBG         0.0339
     17 H4         -9.1746   32.2261   -3.9368 H         1 GBG         0.0339
     18 H5         -8.7678   34.5622   -1.9967 H         1 GBG         0.1024
     19 H6        -10.9876   35.0759   -2.7201 H         1 GBG         0.2010
     20 H7        -10.9461   33.5836   -2.0267 H         1 GBG         0.2010
     21 H8        -11.0465   33.7282   -3.6634 H         1 GBG         0.2010
     22 H9         -7.1595   30.7973   -4.1528 H         1 GBG         0.0308
     23 H10        -6.8116   30.8477   -2.3912 H         1 GBG         0.0308
     24 H11        -4.5835   31.9560   -2.9247 H         1 GBG         0.0796
     25 H12        -4.9284   31.7057   -4.6697 H         1 GBG         0.0796
     26 H13        -5.3758   29.2305   -4.0101 H         1 GBG         0.3202
     27 H14        -2.8033   27.8844   -1.8455 H         1 GBG         0.0245
     28 H15        -3.5576   27.5394   -3.4388 H         1 GBG         0.0245
     29 H16        -4.5870   27.7187   -1.9777 H         1 GBG         0.0245
     30 H17        -2.2443   30.0425   -1.5002 H         1 GBG         0.3177
     31 H18        -3.1927   31.4158   -2.1306 H         1 GBG         0.3177
@<TRIPOS>BOND
     1    1    2 1  
     2    1    8 1  
     3    2    3 1  
     4    3    5 1  
     5    3    7 1  
     6    5    4 ar 
     7    5    6 ar 
     8    8    9 1  
     9    9   10 1  
    10   10   11 ar 
    11   11   12 1  
    12   11   13 ar 
    13    1   14 1  
    14    1   15 1  
    15    2   16 1  
    16    2   17 1  
    17    3   18 1  
    18    7   19 1  
    19    7   20 1  
    20    7   21 1  
    21    8   22 1  
    22    8   23 1  
    23    9   24 1  
    24    9   25 1  
    25   10   26 1  
    26   12   27 1  
    27   12   28 1  
    28   12   29 1  
    29   13   30 1  
    30   13   31 1  
@<TRIPOS>SUBSTRUCTURE
     1 GBG         1

