### 
### Created by X-TOOL on Mon Aug  2 16:12:56 2021
### 

@<TRIPOS>MOLECULE
6dgl_ligand
   52    55     1     0     0
SMALL
GAST_HUCK


@<TRIPOS>ATOM
      1 C10        16.5570   69.7280    8.1880 C.ar      1 GEV        -0.0620
      2 C13        16.2710   62.1770    9.8460 C.3       1 GEV        -0.0225
      3 C15        17.4920   61.9380   11.9040 C.3       1 GEV         0.0870
      4 C17        17.5850   61.8470   13.4180 C.ar      1 GEV        -0.0217
      5 C20        17.8280   61.7230   16.1430 C.ar      1 GEV        -0.0485
      6 C21        16.7030   62.3160   15.5810 C.ar      1 GEV        -0.0666
      7 C22        16.5760   62.3860   14.2060 C.ar      1 GEV        -0.0647
      8 C24        18.7450   62.8350   18.1980 C.2       1 GEV         0.0326
      9 C28        20.2880   64.7730   18.7720 C.2       1 GEV         0.2624
     10 C01        19.4880   62.7470    9.1710 C.3       1 GEV        -0.0015
     11 C02        18.3240   63.7400    9.1780 C.2       1 GEV         0.1140
     12 C03        16.9660   63.4980    9.4730 C.2       1 GEV         0.0133
     13 C05        17.2760   65.6040    8.9940 C.2       1 GEV         0.1880
     14 C07        17.0240   67.0740    8.7180 C.ar      1 GEV         0.0316
     15 C08        18.0700   67.8700    8.2830 C.ar      1 GEV        -0.0496
     16 C09        17.8340   69.2070    8.0230 C.ar      1 GEV        -0.0613
     17 C11        15.5100   68.9230    8.6140 C.ar      1 GEV        -0.0613
     18 C12        15.7510   67.5900    8.8720 C.ar      1 GEV        -0.0496
     19 C14        16.0880   62.0250   11.3460 C.3       1 GEV        -0.0127
     20 C18        18.7150   61.2700   13.9810 C.ar      1 GEV        -0.0647
     21 C19        18.8400   61.1960   15.3560 C.ar      1 GEV        -0.0666
     22 C23        17.9560   61.6480   17.6550 C.3       1 GEV        -0.0078
     23 C25        18.5790   63.4060   19.4690 C.2       1 GEV         0.1723
     24 N04        16.3520   64.7150    9.3370 N.2       1 GEV        -0.3130
     25 N27        19.4260   64.4360   19.7390 N.am      1 GEV        -0.2143
     26 O06        18.4300   65.0170    8.8950 O.3       1 GEV        -0.2356
     27 O16        18.2490   60.9630   11.2550 O.3       1 GEV        -0.3803
     28 O26        17.6240   62.9570   20.3730 O.3       1 GEV        -0.3281
     29 O29        21.2310   65.8030   18.8270 O.2       1 GEV        -0.3848
     30 S30        20.0080   63.7280   17.4710 S.3       1 GEV        -0.0168
     31 H1         16.3760   70.7766    7.9814 H         1 GEV         0.0615
     32 H2         16.8819   61.3397    9.4777 H         1 GEV         0.0360
     33 H3         15.2824   62.1493    9.3645 H         1 GEV         0.0360
     34 H4         17.9632   62.8983   11.6478 H         1 GEV         0.0744
     35 H5         15.9271   62.7226   16.2195 H         1 GEV         0.0538
     36 H6         15.7081   62.8513   13.7529 H         1 GEV         0.0539
     37 H7         20.4153   63.2710    8.8961 H         1 GEV         0.0409
     38 H8         19.2862   61.9506    8.4395 H         1 GEV         0.0409
     39 H9         19.5994   62.3055   10.1723 H         1 GEV         0.0409
     40 H10        19.0604   67.4505    8.1482 H         1 GEV         0.0626
     41 H11        18.6434   69.8472    7.6912 H         1 GEV         0.0617
     42 H12        14.5162   69.3364    8.7422 H         1 GEV         0.0617
     43 H13        14.9413   66.9462    9.1959 H         1 GEV         0.0626
     44 H14        15.5230   61.1096   11.5760 H         1 GEV         0.0325
     45 H15        15.5600   62.8959   11.7615 H         1 GEV         0.0325
     46 H16        19.4988   60.8777   13.3432 H         1 GEV         0.0539
     47 H17        19.7107   60.7357   15.8088 H         1 GEV         0.0538
     48 H18        18.4754   60.7170   17.9260 H         1 GEV         0.0456
     49 H19        16.9507   61.6503   18.1014 H         1 GEV         0.0456
     50 H20        19.4056   64.9169   20.6155 H         1 GEV         0.2260
     51 H21        19.1209   60.9381   11.6313 H         1 GEV         0.2128
     52 H22        18.0546   62.6649   21.1679 H         1 GEV         0.2431
@<TRIPOS>BOND
     1   16    1 ar 
     2    1   17 ar 
     3   12    2 1  
     4    2   19 1  
     5    3    4 1  
     6   19    3 1  
     7    3   27 1  
     8    4    7 ar 
     9    4   20 ar 
    10    6    5 ar 
    11    5   21 ar 
    12    5   22 1  
    13    7    6 ar 
    14   22    8 1  
    15    8   23 2  
    16    8   30 1  
    17    9   25 am 
    18    9   29 2  
    19   30    9 1  
    20   11   10 1  
    21   11   12 2  
    22   26   11 1  
    23   24   12 1  
    24   14   13 1  
    25   13   24 2  
    26   13   26 1  
    27   15   14 ar 
    28   14   18 ar 
    29   15   16 ar 
    30   17   18 ar 
    31   20   21 ar 
    32   23   25 1  
    33   23   28 1  
    34    1   31 1  
    35    2   32 1  
    36    2   33 1  
    37    3   34 1  
    38    6   35 1  
    39    7   36 1  
    40   10   37 1  
    41   10   38 1  
    42   10   39 1  
    43   15   40 1  
    44   16   41 1  
    45   17   42 1  
    46   18   43 1  
    47   19   44 1  
    48   19   45 1  
    49   20   46 1  
    50   21   47 1  
    51   22   48 1  
    52   22   49 1  
    53   25   50 1  
    54   27   51 1  
    55   28   52 1  
@<TRIPOS>SUBSTRUCTURE
     1 GEV         1

