### 
### Created by X-TOOL on Mon Aug  2 16:12:56 2021
### 

@<TRIPOS>MOLECULE
6dgo_ligand
   58    61     1     0     0
SMALL
GAST_HUCK


@<TRIPOS>ATOM
      1 CAM        16.2680   62.2480    9.6900 C.3       1 GD4        -0.0119
      2 CAL        15.0540   63.0420   10.0790 C.3       1 GD4        -0.0275
      3 CBB        15.1740   64.5070    9.5940 C.ar      1 GD4        -0.0327
      4 CAZ        14.0130   65.2900    9.4560 C.ar      1 GD4        -0.0359
      5 CAC        12.6500   64.6910    9.7890 C.3       1 GD4        -0.0426
      6 CBA        14.1090   66.6140    9.0160 C.ar      1 GD4         0.0669
      7 OAG        12.9560   67.3950    8.8800 O.3       1 GD4        -0.3512
      8 CAX        15.3690   67.1650    8.7100 C.ar      1 GD4        -0.0362
      9 CAA        15.4680   68.6120    8.2300 C.3       1 GD4        -0.0426
     10 CAY        16.5210   66.3890    8.8470 C.ar      1 GD4        -0.0359
     11 CAB        17.8800   66.9900    8.5100 C.3       1 GD4        -0.0426
     12 CBC        16.4300   65.0490    9.2920 C.ar      1 GD4         0.0715
     13 OAR        17.6440   64.2770    9.4140 O.3       1 GD4        -0.3271
     14 CBE        17.5430   62.9980   10.0050 C.3       1 GD4         0.1117
     15 CAD        18.7270   62.1580    9.5480 C.3       1 GD4        -0.0296
     16 CAN        17.6230   63.1510   11.5370 C.3       1 GD4         0.1012
     17 OAQ        17.7370   61.8780   12.1000 O.3       1 GD4        -0.3193
     18 CAW        18.2310   61.9500   13.4010 C.ar      1 GD4         0.0842
     19 CAK        19.5920   61.8790   13.6160 C.ar      1 GD4        -0.0396
     20 CAI        20.0880   61.9610   14.9010 C.ar      1 GD4        -0.0686
     21 CAJ        17.3590   62.1090   14.4590 C.ar      1 GD4        -0.0396
     22 CAH        17.8540   62.1910   15.7450 C.ar      1 GD4        -0.0686
     23 CAV        19.2180   62.1150   15.9590 C.ar      1 GD4        -0.0502
     24 CAO        19.7690   62.2110   17.3740 C.3       1 GD4         0.0077
     25 CBD        19.4600   63.6040   17.8830 C.3       1 GD4         0.1282
     26 SAS        20.8050   64.2640   18.5790 S.3       1 GD4         0.0006
     27 CAT        20.4020   64.6480   20.1100 C.2       1 GD4         0.2695
     28 OAE        21.0890   65.2230   20.8830 O.2       1 GD4        -0.3731
     29 NAP        18.9280   64.1220   20.3910 N.am      1 GD4        -0.1891
     30 CAU        18.3240   63.4900   19.0550 C.2       1 GD4         0.2225
     31 OAF        17.2490   63.0140   18.9270 O.2       1 GD4        -0.3846
     32 H1         16.2308   62.0436    8.6098 H         1 GD4         0.0313
     33 H2         16.2662   61.2974   10.2434 H         1 GD4         0.0313
     34 H3         14.9530   63.0323   11.1743 H         1 GD4         0.0374
     35 H4         14.1631   62.5840    9.6245 H         1 GD4         0.0374
     36 H5         12.7776   63.6482   10.1149 H         1 GD4         0.0338
     37 H6         12.0086   64.7201    8.8959 H         1 GD4         0.0338
     38 H7         12.1812   65.2727   10.5963 H         1 GD4         0.0338
     39 H8         13.1962   68.2616    8.5739 H         1 GD4         0.2392
     40 H9         14.4615   69.0537    8.1871 H         1 GD4         0.0338
     41 H10        15.9219   68.6358    7.2283 H         1 GD4         0.0338
     42 H11        16.0918   69.1884    8.9290 H         1 GD4         0.0338
     43 H12        17.7493   68.0327    8.1847 H         1 GD4         0.0338
     44 H13        18.3473   66.4094    7.7010 H         1 GD4         0.0338
     45 H14        18.5245   66.9619    9.4010 H         1 GD4         0.0338
     46 H15        19.6628   62.6915    9.7709 H         1 GD4         0.0261
     47 H16        18.6548   61.9813    8.4647 H         1 GD4         0.0261
     48 H17        18.7192   61.1942   10.0781 H         1 GD4         0.0261
     49 H18        16.7121   63.6422   11.9097 H         1 GD4         0.0643
     50 H19        18.5017   63.7561   11.8049 H         1 GD4         0.0643
     51 H20        20.2694   61.7592   12.7782 H         1 GD4         0.0525
     52 H21        21.1561   61.9046   15.0775 H         1 GD4         0.0530
     53 H22        16.2914   62.1691   14.2811 H         1 GD4         0.0525
     54 H23        17.1771   62.3143   16.5826 H         1 GD4         0.0530
     55 H24        20.8564   62.0453   17.3668 H         1 GD4         0.0442
     56 H25        19.2878   61.4596   18.0174 H         1 GD4         0.0442
     57 H26        19.1049   64.2380   17.0572 H         1 GD4         0.0706
     58 H27        18.4527   64.1783   21.2690 H         1 GD4         0.2265
@<TRIPOS>BOND
     1    1    2 1  
     2    1   14 1  
     3    2    3 1  
     4    3    4 ar 
     5    3   12 ar 
     6    4    5 1  
     7    4    6 ar 
     8    6    7 1  
     9    6    8 ar 
    10    8    9 1  
    11    8   10 ar 
    12   10   11 1  
    13   10   12 ar 
    14   12   13 1  
    15   13   14 1  
    16   14   15 1  
    17   14   16 1  
    18   16   17 1  
    19   17   18 1  
    20   18   19 ar 
    21   18   21 ar 
    22   19   20 ar 
    23   20   23 ar 
    24   21   22 ar 
    25   22   23 ar 
    26   23   24 1  
    27   24   25 1  
    28   25   26 1  
    29   25   30 1  
    30   26   27 1  
    31   27   28 2  
    32   27   29 am 
    33   29   30 am 
    34   30   31 2  
    35    1   32 1  
    36    1   33 1  
    37    2   34 1  
    38    2   35 1  
    39    5   36 1  
    40    5   37 1  
    41    5   38 1  
    42    7   39 1  
    43    9   40 1  
    44    9   41 1  
    45    9   42 1  
    46   11   43 1  
    47   11   44 1  
    48   11   45 1  
    49   15   46 1  
    50   15   47 1  
    51   15   48 1  
    52   16   49 1  
    53   16   50 1  
    54   19   51 1  
    55   20   52 1  
    56   21   53 1  
    57   22   54 1  
    58   24   55 1  
    59   24   56 1  
    60   25   57 1  
    61   29   58 1  
@<TRIPOS>SUBSTRUCTURE
     1 GD4         1

