### 
### Created by X-TOOL on Mon Aug  2 16:12:56 2021
### 

@<TRIPOS>MOLECULE
6dgq_ligand
   57    58     1     0     0
SMALL
GAST_HUCK


@<TRIPOS>ATOM
      1 C17        17.0690   60.9940   10.6560 C.3       1 GBV         0.0584
      2 C21        16.3740   64.5720    9.4600 C.3       1 GBV         0.0372
      3 C22        17.3580   65.7120    9.1710 C.3       1 GBV        -0.0360
      4 C24        16.4930   67.8990    8.2830 C.3       1 GBV        -0.0431
      5 C26        17.2590   70.5790    8.6930 C.3       1 GBV        -0.0554
      6 C01        16.7860   61.8130   15.2570 C.ar      1 GBV        -0.0685
      7 C02        17.0350   61.3540   13.9840 C.ar      1 GBV        -0.0399
      8 C03        18.2540   60.7650   13.7330 C.ar      1 GBV         0.0838
      9 C04        19.2450   60.6300   14.6940 C.ar      1 GBV        -0.0399
     10 C05        18.9770   61.0870   15.9740 C.ar      1 GBV        -0.0685
     11 C06        17.7510   61.6830   16.2370 C.ar      1 GBV        -0.0525
     12 C07        17.4030   62.2430   17.6060 C.3       1 GBV        -0.0098
     13 C08        18.5990   62.7990   18.3600 C.2       1 GBV         0.0320
     14 C09        18.6590   62.8710   19.7560 C.2       1 GBV         0.1721
     15 C12        20.7010   63.7330   19.3350 C.2       1 GBV         0.2624
     16 C16        18.2240   61.3660   11.5720 C.3       1 GBV         0.0889
     17 C19        17.1320   63.2780    9.7440 C.2       1 GBV         0.1760
     18 C23        16.7450   67.0590    9.5250 C.3       1 GBV        -0.0502
     19 C25        17.5840   68.7410    8.0450 C.3       1 GBV         0.0039
     20 C27        18.3380   71.4930    7.9440 C.3       1 GBV         0.0011
     21 N11        19.8140   63.3710   20.2580 N.am      1 GBV        -0.2144
     22 N18        16.3740   62.2220   10.3600 N.am      1 GBV        -0.2844
     23 O10        17.6060   62.4520   20.5600 O.3       1 GBV        -0.3282
     24 O13        21.9430   64.2680   19.6280 O.2       1 GBV        -0.3848
     25 O15        18.4420   60.3160   12.4480 O.3       1 GBV        -0.3207
     26 O20        18.2920   63.1250    9.4780 O.2       1 GBV        -0.3971
     27 S14        20.0590   63.4590   17.7900 S.3       1 GBV        -0.0169
     28 S28        18.9360   70.5160    6.5050 S.3       1 GBV        -0.0934
     29 S29        17.8160   68.9480    6.5350 S.3       1 GBV        -0.0931
     30 H1         16.3945   60.2873   11.1616 H         1 GBV         0.0546
     31 H2         17.4492   60.5390    9.7295 H         1 GBV         0.0546
     32 H3         15.7210   64.4260    8.5869 H         1 GBV         0.0502
     33 H4         15.7621   64.8339   10.3358 H         1 GBV         0.0502
     34 H5         17.6159   65.7032    8.1017 H         1 GBV         0.0290
     35 H6         18.2689   65.5622    9.7691 H         1 GBV         0.0290
     36 H7         15.5890   68.5077    8.4323 H         1 GBV         0.0273
     37 H8         16.3495   67.2355    7.4175 H         1 GBV         0.0273
     38 H9         16.8659   71.1179    9.5677 H         1 GBV         0.0238
     39 H10        17.7358   69.6440    9.0223 H         1 GBV         0.0238
     40 H11        16.4336   70.3468    8.0040 H         1 GBV         0.0238
     41 H12        15.8341   62.2759   15.4906 H         1 GBV         0.0528
     42 H13        16.2923   61.4533   13.2007 H         1 GBV         0.0524
     43 H14        20.2008   60.1803   14.4507 H         1 GBV         0.0524
     44 H15        19.7154   60.9806   16.7605 H         1 GBV         0.0528
     45 H16        16.9570   61.4374   18.2077 H         1 GBV         0.0448
     46 H17        16.6690   63.0516   17.4742 H         1 GBV         0.0448
     47 H18        17.9720   62.2753   12.1373 H         1 GBV         0.0631
     48 H19        19.1297   61.5452   10.9740 H         1 GBV         0.0631
     49 H20        17.4331   67.6014   10.1900 H         1 GBV         0.0267
     50 H21        15.7894   66.8919   10.0436 H         1 GBV         0.0267
     51 H22        18.4856   68.2922    8.4873 H         1 GBV         0.0384
     52 H23        17.3920   69.7170    8.5146 H         1 GBV         0.0384
     53 H24        19.1742   71.7258    8.6197 H         1 GBV         0.0382
     54 H25        17.8720   72.4286    7.6014 H         1 GBV         0.0382
     55 H26        19.9851   63.4603   21.2392 H         1 GBV         0.2260
     56 H27        15.4038   62.3351   10.5744 H         1 GBV         0.1851
     57 H28        17.9026   61.7512   21.1287 H         1 GBV         0.2431
@<TRIPOS>BOND
     1    1   16 1  
     2   22    1 1  
     3    3    2 1  
     4    2   17 1  
     5   18    3 1  
     6    4   18 1  
     7   19    4 1  
     8   20    5 1  
     9    7    6 ar 
    10    6   11 ar 
    11    8    7 ar 
    12    8    9 ar 
    13   25    8 1  
    14    9   10 ar 
    15   10   11 ar 
    16   11   12 1  
    17   12   13 1  
    18   13   14 2  
    19   13   27 1  
    20   14   21 1  
    21   14   23 1  
    22   15   21 am 
    23   15   24 2  
    24   27   15 1  
    25   16   25 1  
    26   17   22 am 
    27   17   26 2  
    28   29   19 1  
    29   28   20 1  
    30   28   29 1  
    31    1   30 1  
    32    1   31 1  
    33    2   32 1  
    34    2   33 1  
    35    3   34 1  
    36    3   35 1  
    37    4   36 1  
    38    4   37 1  
    39    5   38 1  
    40    5   39 1  
    41    5   40 1  
    42    6   41 1  
    43    7   42 1  
    44    9   43 1  
    45   10   44 1  
    46   12   45 1  
    47   12   46 1  
    48   16   47 1  
    49   16   48 1  
    50   18   49 1  
    51   18   50 1  
    52   19   51 1  
    53   19   52 1  
    54   20   53 1  
    55   20   54 1  
    56   21   55 1  
    57   22   56 1  
    58   23   57 1  
@<TRIPOS>SUBSTRUCTURE
     1 GBV         1

