### 
### Created by X-TOOL on Mon Aug  2 16:12:57 2021
### 

@<TRIPOS>MOLECULE
6dgr_ligand
   37    39     1     0     0
SMALL
GAST_HUCK


@<TRIPOS>ATOM
      1 C10        18.6500   61.5690   13.0790 C.ar      1 GDY        -0.0399
      2 C13        16.6730   61.9550   14.9720 C.ar      1 GDY        -0.0685
      3 C15        18.2810   61.6440   16.9240 C.3       1 GDY        -0.0098
      4 C17        18.8210   63.0380   19.1370 C.2       1 GDY         0.1721
      5 C20        20.5190   64.5390   18.7990 C.2       1 GDY         0.2624
      6 C01        18.2280   66.9950    8.5180 C.2       1 GDY        -0.0932
      7 C02        18.1940   65.5870    8.8170 C.2       1 GDY        -0.0816
      8 C03        16.9870   65.1610    9.4010 C.2       1 GDY         0.0147
      9 C05        17.0650   67.7140    8.8340 C.2       1 GDY        -0.0196
     10 C06        16.5830   63.7410    9.8500 C.3       1 GDY         0.0202
     11 C07        17.6550   62.8270   10.4630 C.3       1 GDY         0.0800
     12 C09        17.3500   61.8120   12.6470 C.ar      1 GDY         0.0839
     13 C11        18.9690   61.5170   14.4450 C.ar      1 GDY        -0.0685
     14 C12        17.9830   61.7360   15.4060 C.ar      1 GDY        -0.0525
     15 C14        16.3620   62.0020   13.6090 C.ar      1 GDY        -0.0399
     16 C16        19.0130   62.7260   17.7550 C.2       1 GDY         0.0320
     17 N19        19.6380   64.0030   19.6490 N.am      1 GDY        -0.2144
     18 O08        17.0150   61.8590   11.2720 O.3       1 GDY        -0.3203
     19 O18        17.8760   62.4380   19.9840 O.3       1 GDY        -0.3282
     20 O21        21.4360   65.5510   19.0990 O.2       1 GDY        -0.3848
     21 S04        16.0180   66.5590    9.4910 S.3       1 GDY        -0.0443
     22 S22        20.2840   63.7780   17.3040 S.3       1 GDY        -0.0169
     23 H1         19.4331   61.4166   12.3452 H         1 GDY         0.0524
     24 H2         15.8847   62.0907   15.7036 H         1 GDY         0.0528
     25 H3         18.8743   60.7265   17.0508 H         1 GDY         0.0448
     26 H4         17.3012   61.5168   17.4075 H         1 GDY         0.0448
     27 H5         19.1010   67.4718    8.0747 H         1 GDY         0.0371
     28 H6         19.0252   64.9144    8.6103 H         1 GDY         0.0276
     29 H7         16.8784   68.7770    8.6888 H         1 GDY         0.0598
     30 H8         16.1837   63.2232    8.9654 H         1 GDY         0.0479
     31 H9         15.7862   63.8532   10.6000 H         1 GDY         0.0479
     32 H10        18.3449   63.4250   11.0766 H         1 GDY         0.0637
     33 H11        18.2175   62.3263    9.6612 H         1 GDY         0.0637
     34 H12        19.9863   61.3057   14.7540 H         1 GDY         0.0528
     35 H13        15.3403   62.1884   13.2985 H         1 GDY         0.0524
     36 H14        19.5810   64.2924   20.6045 H         1 GDY         0.2260
     37 H15        18.3238   62.0168   20.7082 H         1 GDY         0.2431
@<TRIPOS>BOND
     1   12    1 ar 
     2    1   13 ar 
     3    2   14 ar 
     4   15    2 ar 
     5   14    3 1  
     6    3   16 1  
     7   16    4 2  
     8    4   17 1  
     9    4   19 1  
    10   17    5 am 
    11    5   20 2  
    12    5   22 1  
    13    7    6 1  
    14    9    6 2  
    15    8    7 2  
    16   10    8 1  
    17    8   21 1  
    18   21    9 1  
    19   11   10 1  
    20   18   11 1  
    21   12   15 ar 
    22   12   18 1  
    23   13   14 ar 
    24   16   22 1  
    25    1   23 1  
    26    2   24 1  
    27    3   25 1  
    28    3   26 1  
    29    6   27 1  
    30    7   28 1  
    31    9   29 1  
    32   10   30 1  
    33   10   31 1  
    34   11   32 1  
    35   11   33 1  
    36   13   34 1  
    37   15   35 1  
    38   17   36 1  
    39   19   37 1  
@<TRIPOS>SUBSTRUCTURE
     1 GDY         1

