### 
### Created by X-TOOL on Wed Jan  1 15:39:38 2020
### 

@<TRIPOS>MOLECULE
6dgt_ligand
   50    55     1     0     0
SMALL
GAST_HUCK


@<TRIPOS>ATOM
      1 N12        42.8180   60.7080  132.2640 N.2       1 GFJ        -0.3060
      2 C13        42.2020   61.4180  133.2720 C.ar      1 GFJ         0.0451
      3 C15        41.3180   60.9780  134.2410 C.ar      1 GFJ         0.0325
      4 C17        41.2250   63.2550  135.1610 C.ar      1 GFJ        -0.0209
      5 C22        44.4550   61.2350  130.4980 C.3       1 GFJ         0.0228
      6 C24        40.8680   59.6060  134.2670 C.2       1 GFJ         0.1505
      7 C26        40.5200   57.5710  133.6750 C.2       1 GFJ         0.1170
      8 C01        42.3250   66.0360  128.5900 C.ar      1 GFJ        -0.0285
      9 C02        41.6930   64.9040  129.0540 C.ar      1 GFJ        -0.0279
     10 C03        43.4740   64.6370  130.7200 C.ar      1 GFJ         0.0774
     11 C04        44.0960   65.7720  130.2370 C.ar      1 GFJ         0.0723
     12 C05        43.5070   66.4620  129.1770 C.ar      1 GFJ         0.1467
     13 C06        44.1030   63.9730  131.8180 C.ar      1 GFJ         0.1262
     14 C07        45.2660   64.3940  132.3980 C.ar      1 GFJ        -0.0038
     15 C08        45.7680   65.5120  131.8130 C.ar      1 GFJ        -0.0039
     16 N09        45.2290   66.1840  130.7920 N.ar      1 GFJ        -0.3126
     17 N10        43.4900   62.8090  132.2730 N.pl3     1 GFJ        -0.1740
     18 C11        43.5880   61.5650  131.6470 C.2       1 GFJ         0.1436
     19 C14        42.5990   62.7390  133.3020 C.ar      1 GFJ         0.1084
     20 C16        40.8170   61.9040  135.1390 C.ar      1 GFJ        -0.0511
     21 C18        42.1280   63.7130  134.2000 C.ar      1 GFJ        -0.0243
     22 C19        42.2700   64.2450  130.1000 C.ar      1 GFJ         0.1462
     23 F20        41.5980   63.1860  130.5410 F         1 GFJ        -0.1816
     24 F21        44.0210   67.6010  128.6640 F         1 GFJ        -0.1851
     25 C23        40.6140   64.1400  136.1250 C.ar      1 GFJ         0.0172
     26 N25        41.2530   58.6480  133.3750 N.pl3     1 GFJ        -0.2320
     27 N27        39.7240   57.8180  134.6610 N.2       1 GFJ        -0.2553
     28 N28        39.9500   59.1040  135.0650 N.2       1 GFJ        -0.2556
     29 C29        41.2410   65.2860  136.5170 C.ar      1 GFJ         0.1817
     30 C30        40.6680   66.1790  137.3820 C.ar      1 GFJ         0.1416
     31 N31        39.4480   65.9350  137.9030 N.ar      1 GFJ        -0.2916
     32 C32        38.8300   64.7790  137.5400 C.ar      1 GFJ        -0.0106
     33 C33        39.3670   63.8630  136.6580 C.ar      1 GFJ        -0.0451
     34 F34        42.4560   65.5760  136.0660 F         1 GFJ        -0.1831
     35 N35        41.4070   67.3140  137.6930 N.pl3     1 GFJ        -0.3226
     36 H1         44.3163   60.1783  130.2256 H         1 GFJ         0.0503
     37 H2         45.5065   61.4085  130.7703 H         1 GFJ         0.0503
     38 H3         44.1879   61.8723  129.6421 H         1 GFJ         0.0503
     39 H4         40.5855   56.6149  133.1578 H         1 GFJ         0.1309
     40 H5         41.8981   66.5948  127.7650 H         1 GFJ         0.0606
     41 H6         40.7720   64.5499  128.6052 H         1 GFJ         0.0579
     42 H7         45.7370   63.8903  133.2344 H         1 GFJ         0.0601
     43 H8         46.6983   65.8973  132.2143 H         1 GFJ         0.0812
     44 H9         40.0763   61.5764  135.8595 H         1 GFJ         0.0580
     45 H10        42.4444   64.7486  134.1495 H         1 GFJ         0.0601
     46 H11        41.9581   58.7359  132.6294 H         1 GFJ         0.2445
     47 H12        37.8579   64.5643  137.9689 H         1 GFJ         0.0736
     48 H13        38.8312   62.9589  136.3922 H         1 GFJ         0.0579
     49 H14        41.0223   68.0180  138.3389 H         1 GFJ         0.1752
     50 H15        42.3395   67.4512  137.2776 H         1 GFJ         0.1752
@<TRIPOS>BOND
     1    1    2 1  
     2   18    1 2  
     3    2    3 ar 
     4    2   19 ar 
     5    3    6 1  
     6    3   20 ar 
     7   20    4 ar 
     8    4   21 ar 
     9    4   25 1  
    10   18    5 1  
    11    6   26 1  
    12    6   28 2  
    13   26    7 1  
    14    7   27 2  
    15    9    8 ar 
    16   12    8 ar 
    17   22    9 ar 
    18   10   11 ar 
    19   13   10 ar 
    20   10   22 ar 
    21   11   12 ar 
    22   11   16 ar 
    23   12   24 1  
    24   13   14 ar 
    25   17   13 1  
    26   14   15 ar 
    27   15   16 ar 
    28   17   18 1  
    29   17   19 1  
    30   19   21 ar 
    31   22   23 1  
    32   25   29 ar 
    33   25   33 ar 
    34   27   28 1  
    35   29   30 ar 
    36   29   34 1  
    37   30   31 ar 
    38   30   35 1  
    39   31   32 ar 
    40   32   33 ar 
    41    5   36 1  
    42    5   37 1  
    43    5   38 1  
    44    7   39 1  
    45    8   40 1  
    46    9   41 1  
    47   14   42 1  
    48   15   43 1  
    49   20   44 1  
    50   21   45 1  
    51   26   46 1  
    52   32   47 1  
    53   33   48 1  
    54   35   49 1  
    55   35   50 1  
@<TRIPOS>SUBSTRUCTURE
     1 GFJ         1

