### 
### Created by X-TOOL on Wed Jan  1 15:39:36 2020
### 

@<TRIPOS>MOLECULE
6dgx_ligand
   75    78     1     0     0
SMALL
GAST_HUCK


@<TRIPOS>ATOM
      1 N1         65.3310   52.0760   12.5950 N.pl3     1 017        -0.3369
      2 C2         66.3260   52.7360   13.4830 C.ar      1 017         0.0353
      3 C3         67.4070   52.0240   13.9590 C.ar      1 017        -0.0429
      4 C4         68.3230   52.6390   14.7790 C.ar      1 017        -0.0471
      5 C5         68.1460   53.9790   15.1290 C.ar      1 017         0.0949
      6 C6         67.0810   54.6880   14.6580 C.ar      1 017        -0.0471
      7 C7         66.1530   54.0660   13.8290 C.ar      1 017        -0.0429
      8 S8         69.3680   54.8090   16.2180 S.o2      1 017         0.0648
      9 O9         69.9060   53.9180   17.2270 O.2       1 017        -0.1518
     10 O10        68.7120   55.8800   17.0100 O.2       1 017        -0.1518
     11 N11        70.6060   55.4540   15.1970 N.am      1 017        -0.2327
     12 C12        71.3880   54.4820   14.4100 C.3       1 017         0.0319
     13 C13        72.8840   54.8030   14.4830 C.3       1 017        -0.0296
     14 C14        73.4190   54.7140   15.9550 C.3       1 017        -0.0612
     15 C15        73.6780   53.8830   13.5290 C.3       1 017        -0.0612
     16 C16        70.2950   56.8190   14.5520 C.3       1 017         0.0578
     17 C17        71.2090   57.9360   15.1440 C.3       1 017         0.0967
     18 O18        71.0590   59.0800   14.3880 O.3       1 017        -0.3877
     19 C19        70.8520   58.2470   16.6070 C.3       1 017         0.0807
     20 N20        71.7800   59.2520   17.0710 N.am      1 017        -0.2550
     21 C21        72.8160   58.9420   18.0620 C.2       1 017         0.3203
     22 O22        72.8750   57.8690   18.5790 O.2       1 017        -0.3775
     23 O23        73.7050   59.9720   18.3610 O.3       1 017        -0.2578
     24 C24        74.4470   59.8840   19.5640 C.3       1 017         0.1189
     25 C25        75.9630   60.4660   19.2340 C.3       1 017         0.0815
     26 O26        75.7870   61.7890   19.1380 O.3       1 017        -0.3480
     27 C27        74.6290   62.1170   20.1590 C.3       1 017         0.1648
     28 O28        73.7290   62.8040   19.6160 O.3       1 017        -0.3509
     29 C29        72.3020   62.0350   19.7920 C.3       1 017         0.0512
     30 C30        72.5110   60.9520   20.5130 C.3       1 017        -0.0191
     31 C31        73.9920   60.7100   20.5160 C.3       1 017         0.0449
     32 C32        69.4530   58.8450   16.7380 C.3       1 017         0.0064
     33 C33        68.8990   58.4540   19.1580 C.ar      1 017        -0.0603
     34 C34        68.6600   58.9120   20.4650 C.ar      1 017        -0.0686
     35 C35        68.7210   60.2880   20.7520 C.ar      1 017        -0.0687
     36 C36        69.0150   61.1880   19.7510 C.ar      1 017        -0.0686
     37 C37        69.2530   60.7320   18.4470 C.ar      1 017        -0.0603
     38 C38        69.1910   59.3480   18.1580 C.ar      1 017        -0.0408
     39 H1         65.4511   51.0874   12.3322 H         1 017         0.1719
     40 H2         64.5221   52.6078   12.2431 H         1 017         0.1719
     41 H3         67.5340   50.9823   13.6873 H         1 017         0.0515
     42 H4         69.1780   52.0867   15.1518 H         1 017         0.0602
     43 H5         66.9580   55.7306   14.9280 H         1 017         0.0602
     44 H6         65.2989   54.6194   13.4557 H         1 017         0.0515
     45 H7         71.0613   54.5214   13.3604 H         1 017         0.0480
     46 H8         71.2158   53.4719   14.8100 H         1 017         0.0480
     47 H9         73.0227   55.8396   14.1420 H         1 017         0.0311
     48 H10        74.4933   54.9499   15.9695 H         1 017         0.0233
     49 H11        73.2618   53.6962   16.3414 H         1 017         0.0233
     50 H12        72.8771   55.4336   16.5863 H         1 017         0.0233
     51 H13        73.2731   53.9743   12.5103 H         1 017         0.0233
     52 H14        73.5889   52.8400   13.8669 H         1 017         0.0233
     53 H15        74.7372   54.1798   13.5305 H         1 017         0.0233
     54 H16        69.2427   57.0761   14.7429 H         1 017         0.0504
     55 H17        70.4651   56.7519   13.4673 H         1 017         0.0504
     56 H18        72.2559   57.6017   15.0975 H         1 017         0.0634
     57 H19        71.3105   58.8999   13.4898 H         1 017         0.2100
     58 H20        70.9280   57.3322   17.2132 H         1 017         0.0604
     59 H21        71.7146   60.1814   16.7079 H         1 017         0.1873
     60 H22        74.4700   58.8447   19.9236 H         1 017         0.0675
     61 H23        76.3435   60.0524   18.2884 H         1 017         0.0590
     62 H24        76.6614   60.2224   20.0482 H         1 017         0.0590
     63 H25        75.0210   62.6277   21.0509 H         1 017         0.0913
     64 H26        71.9038   61.7558   18.8053 H         1 017         0.0561
     65 H27        71.5841   62.6922   20.3046 H         1 017         0.0561
     66 H28        71.9883   60.0934   20.0663 H         1 017         0.0293
     67 H29        72.1508   61.1064   21.5408 H         1 017         0.0293
     68 H30        74.3093   60.3502   21.5059 H         1 017         0.0380
     69 H31        68.7094   58.0736   16.4889 H         1 017         0.0449
     70 H32        69.3568   59.6871   16.0368 H         1 017         0.0449
     71 H33        68.8527   57.3933   18.9392 H         1 017         0.0557
     72 H34        68.4284   58.2043   21.2528 H         1 017         0.0599
     73 H35        68.5367   60.6401   21.7605 H         1 017         0.0559
     74 H36        69.0622   62.2482   19.9718 H         1 017         0.0599
     75 H37        69.4847   61.4399   17.6595 H         1 017         0.0557
@<TRIPOS>BOND
     1    2    1 1  
     2    3    2 ar 
     3    7    2 ar 
     4    4    3 ar 
     5    5    4 ar 
     6    5    6 ar 
     7    8    5 1  
     8    6    7 ar 
     9    8    9 2  
    10    8   10 2  
    11   11    8 am 
    12   11   12 1  
    13   16   11 1  
    14   12   13 1  
    15   13   14 1  
    16   13   15 1  
    17   17   16 1  
    18   17   18 1  
    19   19   17 1  
    20   19   20 1  
    21   32   19 1  
    22   20   21 am 
    23   21   22 2  
    24   21   23 1  
    25   23   24 1  
    26   24   25 1  
    27   24   31 1  
    28   25   26 1  
    29   27   26 1  
    30   27   28 1  
    31   31   27 1  
    32   29   28 1  
    33   30   29 1  
    34   31   30 1  
    35   38   32 1  
    36   33   34 ar 
    37   33   38 ar 
    38   34   35 ar 
    39   35   36 ar 
    40   36   37 ar 
    41   37   38 ar 
    42    1   39 1  
    43    1   40 1  
    44    3   41 1  
    45    4   42 1  
    46    6   43 1  
    47    7   44 1  
    48   12   45 1  
    49   12   46 1  
    50   13   47 1  
    51   14   48 1  
    52   14   49 1  
    53   14   50 1  
    54   15   51 1  
    55   15   52 1  
    56   15   53 1  
    57   16   54 1  
    58   16   55 1  
    59   17   56 1  
    60   18   57 1  
    61   19   58 1  
    62   20   59 1  
    63   24   60 1  
    64   25   61 1  
    65   25   62 1  
    66   27   63 1  
    67   29   64 1  
    68   29   65 1  
    69   30   66 1  
    70   30   67 1  
    71   31   68 1  
    72   32   69 1  
    73   32   70 1  
    74   33   71 1  
    75   34   72 1  
    76   35   73 1  
    77   36   74 1  
    78   37   75 1  
@<TRIPOS>SUBSTRUCTURE
     1 017         1

