### 
### Created by X-TOOL on Wed Jan  1 15:39:37 2020
### 

@<TRIPOS>MOLECULE
6dgy_ligand
   78    81     1     0     0
SMALL
GAST_HUCK


@<TRIPOS>ATOM
      1 N1         65.4870   51.7600   12.6510 N.pl3     1 K13        -0.3369
      2 C2         66.4210   52.4200   13.5250 C.ar      1 K13         0.0353
      3 C3         66.1970   53.8760   13.8910 C.ar      1 K13        -0.0429
      4 C4         67.1720   54.5840   14.8100 C.ar      1 K13        -0.0471
      5 C5         68.3610   53.8170   15.3660 C.ar      1 K13         0.0949
      6 C6         68.5970   52.3630   15.0010 C.ar      1 K13        -0.0471
      7 C7         67.6190   51.6590   14.0780 C.ar      1 K13        -0.0429
      8 S8         69.5140   54.6850   16.4430 S.o2      1 K13         0.0648
      9 O9         68.8400   55.7780   17.1500 O.2       1 K13        -0.1518
     10 O10        70.0380   53.8380   17.5120 O.2       1 K13        -0.1518
     11 N11        70.7510   55.2670   15.4280 N.am      1 K13        -0.2327
     12 C12        71.4800   54.2180   14.7360 C.3       1 K13         0.0321
     13 C13        72.9620   54.5500   14.6080 C.3       1 K13        -0.0270
     14 C14        73.6220   54.5820   15.9870 C.3       1 K13        -0.0610
     15 C15        73.6150   53.4860   13.7250 C.3       1 K13        -0.0518
     16 C16        70.4660   56.5040   14.7250 C.3       1 K13         0.0578
     17 C17        71.3700   57.6160   15.2540 C.3       1 K13         0.0967
     18 C18        73.6770   52.1290   14.4290 C.3       1 K13        -0.0650
     19 O18        71.2420   58.7470   14.4400 O.3       1 K13        -0.3877
     20 C19        71.0080   57.9830   16.6890 C.3       1 K13         0.0807
     21 N20        71.9840   58.9510   17.1390 N.am      1 K13        -0.2550
     22 C21        72.9750   58.6460   18.1400 C.2       1 K13         0.3203
     23 O22        72.9860   57.6040   18.7200 O.2       1 K13        -0.3775
     24 O23        73.9100   59.6550   18.3650 O.3       1 K13        -0.2578
     25 C24        74.7840   59.5730   19.5800 C.3       1 K13         0.1189
     26 C25        75.9320   60.0070   19.2550 C.3       1 K13         0.0815
     27 O26        75.7360   61.6330   19.2210 O.3       1 K13        -0.3480
     28 C27        74.9260   61.9210   20.1850 C.3       1 K13         0.1648
     29 O28        73.7060   62.7720   19.6770 O.3       1 K13        -0.3509
     30 C29        72.6740   61.9560   19.6370 C.3       1 K13         0.0512
     31 C30        72.9950   60.7620   20.6900 C.3       1 K13        -0.0191
     32 C31        74.3260   60.5870   20.6630 C.3       1 K13         0.0449
     33 C32        69.6480   58.6730   16.7810 C.3       1 K13         0.0064
     34 C33        69.5390   60.6200   18.5680 C.ar      1 K13        -0.0603
     35 C34        69.3310   61.0820   20.0070 C.ar      1 K13        -0.0686
     36 C35        69.0170   60.0660   21.0990 C.ar      1 K13        -0.0687
     37 C36        68.9130   58.5850   20.7520 C.ar      1 K13        -0.0686
     38 C37        69.1210   58.1230   19.3110 C.ar      1 K13        -0.0603
     39 C38        69.4350   59.1400   18.2180 C.ar      1 K13        -0.0408
     40 H1         64.6775   52.2763   12.2781 H         1 K13         0.1719
     41 H2         65.6281   50.7714   12.3985 H         1 K13         0.1719
     42 H3         65.3401   54.4090   13.4952 H         1 K13         0.0515
     43 H4         67.0232   55.6262   15.0682 H         1 K13         0.0602
     44 H5         69.4558   51.8322   15.3957 H         1 K13         0.0602
     45 H6         67.7725   50.6190   13.8135 H         1 K13         0.0515
     46 H7         71.0547   54.0931   13.7293 H         1 K13         0.0480
     47 H8         71.3726   53.2789   15.2985 H         1 K13         0.0480
     48 H9         73.0758   55.5365   14.1350 H         1 K13         0.0314
     49 H10        74.6897   54.8226   15.8770 H         1 K13         0.0233
     50 H11        73.5155   53.5982   16.4674 H         1 K13         0.0233
     51 H12        73.1357   55.3482   16.6086 H         1 K13         0.0233
     52 H13        74.6377   53.8064   13.4773 H         1 K13         0.0266
     53 H14        73.0292   53.3815   12.7998 H         1 K13         0.0266
     54 H15        69.4136   56.7813   14.8845 H         1 K13         0.0504
     55 H16        70.6494   56.3641   13.6495 H         1 K13         0.0504
     56 H17        72.4132   57.2681   15.2284 H         1 K13         0.0634
     57 H18        74.1516   51.3924   13.7641 H         1 K13         0.0230
     58 H19        72.6578   51.7970   14.6758 H         1 K13         0.0230
     59 H20        74.2662   52.2219   15.3532 H         1 K13         0.0230
     60 H21        71.4963   58.5268   13.5515 H         1 K13         0.2100
     61 H22        71.0198   57.0832   17.3216 H         1 K13         0.0604
     62 H23        71.9706   59.8678   16.7399 H         1 K13         0.1873
     63 H24        74.8170   58.5452   19.9706 H         1 K13         0.0675
     64 H25        76.2299   59.6270   18.2667 H         1 K13         0.0590
     65 H26        76.6865   59.7183   20.0016 H         1 K13         0.0590
     66 H27        75.4572   62.4439   20.9940 H         1 K13         0.0913
     67 H28        72.5512   61.5468   18.6234 H         1 K13         0.0561
     68 H29        71.7569   62.4872   19.9317 H         1 K13         0.0561
     69 H30        72.4826   59.8374   20.3860 H         1 K13         0.0293
     70 H31        72.6683   61.0469   21.7010 H         1 K13         0.0293
     71 H32        74.6949   60.2942   21.6571 H         1 K13         0.0380
     72 H33        68.8539   57.9657   16.4997 H         1 K13         0.0449
     73 H34        69.6251   59.5388   16.1028 H         1 K13         0.0449
     74 H35        69.7610   61.3451   17.7934 H         1 K13         0.0557
     75 H36        69.4067   62.1349   20.2534 H         1 K13         0.0599
     76 H37        68.8679   60.3959   22.1208 H         1 K13         0.0559
     77 H38        68.6916   57.8605   21.5273 H         1 K13         0.0599
     78 H39        69.0453   57.0701   19.0644 H         1 K13         0.0557
@<TRIPOS>BOND
     1    2    1 1  
     2    3    2 ar 
     3    7    2 ar 
     4    4    3 ar 
     5    5    4 ar 
     6    5    6 ar 
     7    8    5 1  
     8    6    7 ar 
     9    8    9 2  
    10    8   10 2  
    11   11    8 am 
    12   11   12 1  
    13   16   11 1  
    14   12   13 1  
    15   13   14 1  
    16   13   15 1  
    17   15   18 1  
    18   17   16 1  
    19   17   19 1  
    20   20   17 1  
    21   20   21 1  
    22   33   20 1  
    23   21   22 am 
    24   22   23 2  
    25   22   24 1  
    26   24   25 1  
    27   25   26 1  
    28   25   32 1  
    29   26   27 1  
    30   28   27 1  
    31   28   29 1  
    32   32   28 1  
    33   30   29 1  
    34   31   30 1  
    35   32   31 1  
    36   39   33 1  
    37   34   35 ar 
    38   34   39 ar 
    39   35   36 ar 
    40   36   37 ar 
    41   37   38 ar 
    42   38   39 ar 
    43    1   40 1  
    44    1   41 1  
    45    3   42 1  
    46    4   43 1  
    47    6   44 1  
    48    7   45 1  
    49   12   46 1  
    50   12   47 1  
    51   13   48 1  
    52   14   49 1  
    53   14   50 1  
    54   14   51 1  
    55   15   52 1  
    56   15   53 1  
    57   16   54 1  
    58   16   55 1  
    59   17   56 1  
    60   18   57 1  
    61   18   58 1  
    62   18   59 1  
    63   19   60 1  
    64   20   61 1  
    65   21   62 1  
    66   25   63 1  
    67   26   64 1  
    68   26   65 1  
    69   28   66 1  
    70   30   67 1  
    71   30   68 1  
    72   31   69 1  
    73   31   70 1  
    74   32   71 1  
    75   33   72 1  
    76   33   73 1  
    77   34   74 1  
    78   35   75 1  
    79   36   76 1  
    80   37   77 1  
    81   38   78 1  
@<TRIPOS>SUBSTRUCTURE
     1 K13         1

