### 
### Created by X-TOOL on Wed Jan  1 15:39:36 2020
### 

@<TRIPOS>MOLECULE
6dgz_ligand
   87    90     1     0     0
SMALL
GAST_HUCK


@<TRIPOS>ATOM
      1 N1         65.4310   51.9700   12.5080 N.pl3     1 A60        -0.3369
      2 C2         66.3770   52.6150   13.3670 C.ar      1 A60         0.0353
      3 C3         67.5810   51.8080   13.9100 C.ar      1 A60        -0.0429
      4 C4         68.5850   52.4870   14.8230 C.ar      1 A60        -0.0471
      5 C5         68.3640   53.9600   15.1990 C.ar      1 A60         0.0949
      6 C6         67.1750   54.7660   14.6660 C.ar      1 A60        -0.0471
      7 C7         66.1620   54.0790   13.7480 C.ar      1 A60        -0.0429
      8 S8         69.5600   54.8050   16.2850 S.o2      1 A60         0.0648
      9 O9         68.9100   55.8490   17.0500 O.2       1 A60        -0.1518
     10 O10        70.1270   53.9200   17.2810 O.2       1 A60        -0.1518
     11 N11        70.7940   55.3890   15.2620 N.am      1 A60        -0.2327
     12 C12        71.4440   54.3510   14.4570 C.3       1 A60         0.0324
     13 C13        73.0250   54.5440   14.4640 C.3       1 A60        -0.0244
     14 C14        73.6950   53.5380   13.4670 C.3       1 A60        -0.0516
     15 C15        73.5260   54.4290   15.9150 C.3       1 A60        -0.0516
     16 C16        70.5000   56.7070   14.6170 C.3       1 A60         0.0576
     17 C17        71.4460   57.7970   15.2080 C.3       1 A60         0.0949
     18 C18        75.0640   54.6430   16.0110 C.3       1 A60        -0.0650
     19 O18        71.3240   58.9420   14.4470 O.3       1 A60        -0.3879
     20 C19        71.0620   58.1260   16.6430 C.3       1 A60         0.0715
     21 C20        73.4980   52.0590   13.8620 C.3       1 A60        -0.0650
     22 N20        72.0440   59.0990   17.1390 N.am      1 A60        -0.2569
     23 C21        73.1150   58.7220   18.0890 C.2       1 A60         0.3201
     24 O22        73.1590   57.6580   18.6160 O.2       1 A60        -0.3775
     25 O23        74.0660   59.7570   18.3020 O.3       1 A60        -0.2578
     26 C24        74.9970   59.5950   19.4700 C.3       1 A60         0.1189
     27 C25        76.1410   60.0260   19.1250 C.3       1 A60         0.0815
     28 O26        75.9040   61.6470   19.0620 O.3       1 A60        -0.3480
     29 C27        75.1700   61.9260   20.0940 C.3       1 A60         0.1648
     30 O28        73.9430   62.8430   19.7120 O.3       1 A60        -0.3509
     31 C29        72.8920   62.0550   19.6450 C.3       1 A60         0.0512
     32 C30        73.2250   60.7950   20.6240 C.3       1 A60        -0.0191
     33 C31        74.5620   60.5950   20.5770 C.3       1 A60         0.0449
     34 C32        69.7140   58.7990   16.7240 C.3       1 A60        -0.0246
     35 C33        69.5600   60.7960   18.4750 C.3       1 A60        -0.0501
     36 C34        69.3640   61.2940   19.9160 C.3       1 A60        -0.0528
     37 C35        69.1140   60.2900   21.0680 C.3       1 A60        -0.0530
     38 C36        69.0710   58.7820   20.7720 C.3       1 A60        -0.0528
     39 C37        69.2610   58.2800   19.3290 C.3       1 A60        -0.0501
     40 C38        69.5090   59.2960   18.1800 C.3       1 A60        -0.0389
     41 H1         65.5644   50.9835   12.2437 H         1 A60         0.1719
     42 H2         64.6168   52.4924   12.1542 H         1 A60         0.1719
     43 H3         67.7061   50.7656   13.6401 H         1 A60         0.0515
     44 H4         69.4421   51.9428   15.2028 H         1 A60         0.0602
     45 H5         67.0531   55.8088   14.9356 H         1 A60         0.0602
     46 H6         65.3031   54.6237   13.3729 H         1 A60         0.0515
     47 H7         71.0768   54.4133   13.4220 H         1 A60         0.0481
     48 H8         71.1986   53.3633   14.8743 H         1 A60         0.0481
     49 H9         73.2552   55.5599   14.1104 H         1 A60         0.0316
     50 H10        74.7741   53.7485   13.4320 H         1 A60         0.0266
     51 H11        73.2586   53.6933   12.4693 H         1 A60         0.0266
     52 H12        73.2808   53.4277   16.2986 H         1 A60         0.0266
     53 H13        73.0212   55.1902   16.5279 H         1 A60         0.0266
     54 H14        69.4536   56.9851   14.8113 H         1 A60         0.0504
     55 H15        70.6633   56.6289   13.5320 H         1 A60         0.0504
     56 H16        72.4848   57.4363   15.1797 H         1 A60         0.0632
     57 H17        75.3819   54.5533   17.0602 H         1 A60         0.0230
     58 H18        75.3190   55.6448   15.6350 H         1 A60         0.0230
     59 H19        75.5786   53.8822   15.4057 H         1 A60         0.0230
     60 H20        71.5688   58.7517   13.5490 H         1 A60         0.2099
     61 H21        71.0663   57.2112   17.2538 H         1 A60         0.0581
     62 H22        73.9920   51.4128   13.1214 H         1 A60         0.0230
     63 H23        72.4231   51.8274   13.8916 H         1 A60         0.0230
     64 H24        73.9386   51.8827   14.8543 H         1 A60         0.0230
     65 H25        71.9874   60.0467   16.8249 H         1 A60         0.1871
     66 H26        75.0253   58.5545   19.8258 H         1 A60         0.0675
     67 H27        76.4360   59.6288   18.1426 H         1 A60         0.0590
     68 H28        76.9060   59.7647   19.8709 H         1 A60         0.0590
     69 H29        75.7776   62.4016   20.8780 H         1 A60         0.0913
     70 H30        72.7372   61.7084   18.6126 H         1 A60         0.0561
     71 H31        71.9926   62.5842   19.9929 H         1 A60         0.0561
     72 H32        72.6968   59.8958   20.2740 H         1 A60         0.0293
     73 H33        72.9143   61.0253   21.6538 H         1 A60         0.0293
     74 H34        74.9417   60.2867   21.5623 H         1 A60         0.0380
     75 H35        68.9228   58.0817   16.4602 H         1 A60         0.0291
     76 H36        69.6812   59.6525   16.0308 H         1 A60         0.0291
     77 H37        70.5468   61.1529   18.1452 H         1 A60         0.0268
     78 H38        68.7763   61.2683   17.8645 H         1 A60         0.0268
     79 H39        68.5006   61.9754   19.8991 H         1 A60         0.0265
     80 H40        70.2708   61.8576   20.1806 H         1 A60         0.0265
     81 H41        68.1447   60.5543   21.5160 H         1 A60         0.0265
     82 H42        69.9142   60.4468   21.8063 H         1 A60         0.0265
     83 H43        68.0887   58.4191   21.1087 H         1 A60         0.0265
     84 H44        69.8617   58.3157   21.3781 H         1 A60         0.0265
     85 H45        68.3525   57.7184   19.0658 H         1 A60         0.0268
     86 H46        70.1235   57.5974   19.3411 H         1 A60         0.0268
     87 H47        68.4248   59.3638   18.0071 H         1 A60         0.0301
@<TRIPOS>BOND
     1    2    1 1  
     2    3    2 ar 
     3    7    2 ar 
     4    4    3 ar 
     5    5    4 ar 
     6    5    6 ar 
     7    8    5 1  
     8    6    7 ar 
     9    8    9 2  
    10    8   10 2  
    11   11    8 am 
    12   11   12 1  
    13   16   11 1  
    14   12   13 1  
    15   13   14 1  
    16   13   15 1  
    17   14   21 1  
    18   15   18 1  
    19   17   16 1  
    20   17   19 1  
    21   20   17 1  
    22   20   22 1  
    23   34   20 1  
    24   22   23 am 
    25   23   24 2  
    26   23   25 1  
    27   25   26 1  
    28   26   27 1  
    29   26   33 1  
    30   27   28 1  
    31   29   28 1  
    32   29   30 1  
    33   33   29 1  
    34   31   30 1  
    35   32   31 1  
    36   33   32 1  
    37   40   34 1  
    38   35   36 1  
    39   35   40 1  
    40   36   37 1  
    41   37   38 1  
    42   38   39 1  
    43   39   40 1  
    44    1   41 1  
    45    1   42 1  
    46    3   43 1  
    47    4   44 1  
    48    6   45 1  
    49    7   46 1  
    50   12   47 1  
    51   12   48 1  
    52   13   49 1  
    53   14   50 1  
    54   14   51 1  
    55   15   52 1  
    56   15   53 1  
    57   16   54 1  
    58   16   55 1  
    59   17   56 1  
    60   18   57 1  
    61   18   58 1  
    62   18   59 1  
    63   19   60 1  
    64   20   61 1  
    65   21   62 1  
    66   21   63 1  
    67   21   64 1  
    68   22   65 1  
    69   26   66 1  
    70   27   67 1  
    71   27   68 1  
    72   29   69 1  
    73   31   70 1  
    74   31   71 1  
    75   32   72 1  
    76   32   73 1  
    77   33   74 1  
    78   34   75 1  
    79   34   76 1  
    80   35   77 1  
    81   35   78 1  
    82   36   79 1  
    83   36   80 1  
    84   37   81 1  
    85   37   82 1  
    86   38   83 1  
    87   38   84 1  
    88   39   85 1  
    89   39   86 1  
    90   40   87 1  
@<TRIPOS>SUBSTRUCTURE
     1 A60         1

