### 
### Created by X-TOOL on Wed Jan  1 15:39:36 2020
### 

@<TRIPOS>MOLECULE
6dh0_ligand
   75    78     1     0     0
SMALL
GAST_HUCK


@<TRIPOS>ATOM
      1 N1        116.6220   51.9170   12.5800 N.pl3     1 017        -0.3369
      2 C2        117.6000   52.5830   13.4870 C.ar      1 017         0.0353
      3 C3        117.4390   53.9170   13.7880 C.ar      1 017        -0.0429
      4 C4        118.3300   54.5440   14.6200 C.ar      1 017        -0.0471
      5 C5        119.3890   53.8180   15.1630 C.ar      1 017         0.0949
      6 C6        119.5670   52.5010   14.8660 C.ar      1 017        -0.0471
      7 C7        118.6600   51.8680   14.0210 C.ar      1 017        -0.0429
      8 S8        120.5660   54.6890   16.2520 S.o2      1 017         0.0648
      9 O9        121.1210   53.8150   17.2750 O.2       1 017        -0.1518
     10 O10       119.8860   55.7780   16.9970 O.2       1 017        -0.1518
     11 N11       121.7980   55.2930   15.2060 N.am      1 017        -0.2327
     12 C12       122.5700   54.2790   14.4700 C.3       1 017         0.0319
     13 C13       124.0580   54.6430   14.4130 C.3       1 017        -0.0296
     14 C14       124.8190   53.6580   13.4660 C.3       1 017        -0.0612
     15 C15       124.6940   54.7030   15.8230 C.3       1 017        -0.0612
     16 C16       121.4700   56.6470   14.5360 C.3       1 017         0.0578
     17 C17       122.4180   57.7470   15.1030 C.3       1 017         0.0967
     18 O18       122.2940   58.8930   14.3430 O.3       1 017        -0.3877
     19 C19       122.0620   58.0410   16.5690 C.3       1 017         0.0807
     20 N20       123.0440   58.9790   17.0440 N.am      1 017        -0.2550
     21 C21       124.0000   58.6550   18.0990 C.2       1 017         0.3203
     22 O22       123.9950   57.5990   18.6560 O.2       1 017        -0.3775
     23 O23       124.8950   59.6790   18.3890 O.3       1 017        -0.2578
     24 C24       125.6670   59.6570   19.5680 C.3       1 017         0.1189
     25 C25       127.1460   60.2500   19.1160 C.3       1 017         0.0815
     26 O26       126.9240   61.5700   18.9740 O.3       1 017        -0.3480
     27 C27       125.8770   61.9150   20.0970 C.3       1 017         0.1648
     28 O28       124.9620   62.6560   19.6500 O.3       1 017        -0.3509
     29 C29       123.5590   61.8380   19.7080 C.3       1 017         0.0512
     30 C30       123.7460   60.7820   20.4810 C.3       1 017        -0.0191
     31 C31       125.2260   60.5240   20.4950 C.3       1 017         0.0449
     32 C32       120.7100   58.7300   16.7380 C.3       1 017         0.0064
     33 C33       120.2500   58.3010   19.1770 C.ar      1 017        -0.0603
     34 C34       120.0590   58.7390   20.5020 C.ar      1 017        -0.0686
     35 C35       120.1220   60.1100   20.8070 C.ar      1 017        -0.0687
     36 C36       120.3740   61.0250   19.8080 C.ar      1 017        -0.0686
     37 C37       120.5650   60.5900   18.4890 C.ar      1 017        -0.0603
     38 C38       120.4990   59.2120   18.1770 C.ar      1 017        -0.0408
     39 H1        115.8362   52.4541   12.1864 H         1 017         0.1719
     40 H2        116.7321   50.9198   12.3470 H         1 017         0.1719
     41 H3        116.6079   54.4712   13.3671 H         1 017         0.0515
     42 H4        118.2120   55.5959   14.8538 H         1 017         0.0602
     43 H5        120.4043   51.9527   15.2823 H         1 017         0.0602
     44 H6        118.7826   50.8180   13.7812 H         1 017         0.0515
     45 H7        122.1796   54.2066   13.4442 H         1 017         0.0480
     46 H8        122.4580   53.3079   14.9744 H         1 017         0.0480
     47 H9        124.1372   55.6499   13.9773 H         1 017         0.0311
     48 H10       125.8844   53.9298   13.4339 H         1 017         0.0233
     49 H11       124.3940   53.7209   12.4534 H         1 017         0.0233
     50 H12       124.7140   52.6306   13.8446 H         1 017         0.0233
     51 H13       124.1271   55.4058   16.4513 H         1 017         0.0233
     52 H14       125.7367   55.0437   15.7408 H         1 017         0.0233
     53 H15       124.6701   53.7022   16.2790 H         1 017         0.0233
     54 H16       120.4252   56.9180   14.7478 H         1 017         0.0504
     55 H17       121.6139   56.5631   13.4487 H         1 017         0.0504
     56 H18       123.4573   57.3905   15.0512 H         1 017         0.0634
     57 H19       122.5305   58.7019   13.4429 H         1 017         0.2100
     58 H20       122.0831   57.1087   17.1524 H         1 017         0.0604
     59 H21       123.0730   59.8909   16.6346 H         1 017         0.1873
     60 H22       125.7271   58.6384   19.9789 H         1 017         0.0675
     61 H23       127.4760   59.8023   18.1670 H         1 017         0.0590
     62 H24       127.9006   60.0594   19.8934 H         1 017         0.0590
     63 H25       126.3684   62.3918   20.9579 H         1 017         0.0913
     64 H26       123.2697   61.5164   18.6966 H         1 017         0.0561
     65 H27       122.7690   62.4768   20.1297 H         1 017         0.0561
     66 H28       123.2119   59.9117   20.0720 H         1 017         0.0293
     67 H29       123.3860   60.9877   21.4999 H         1 017         0.0293
     68 H30       125.5392   60.1921   21.4959 H         1 017         0.0380
     69 H31       119.9119   58.0187   16.4791 H         1 017         0.0449
     70 H32       120.6633   59.5958   16.0611 H         1 017         0.0449
     71 H33       120.2006   57.2433   18.9448 H         1 017         0.0557
     72 H34       119.8632   58.0181   21.2875 H         1 017         0.0599
     73 H35       119.9726   60.4467   21.8265 H         1 017         0.0559
     74 H36       120.4246   62.0822   20.0422 H         1 017         0.0599
     75 H37       120.7640   61.3123   17.7055 H         1 017         0.0557
@<TRIPOS>BOND
     1    2    1 1  
     2    3    2 ar 
     3    7    2 ar 
     4    4    3 ar 
     5    5    4 ar 
     6    5    6 ar 
     7    8    5 1  
     8    6    7 ar 
     9    8    9 2  
    10    8   10 2  
    11   11    8 am 
    12   11   12 1  
    13   16   11 1  
    14   12   13 1  
    15   13   14 1  
    16   13   15 1  
    17   17   16 1  
    18   17   18 1  
    19   19   17 1  
    20   19   20 1  
    21   32   19 1  
    22   20   21 am 
    23   21   22 2  
    24   21   23 1  
    25   23   24 1  
    26   24   25 1  
    27   24   31 1  
    28   25   26 1  
    29   27   26 1  
    30   27   28 1  
    31   31   27 1  
    32   29   28 1  
    33   30   29 1  
    34   31   30 1  
    35   38   32 1  
    36   33   34 ar 
    37   33   38 ar 
    38   34   35 ar 
    39   35   36 ar 
    40   36   37 ar 
    41   37   38 ar 
    42    1   39 1  
    43    1   40 1  
    44    3   41 1  
    45    4   42 1  
    46    6   43 1  
    47    7   44 1  
    48   12   45 1  
    49   12   46 1  
    50   13   47 1  
    51   14   48 1  
    52   14   49 1  
    53   14   50 1  
    54   15   51 1  
    55   15   52 1  
    56   15   53 1  
    57   16   54 1  
    58   16   55 1  
    59   17   56 1  
    60   18   57 1  
    61   19   58 1  
    62   20   59 1  
    63   24   60 1  
    64   25   61 1  
    65   25   62 1  
    66   27   63 1  
    67   29   64 1  
    68   29   65 1  
    69   30   66 1  
    70   30   67 1  
    71   31   68 1  
    72   32   69 1  
    73   32   70 1  
    74   33   71 1  
    75   34   72 1  
    76   35   73 1  
    77   36   74 1  
    78   37   75 1  
@<TRIPOS>SUBSTRUCTURE
     1 017         1

