### 
### Created by X-TOOL on Wed Jan  1 15:39:36 2020
### 

@<TRIPOS>MOLECULE
6dh2_ligand
   87    90     1     0     0
SMALL
GAST_HUCK


@<TRIPOS>ATOM
      1 N1        116.8020   51.5870   12.6060 N.pl3     1 A60        -0.3369
      2 C2        117.7380   52.2240   13.4910 C.ar      1 A60         0.0353
      3 C3        118.9110   51.4200   14.1030 C.ar      1 A60        -0.0429
      4 C4        119.8930   52.1110   15.0370 C.ar      1 A60        -0.0471
      5 C5        119.6800   53.6010   15.3550 C.ar      1 A60         0.0949
      6 C6        118.5370   54.4000   14.7470 C.ar      1 A60        -0.0471
      7 C7        117.5560   53.6950   13.8130 C.ar      1 A60        -0.0429
      8 S8        120.8280   54.4990   16.4410 S.o2      1 A60         0.0648
      9 O9        120.1680   55.5860   17.1360 O.2       1 A60        -0.1518
     10 O10       121.3730   53.6730   17.4940 O.2       1 A60        -0.1518
     11 N11       122.0540   55.0650   15.3970 N.am      1 A60        -0.2327
     12 C12       122.7490   54.0140   14.6510 C.3       1 A60         0.0324
     13 C13       124.3180   54.2880   14.6240 C.3       1 A60        -0.0244
     14 C14       124.9870   53.2650   13.6470 C.3       1 A60        -0.0516
     15 C15       124.8650   54.2310   16.0690 C.3       1 A60        -0.0516
     16 C16       121.7670   56.3590   14.6940 C.3       1 A60         0.0576
     17 C17       122.7550   57.4500   15.2140 C.3       1 A60         0.0949
     18 C18       126.3850   54.5720   16.0930 C.3       1 A60        -0.0650
     19 O18       122.6810   58.5800   14.4170 O.3       1 A60        -0.3879
     20 C19       122.4090   57.8080   16.6520 C.3       1 A60         0.0715
     21 C20       124.9140   51.8030   14.1550 C.3       1 A60        -0.0650
     22 N20       123.4470   58.7480   17.0860 N.am      1 A60        -0.2569
     23 C21       124.4580   58.3740   18.0990 C.2       1 A60         0.3201
     24 O22       124.4620   57.3040   18.6200 O.2       1 A60        -0.3775
     25 O23       125.4080   59.4010   18.3710 O.3       1 A60        -0.2578
     26 C24       126.2930   59.2870   19.5790 C.3       1 A60         0.1189
     27 C25       127.4460   59.6960   19.2320 C.3       1 A60         0.0815
     28 O26       127.2530   61.3250   19.1450 O.3       1 A60        -0.3480
     29 C27       126.4410   61.6460   20.1110 C.3       1 A60         0.1648
     30 O28       125.2230   62.4980   19.5970 O.3       1 A60        -0.3509
     31 C29       124.1680   61.7100   19.5900 C.3       1 A60         0.0512
     32 C30       124.4880   60.5160   20.6410 C.3       1 A60        -0.0191
     33 C31       125.8290   60.3340   20.6340 C.3       1 A60         0.0449
     34 C32       121.0790   58.5160   16.7620 C.3       1 A60        -0.0246
     35 C33       120.5680   57.9260   19.3180 C.3       1 A60        -0.0501
     36 C34       120.3800   58.3680   20.7840 C.3       1 A60        -0.0528
     37 C35       120.5050   59.8640   21.1650 C.3       1 A60        -0.0530
     38 C36       120.8130   60.9050   20.0810 C.3       1 A60        -0.0528
     39 C37       121.0040   60.4620   18.6170 C.3       1 A60        -0.0501
     40 C38       120.8830   58.9700   18.2360 C.3       1 A60        -0.0389
     41 H1        116.9088   50.5889   12.3752 H         1 A60         0.1719
     42 H2        116.0243   52.1286   12.2024 H         1 A60         0.1719
     43 H3        119.0321   50.3690   13.8669 H         1 A60         0.0515
     44 H4        120.7243   51.5656   15.4689 H         1 A60         0.0602
     45 H5        118.4208   55.4537   14.9734 H         1 A60         0.0602
     46 H6        116.7291   54.2461   13.3799 H         1 A60         0.0515
     47 H7        122.3684   53.9913   13.6192 H         1 A60         0.0481
     48 H8        122.5600   53.0435   15.1330 H         1 A60         0.0481
     49 H9        124.4988   55.3001   14.2331 H         1 A60         0.0316
     50 H10       126.0448   53.5400   13.5225 H         1 A60         0.0266
     51 H11       124.4760   53.3237   12.6747 H         1 A60         0.0266
     52 H12       124.7151   53.2189   16.4728 H         1 A60         0.0266
     53 H13       124.3215   54.9579   16.6904 H         1 A60         0.0266
     54 H14       120.7323   56.6697   14.9012 H         1 A60         0.0504
     55 H15       121.9003   56.2273   13.6101 H         1 A60         0.0504
     56 H16       123.7801   57.0528   15.1782 H         1 A60         0.0632
     57 H17       126.7547   54.5262   17.1280 H         1 A60         0.0230
     58 H18       126.5400   55.5848   15.6928 H         1 A60         0.0230
     59 H19       126.9335   53.8457   15.4752 H         1 A60         0.0230
     60 H20       122.9105   58.3518   13.5238 H         1 A60         0.2099
     61 H21       122.4039   56.9038   17.2784 H         1 A60         0.0581
     62 H22       125.3995   51.1370   13.4265 H         1 A60         0.0230
     63 H23       123.8610   51.5089   14.2756 H         1 A60         0.0230
     64 H24       125.4298   51.7251   15.1235 H         1 A60         0.0230
     65 H25       123.4722   59.6647   16.6873 H         1 A60         0.1871
     66 H26       126.3068   58.2632   19.9810 H         1 A60         0.0675
     67 H27       127.7352   59.2800   18.2557 H         1 A60         0.0590
     68 H28       128.2029   59.4277   19.9837 H         1 A60         0.0590
     69 H29       126.9832   62.1844   20.9022 H         1 A60         0.0913
     70 H30       124.0062   61.2983   18.5829 H         1 A60         0.0561
     71 H31       123.2738   62.2670   19.9064 H         1 A60         0.0561
     72 H32       123.9794   59.5917   20.3296 H         1 A60         0.0293
     73 H33       124.1501   60.7988   21.6489 H         1 A60         0.0293
     74 H34       126.1884   60.0715   21.6399 H         1 A60         0.0380
     75 H35       120.2685   57.8303   16.4740 H         1 A60         0.0291
     76 H36       121.0698   59.3937   16.0990 H         1 A60         0.0291
     77 H37       119.6364   57.4258   19.0150 H         1 A60         0.0268
     78 H38       121.3940   57.1997   19.3086 H         1 A60         0.0268
     79 H39       121.1305   57.8256   21.3777 H         1 A60         0.0265
     80 H40       119.3720   58.0470   21.0855 H         1 A60         0.0265
     81 H41       121.3086   59.9359   21.9127 H         1 A60         0.0265
     82 H42       119.5493   60.1563   21.6245 H         1 A60         0.0265
     83 H43       121.7414   61.4120   20.3827 H         1 A60         0.0265
     84 H44       119.9823   61.6260   20.0884 H         1 A60         0.0265
     85 H45       122.0119   60.7848   18.3172 H         1 A60         0.0268
     86 H46       120.2535   61.0028   18.0218 H         1 A60         0.0268
     87 H47       119.8072   59.1056   18.0511 H         1 A60         0.0301
@<TRIPOS>BOND
     1    2    1 1  
     2    3    2 ar 
     3    7    2 ar 
     4    4    3 ar 
     5    5    4 ar 
     6    5    6 ar 
     7    8    5 1  
     8    6    7 ar 
     9    8    9 2  
    10    8   10 2  
    11   11    8 am 
    12   11   12 1  
    13   16   11 1  
    14   12   13 1  
    15   13   14 1  
    16   13   15 1  
    17   14   21 1  
    18   15   18 1  
    19   17   16 1  
    20   17   19 1  
    21   20   17 1  
    22   20   22 1  
    23   34   20 1  
    24   22   23 am 
    25   23   24 2  
    26   23   25 1  
    27   25   26 1  
    28   26   27 1  
    29   26   33 1  
    30   27   28 1  
    31   29   28 1  
    32   29   30 1  
    33   33   29 1  
    34   31   30 1  
    35   32   31 1  
    36   33   32 1  
    37   40   34 1  
    38   35   36 1  
    39   35   40 1  
    40   36   37 1  
    41   37   38 1  
    42   38   39 1  
    43   39   40 1  
    44    1   41 1  
    45    1   42 1  
    46    3   43 1  
    47    4   44 1  
    48    6   45 1  
    49    7   46 1  
    50   12   47 1  
    51   12   48 1  
    52   13   49 1  
    53   14   50 1  
    54   14   51 1  
    55   15   52 1  
    56   15   53 1  
    57   16   54 1  
    58   16   55 1  
    59   17   56 1  
    60   18   57 1  
    61   18   58 1  
    62   18   59 1  
    63   19   60 1  
    64   20   61 1  
    65   21   62 1  
    66   21   63 1  
    67   21   64 1  
    68   22   65 1  
    69   26   66 1  
    70   27   67 1  
    71   27   68 1  
    72   29   69 1  
    73   31   70 1  
    74   31   71 1  
    75   32   72 1  
    76   32   73 1  
    77   33   74 1  
    78   34   75 1  
    79   34   76 1  
    80   35   77 1  
    81   35   78 1  
    82   36   79 1  
    83   36   80 1  
    84   37   81 1  
    85   37   82 1  
    86   38   83 1  
    87   38   84 1  
    88   39   85 1  
    89   39   86 1  
    90   40   87 1  
@<TRIPOS>SUBSTRUCTURE
     1 A60         1

