### 
### Created by X-TOOL on Wed Jan  1 15:39:35 2020
### 

@<TRIPOS>MOLECULE
6dh3_ligand
   75    78     1     0     0
SMALL
GAST_HUCK


@<TRIPOS>ATOM
      1 N1         65.7490   51.8100   12.7450 N.pl3     1 017        -0.3369
      2 C2         66.7100   52.4920   13.6580 C.ar      1 017         0.0353
      3 C3         67.7770   51.8000   14.1950 C.ar      1 017        -0.0429
      4 C4         68.6580   52.4430   15.0370 C.ar      1 017        -0.0471
      5 C5         68.4550   53.7900   15.3410 C.ar      1 017         0.0949
      6 C6         67.4090   54.4780   14.8090 C.ar      1 017        -0.0471
      7 C7         66.5210   53.8260   13.9600 C.ar      1 017        -0.0429
      8 S8         69.6150   54.6770   16.4440 S.o2      1 017         0.0648
      9 O9         70.1260   53.8340   17.5120 O.2       1 017        -0.1518
     10 O10        68.9250   55.7960   17.1320 O.2       1 017        -0.1518
     11 N11        70.8900   55.2620   15.4340 N.am      1 017        -0.2327
     12 C12        71.6640   54.2190   14.7320 C.3       1 017         0.0319
     13 C13        73.1540   54.5610   14.6350 C.3       1 017        -0.0296
     14 C14        73.8520   53.5320   13.6820 C.3       1 017        -0.0612
     15 C15        73.8370   54.6060   16.0250 C.3       1 017        -0.0612
     16 C16        70.5960   56.5970   14.7200 C.3       1 017         0.0578
     17 C17        71.5230   57.7170   15.2880 C.3       1 017         0.0967
     18 O18        71.3870   58.8500   14.5120 O.3       1 017        -0.3877
     19 C19        71.1610   58.0330   16.7490 C.3       1 017         0.0807
     20 N20        72.1580   58.9570   17.2310 N.am      1 017        -0.2550
     21 C21        73.1390   58.6170   18.2650 C.2       1 017         0.3203
     22 O22        73.1560   57.5430   18.7890 O.2       1 017        -0.3775
     23 O23        74.0320   59.6490   18.5600 O.3       1 017        -0.2578
     24 C24        74.7860   59.6590   19.7570 C.3       1 017         0.1189
     25 C25        76.2650   60.2670   19.3190 C.3       1 017         0.0815
     26 O26        76.0320   61.5790   19.1560 O.3       1 017        -0.3480
     27 C27        74.9620   61.9350   20.2530 C.3       1 017         0.1648
     28 O28        74.0470   62.6480   19.7650 O.3       1 017        -0.3509
     29 C29        72.6600   61.7960   19.8090 C.3       1 017         0.0512
     30 C30        72.8480   60.7780   20.6260 C.3       1 017        -0.0191
     31 C31        74.3260   60.5380   20.6660 C.3       1 017         0.0449
     32 C32        69.8160   58.7460   16.8880 C.3       1 017         0.0064
     33 C33        69.6580   60.5550   18.6380 C.ar      1 017        -0.0603
     34 C34        69.4280   60.9880   19.9570 C.ar      1 017        -0.0686
     35 C35        69.1010   60.0610   20.9600 C.ar      1 017        -0.0687
     36 C36        69.0030   58.7220   20.6500 C.ar      1 017        -0.0686
     37 C37        69.2280   58.2900   19.3360 C.ar      1 017        -0.0603
     38 C38        69.5630   59.2230   18.3240 C.ar      1 017        -0.0408
     39 H1         65.8781   50.8152   12.5113 H         1 017         0.1719
     40 H2         64.9559   52.3336   12.3478 H         1 017         0.1719
     41 H3         67.9215   50.7529   13.9547 H         1 017         0.0515
     42 H4         69.5008   51.9078   15.4593 H         1 017         0.0602
     43 H5         67.2686   55.5266   15.0450 H         1 017         0.0602
     44 H6         65.6813   54.3646   13.5358 H         1 017         0.0515
     45 H7         71.2611   54.1051   13.7148 H         1 017         0.0480
     46 H8         71.5545   53.2705   15.2782 H         1 017         0.0480
     47 H9         73.2463   55.5615   14.1873 H         1 017         0.0311
     48 H10        74.9232   53.7704   13.6065 H         1 017         0.0233
     49 H11        73.3930   53.5868   12.6839 H         1 017         0.0233
     50 H12        73.7300   52.5164   14.0865 H         1 017         0.0233
     51 H13        73.3204   55.3375   16.6638 H         1 017         0.0233
     52 H14        74.8899   54.9015   15.9068 H         1 017         0.0233
     53 H15        73.7855   53.6111   16.4913 H         1 017         0.0233
     54 H16        69.5446   56.8752   14.8846 H         1 017         0.0504
     55 H17        70.7805   56.4826   13.6417 H         1 017         0.0504
     56 H18        72.5673   57.3739   15.2469 H         1 017         0.0634
     57 H19        71.6357   58.6512   13.6170 H         1 017         0.2100
     58 H20        71.1572   57.1064   17.3417 H         1 017         0.0604
     59 H21        72.1810   59.8769   16.8395 H         1 017         0.1873
     60 H22        74.8524   58.6483   20.1859 H         1 017         0.0675
     61 H23        76.6149   59.8109   18.3811 H         1 017         0.0590
     62 H24        77.0098   60.0959   20.1102 H         1 017         0.0590
     63 H25        75.4275   62.4400   21.1123 H         1 017         0.0913
     64 H26        72.4121   61.4291   18.8021 H         1 017         0.0561
     65 H27        71.8411   62.4297   20.1803 H         1 017         0.0561
     66 H28        72.3274   59.8856   20.2485 H         1 017         0.0293
     67 H29        72.4746   61.0225   21.6314 H         1 017         0.0293
     68 H30        74.6306   60.2263   21.6760 H         1 017         0.0380
     69 H31        69.0141   58.0509   16.5985 H         1 017         0.0449
     70 H32        69.8054   59.6178   16.2174 H         1 017         0.0449
     71 H33        69.9108   61.2754   17.8685 H         1 017         0.0557
     72 H34        69.5036   62.0417   20.2000 H         1 017         0.0599
     73 H35        68.9262   60.3980   21.9754 H         1 017         0.0559
     74 H36        68.7521   58.0034   21.4218 H         1 017         0.0599
     75 H37        69.1453   57.2369   19.0928 H         1 017         0.0557
@<TRIPOS>BOND
     1    2    1 1  
     2    3    2 ar 
     3    7    2 ar 
     4    4    3 ar 
     5    5    4 ar 
     6    5    6 ar 
     7    8    5 1  
     8    6    7 ar 
     9    8    9 2  
    10    8   10 2  
    11   11    8 am 
    12   11   12 1  
    13   16   11 1  
    14   12   13 1  
    15   13   14 1  
    16   13   15 1  
    17   17   16 1  
    18   17   18 1  
    19   19   17 1  
    20   19   20 1  
    21   32   19 1  
    22   20   21 am 
    23   21   22 2  
    24   21   23 1  
    25   23   24 1  
    26   24   25 1  
    27   24   31 1  
    28   25   26 1  
    29   27   26 1  
    30   27   28 1  
    31   31   27 1  
    32   29   28 1  
    33   30   29 1  
    34   31   30 1  
    35   38   32 1  
    36   33   34 ar 
    37   33   38 ar 
    38   34   35 ar 
    39   35   36 ar 
    40   36   37 ar 
    41   37   38 ar 
    42    1   39 1  
    43    1   40 1  
    44    3   41 1  
    45    4   42 1  
    46    6   43 1  
    47    7   44 1  
    48   12   45 1  
    49   12   46 1  
    50   13   47 1  
    51   14   48 1  
    52   14   49 1  
    53   14   50 1  
    54   15   51 1  
    55   15   52 1  
    56   15   53 1  
    57   16   54 1  
    58   16   55 1  
    59   17   56 1  
    60   18   57 1  
    61   19   58 1  
    62   20   59 1  
    63   24   60 1  
    64   25   61 1  
    65   25   62 1  
    66   27   63 1  
    67   29   64 1  
    68   29   65 1  
    69   30   66 1  
    70   30   67 1  
    71   31   68 1  
    72   32   69 1  
    73   32   70 1  
    74   33   71 1  
    75   34   72 1  
    76   35   73 1  
    77   36   74 1  
    78   37   75 1  
@<TRIPOS>SUBSTRUCTURE
     1 017         1

