### 
### Created by X-TOOL on Wed Jan  1 15:39:36 2020
### 

@<TRIPOS>MOLECULE
6dh4_ligand
   78    81     1     0     0
SMALL
GAST_HUCK


@<TRIPOS>ATOM
      1 N1         65.4330   51.7440   12.7420 N.pl3     1 K13        -0.3369
      2 C2         66.3690   52.4110   13.6120 C.ar      1 K13         0.0353
      3 C3         66.1340   53.8650   13.9950 C.ar      1 K13        -0.0429
      4 C4         67.1170   54.5770   14.9090 C.ar      1 K13        -0.0471
      5 C5         68.3280   53.8230   15.4450 C.ar      1 K13         0.0949
      6 C6         68.5700   52.3720   15.0620 C.ar      1 K13        -0.0471
      7 C7         67.5860   51.6610   14.1430 C.ar      1 K13        -0.0429
      8 S8         69.5000   54.6780   16.5240 S.o2      1 K13         0.0648
      9 O9         68.8460   55.7620   17.2610 O.2       1 K13        -0.1518
     10 O10        70.0000   53.8100   17.5870 O.2       1 K13        -0.1518
     11 N11        70.7720   55.2430   15.5300 N.am      1 K13        -0.2327
     12 C12        71.5330   54.1960   14.8600 C.3       1 K13         0.0321
     13 C13        73.0000   54.5820   14.6880 C.3       1 K13        -0.0270
     14 C14        73.6880   54.6140   16.0530 C.3       1 K13        -0.0610
     15 C15        73.6930   53.5700   13.7730 C.3       1 K13        -0.0518
     16 C16        70.5200   56.4740   14.8020 C.3       1 K13         0.0578
     17 C17        71.4160   57.5960   15.3300 C.3       1 K13         0.0967
     18 C18        73.6680   52.1560   14.3580 C.3       1 K13        -0.0650
     19 O18        71.2620   58.7340   14.5300 O.3       1 K13        -0.3877
     20 C19        71.0620   57.9650   16.7650 C.3       1 K13         0.0807
     21 N20        72.0550   58.9190   17.2110 N.am      1 K13        -0.2550
     22 C21        73.0500   58.5980   18.2070 C.2       1 K13         0.3203
     23 O22        73.0540   57.5520   18.7680 O.2       1 K13        -0.3775
     24 O23        74.0020   59.5910   18.4540 O.3       1 K13        -0.2578
     25 C24        74.8220   59.5080   19.7080 C.3       1 K13         0.1189
     26 C25        75.9910   59.9140   19.4310 C.3       1 K13         0.0815
     27 O26        75.8540   61.5490   19.4060 O.3       1 K13        -0.3480
     28 C27        74.9820   61.8600   20.3040 C.3       1 K13         0.1648
     29 O28        73.8080   62.7230   19.7010 O.3       1 K13        -0.3509
     30 C29        72.7560   61.9330   19.6480 C.3       1 K13         0.0512
     31 C30        73.0110   60.7490   20.7310 C.3       1 K13        -0.0191
     32 C31        74.3380   60.5420   20.7640 C.3       1 K13         0.0449
     33 C32        69.7040   58.6600   16.8420 C.3       1 K13         0.0064
     34 C33        69.1150   58.1020   19.3560 C.ar      1 K13        -0.0603
     35 C34        68.8840   58.5590   20.7970 C.ar      1 K13        -0.0686
     36 C35        69.0020   60.0390   21.1550 C.ar      1 K13        -0.0687
     37 C36        69.3550   61.0610   20.0760 C.ar      1 K13        -0.0686
     38 C37        69.5880   60.6030   18.6360 C.ar      1 K13        -0.0603
     39 C38        69.4680   59.1240   18.2770 C.ar      1 K13        -0.0408
     40 H1         64.6113   52.2513   12.3838 H         1 K13         0.1719
     41 H2         65.5859   50.7601   12.4785 H         1 K13         0.1719
     42 H3         65.2660   54.3923   13.6160 H         1 K13         0.0515
     43 H4         66.9579   55.6149   15.1782 H         1 K13         0.0602
     44 H5         69.4387   51.8461   15.4412 H         1 K13         0.0602
     45 H6         67.7499   50.6256   13.8672 H         1 K13         0.0515
     46 H7         71.0937   54.0162   13.8677 H         1 K13         0.0480
     47 H8         71.4752   53.2752   15.4590 H         1 K13         0.0480
     48 H9         73.0601   55.5808   14.2312 H         1 K13         0.0314
     49 H10        74.7444   54.8924   15.9247 H         1 K13         0.0233
     50 H11        73.6249   53.6195   16.5188 H         1 K13         0.0233
     51 H12        73.1897   55.3531   16.6975 H         1 K13         0.0233
     52 H13        74.7397   53.8774   13.6321 H         1 K13         0.0266
     53 H14        73.1794   53.5609   12.8003 H         1 K13         0.0266
     54 H15        69.4658   56.7614   14.9289 H         1 K13         0.0504
     55 H16        70.7304   56.3137   13.7343 H         1 K13         0.0504
     56 H17        72.4632   57.2613   15.2932 H         1 K13         0.0634
     57 H18        74.1755   51.4651   13.6688 H         1 K13         0.0230
     58 H19        72.6251   51.8350   14.4969 H         1 K13         0.0230
     59 H20        74.1855   52.1515   15.3287 H         1 K13         0.0230
     60 H21        71.5076   58.5269   13.6360 H         1 K13         0.2100
     61 H22        71.0641   57.0665   17.3996 H         1 K13         0.0604
     62 H23        72.0518   59.8367   16.8137 H         1 K13         0.1873
     63 H24        74.8174   58.4840   20.1096 H         1 K13         0.0675
     64 H25        76.3136   59.5346   18.4502 H         1 K13         0.0590
     65 H26        76.7078   59.5944   20.2017 H         1 K13         0.0590
     66 H27        75.4627   62.3902   21.1393 H         1 K13         0.0913
     67 H28        72.6506   61.5082   18.6388 H         1 K13         0.0561
     68 H29        71.8461   62.4944   19.9065 H         1 K13         0.0561
     69 H30        72.4908   59.8310   20.4201 H         1 K13         0.0293
     70 H31        72.6497   61.0571   21.7232 H         1 K13         0.0293
     71 H32        74.6569   60.2494   21.7753 H         1 K13         0.0380
     72 H33        68.9117   57.9567   16.5462 H         1 K13         0.0449
     73 H34        69.6945   59.5283   16.1667 H         1 K13         0.0449
     74 H35        69.0282   57.0522   19.1001 H         1 K13         0.0557
     75 H36        68.6368   57.8333   21.5634 H         1 K13         0.0599
     76 H37        68.8351   60.3644   22.1755 H         1 K13         0.0559
     77 H38        69.4403   62.1111   20.3313 H         1 K13         0.0599
     78 H39        69.8383   61.3282   17.8702 H         1 K13         0.0557
@<TRIPOS>BOND
     1    2    1 1  
     2    3    2 ar 
     3    7    2 ar 
     4    4    3 ar 
     5    5    4 ar 
     6    5    6 ar 
     7    8    5 1  
     8    6    7 ar 
     9    8    9 2  
    10    8   10 2  
    11   11    8 am 
    12   11   12 1  
    13   16   11 1  
    14   12   13 1  
    15   13   14 1  
    16   13   15 1  
    17   15   18 1  
    18   17   16 1  
    19   17   19 1  
    20   20   17 1  
    21   20   21 1  
    22   33   20 1  
    23   21   22 am 
    24   22   23 2  
    25   22   24 1  
    26   24   25 1  
    27   25   26 1  
    28   25   32 1  
    29   26   27 1  
    30   28   27 1  
    31   28   29 1  
    32   32   28 1  
    33   30   29 1  
    34   31   30 1  
    35   32   31 1  
    36   39   33 1  
    37   34   35 ar 
    38   34   39 ar 
    39   35   36 ar 
    40   36   37 ar 
    41   37   38 ar 
    42   38   39 ar 
    43    1   40 1  
    44    1   41 1  
    45    3   42 1  
    46    4   43 1  
    47    6   44 1  
    48    7   45 1  
    49   12   46 1  
    50   12   47 1  
    51   13   48 1  
    52   14   49 1  
    53   14   50 1  
    54   14   51 1  
    55   15   52 1  
    56   15   53 1  
    57   16   54 1  
    58   16   55 1  
    59   17   56 1  
    60   18   57 1  
    61   18   58 1  
    62   18   59 1  
    63   19   60 1  
    64   20   61 1  
    65   21   62 1  
    66   25   63 1  
    67   26   64 1  
    68   26   65 1  
    69   28   66 1  
    70   30   67 1  
    71   30   68 1  
    72   31   69 1  
    73   31   70 1  
    74   32   71 1  
    75   33   72 1  
    76   33   73 1  
    77   34   74 1  
    78   35   75 1  
    79   36   76 1  
    80   37   77 1  
    81   38   78 1  
@<TRIPOS>SUBSTRUCTURE
     1 K13         1

