### 
### Created by X-TOOL on Wed Jan  1 15:39:36 2020
### 

@<TRIPOS>MOLECULE
6dh5_ligand
   94    97     1     0     0
SMALL
GAST_HUCK


@<TRIPOS>ATOM
      1 N1         65.4120   51.6760   12.7160 N.4       1 A60         0.2207
      2 C2         66.3660   52.3300   13.5790 C.3       1 A60        -0.0243
      3 C3         66.1450   53.8080   13.9900 C.3       1 A60        -0.0080
      4 C4         67.1490   54.5130   14.8990 C.3       1 A60        -0.0239
      5 C5         68.3790   53.7480   15.4150 C.3       1 A60         0.0960
      6 C6         68.6090   52.2810   15.0070 C.3       1 A60        -0.0239
      7 C7         67.5940   51.5710   14.0860 C.3       1 A60        -0.0080
      8 S8         69.5930   54.6110   16.4990 S.o2      1 A60         0.0443
      9 O9         68.9990   55.7040   17.2620 O.2       1 A60        -0.1550
     10 O10        70.1060   53.7440   17.5470 O.2       1 A60        -0.1550
     11 N11        70.8320   55.1730   15.4550 N.am      1 A60        -0.2354
     12 C12        71.5170   54.1260   14.6850 C.3       1 A60         0.0322
     13 C13        73.0920   54.3700   14.6700 C.3       1 A60        -0.0244
     14 C14        73.6230   54.2760   16.1320 C.3       1 A60        -0.0516
     15 C15        73.7420   53.3350   13.7170 C.3       1 A60        -0.0516
     16 C16        70.5710   56.4890   14.7710 C.3       1 A60         0.0574
     17 C17        71.5220   57.5930   15.3510 C.3       1 A60         0.0949
     18 C18        73.7060   51.8870   14.3000 C.3       1 A60        -0.0650
     19 O18        71.4860   58.7070   14.5380 O.3       1 A60        -0.3879
     20 C19        71.1110   57.9780   16.7720 C.3       1 A60         0.0715
     21 C20        75.1330   54.5860   16.1960 C.3       1 A60        -0.0650
     22 N20        72.0860   58.9560   17.2920 N.am      1 A60        -0.2569
     23 C21        73.1900   58.5600   18.2170 C.2       1 A60         0.3201
     24 O22        73.2080   57.4960   18.7370 O.2       1 A60        -0.3775
     25 O23        74.2180   59.5300   18.4370 O.3       1 A60        -0.2578
     26 C24        74.9950   59.4470   19.7320 C.3       1 A60         0.1189
     27 C25        76.1740   59.8320   19.4850 C.3       1 A60         0.0815
     28 O26        76.0370   61.4680   19.4040 O.3       1 A60        -0.3480
     29 C27        75.1710   61.8070   20.3040 C.3       1 A60         0.1648
     30 O28        74.0090   62.7000   19.7080 O.3       1 A60        -0.3509
     31 C29        72.9570   61.9190   19.6100 C.3       1 A60         0.0512
     32 C30        73.1690   60.7280   20.6960 C.3       1 A60        -0.0191
     33 C31        74.4970   60.5060   20.7650 C.3       1 A60         0.0449
     34 C32        69.7660   58.6620   16.8250 C.3       1 A60        -0.0246
     35 C33        69.7500   60.6300   18.6450 C.3       1 A60        -0.0501
     36 C34        69.5440   61.1070   20.0990 C.3       1 A60        -0.0528
     37 C35        69.1380   60.0860   21.2000 C.3       1 A60        -0.0530
     38 C36        68.9430   58.6010   20.8430 C.3       1 A60        -0.0528
     39 C37        69.1480   58.1260   19.3880 C.3       1 A60        -0.0501
     40 C38        69.5530   59.1470   18.2870 C.3       1 A60        -0.0389
     41 H1         64.6734   52.3208   12.4821 H         1 A60         0.1997
     42 H2         65.0224   50.8766   13.1906 H         1 A60         0.1997
     43 H3         65.8738   51.3738   11.8725 H         1 A60         0.1997
     44 H4         65.7974   51.9981   14.4602 H         1 A60         0.0850
     45 H5         65.1715   53.8521   14.5001 H         1 A60         0.0320
     46 H6         66.0978   54.3915   13.0587 H         1 A60         0.0320
     47 H7         66.5923   54.8554   15.7838 H         1 A60         0.0286
     48 H8         67.5256   55.3841   14.3429 H         1 A60         0.0286
     49 H9         67.8128   53.4182   16.2985 H         1 A60         0.0554
     50 H10        68.6579   51.6960   15.9372 H         1 A60         0.0286
     51 H11        69.5829   52.2415   14.4973 H         1 A60         0.0286
     52 H12        68.1501   51.2357   13.1981 H         1 A60         0.0320
     53 H13        67.2217   50.6953   14.6378 H         1 A60         0.0320
     54 H14        71.1413   54.1350   13.6512 H         1 A60         0.0481
     55 H15        71.3084   53.1476   15.1425 H         1 A60         0.0481
     56 H16        73.3027   55.3790   14.2860 H         1 A60         0.0316
     57 H17        73.4488   53.2588   16.5127 H         1 A60         0.0266
     58 H18        73.0809   54.9998   16.7583 H         1 A60         0.0266
     59 H19        74.7902   53.6213   13.5460 H         1 A60         0.0266
     60 H20        73.1985   53.3447   12.7607 H         1 A60         0.0266
     61 H21        69.5248   56.7851   14.9379 H         1 A60         0.0504
     62 H22        70.7539   56.3811   13.6917 H         1 A60         0.0504
     63 H23        72.5488   57.1992   15.3745 H         1 A60         0.0632
     64 H24        74.1776   51.1934   13.5883 H         1 A60         0.0230
     65 H25        72.6617   51.5854   14.4685 H         1 A60         0.0230
     66 H26        74.2534   51.8620   15.2538 H         1 A60         0.0230
     67 H27        71.7728   58.4693   13.6641 H         1 A60         0.2099
     68 H28        71.0940   57.0762   17.4016 H         1 A60         0.0581
     69 H29        75.4786   54.5121   17.2377 H         1 A60         0.0230
     70 H30        75.3146   55.6040   15.8208 H         1 A60         0.0230
     71 H31        75.6824   53.8629   15.5753 H         1 A60         0.0230
     72 H32        72.0051   59.9139   17.0165 H         1 A60         0.1871
     73 H33        74.9603   58.4280   20.1448 H         1 A60         0.0675
     74 H34        76.5297   59.4199   18.5292 H         1 A60         0.0590
     75 H35        76.8612   59.5348   20.2909 H         1 A60         0.0590
     76 H36        75.6674   62.3259   21.1372 H         1 A60         0.0913
     77 H37        72.8866   61.5007   18.5951 H         1 A60         0.0561
     78 H38        72.0410   62.4837   19.8382 H         1 A60         0.0561
     79 H39        72.6478   59.8167   20.3675 H         1 A60         0.0293
     80 H40        72.7836   61.0367   21.6789 H         1 A60         0.0293
     81 H41        74.7868   60.2237   21.7879 H         1 A60         0.0380
     82 H42        68.9722   57.9545   16.5434 H         1 A60         0.0291
     83 H43        69.7527   59.5206   16.1376 H         1 A60         0.0291
     84 H44        70.7829   60.8887   18.3692 H         1 A60         0.0268
     85 H45        69.0491   61.2032   18.0204 H         1 A60         0.0268
     86 H46        68.7579   61.8760   20.0731 H         1 A60         0.0265
     87 H47        70.4919   61.5623   20.4216 H         1 A60         0.0265
     88 H48        68.1855   60.4379   21.6229 H         1 A60         0.0265
     89 H49        69.9195   60.1261   21.9731 H         1 A60         0.0265
     90 H50        67.9110   58.3400   21.1203 H         1 A60         0.0265
     91 H51        69.6460   58.0290   21.4663 H         1 A60         0.0265
     92 H52        68.1998   57.6709   19.0658 H         1 A60         0.0268
     93 H53        69.9341   57.3570   19.4127 H         1 A60         0.0268
     94 H54        68.4916   59.3390   18.0712 H         1 A60         0.0301
@<TRIPOS>BOND
     1    2    1 1  
     2    3    2 1  
     3    7    2 1  
     4    4    3 1  
     5    5    4 1  
     6    5    6 1  
     7    8    5 1  
     8    6    7 1  
     9    8    9 2  
    10    8   10 2  
    11   11    8 am 
    12   11   12 1  
    13   16   11 1  
    14   12   13 1  
    15   13   14 1  
    16   13   15 1  
    17   14   21 1  
    18   15   18 1  
    19   17   16 1  
    20   17   19 1  
    21   20   17 1  
    22   20   22 1  
    23   34   20 1  
    24   22   23 am 
    25   23   24 2  
    26   23   25 1  
    27   25   26 1  
    28   26   27 1  
    29   26   33 1  
    30   27   28 1  
    31   29   28 1  
    32   29   30 1  
    33   33   29 1  
    34   31   30 1  
    35   32   31 1  
    36   33   32 1  
    37   40   34 1  
    38   35   36 1  
    39   35   40 1  
    40   36   37 1  
    41   37   38 1  
    42   38   39 1  
    43   39   40 1  
    44    1   41 1  
    45    1   42 1  
    46    1   43 1  
    47    2   44 1  
    48    3   45 1  
    49    3   46 1  
    50    4   47 1  
    51    4   48 1  
    52    5   49 1  
    53    6   50 1  
    54    6   51 1  
    55    7   52 1  
    56    7   53 1  
    57   12   54 1  
    58   12   55 1  
    59   13   56 1  
    60   14   57 1  
    61   14   58 1  
    62   15   59 1  
    63   15   60 1  
    64   16   61 1  
    65   16   62 1  
    66   17   63 1  
    67   18   64 1  
    68   18   65 1  
    69   18   66 1  
    70   19   67 1  
    71   20   68 1  
    72   21   69 1  
    73   21   70 1  
    74   21   71 1  
    75   22   72 1  
    76   26   73 1  
    77   27   74 1  
    78   27   75 1  
    79   29   76 1  
    80   31   77 1  
    81   31   78 1  
    82   32   79 1  
    83   32   80 1  
    84   33   81 1  
    85   34   82 1  
    86   34   83 1  
    87   35   84 1  
    88   35   85 1  
    89   36   86 1  
    90   36   87 1  
    91   37   88 1  
    92   37   89 1  
    93   38   90 1  
    94   38   91 1  
    95   39   92 1  
    96   39   93 1  
    97   40   94 1  
@<TRIPOS>SUBSTRUCTURE
     1 A60         1

