### 
### Created by X-TOOL on Wed Jan  1 15:39:35 2020
### 

@<TRIPOS>MOLECULE
6dh6_ligand
   75    78     1     0     0
SMALL
GAST_HUCK


@<TRIPOS>ATOM
      1 N1         65.4310   51.8590   12.5960 N.pl3     1 017        -0.3369
      2 C2         66.3830   52.5490   13.5180 C.ar      1 017         0.0353
      3 C3         67.4560   51.8520   14.0380 C.ar      1 017        -0.0429
      4 C4         68.3360   52.4820   14.8860 C.ar      1 017        -0.0471
      5 C5         68.1280   53.8210   15.2210 C.ar      1 017         0.0949
      6 C6         67.0740   54.5150   14.7060 C.ar      1 017        -0.0471
      7 C7         66.1830   53.8770   13.8480 C.ar      1 017        -0.0429
      8 S8         69.2900   54.6940   16.3360 S.o2      1 017         0.0648
      9 O9         69.7860   53.8810   17.4250 O.2       1 017        -0.1518
     10 O10        68.5870   55.8150   17.0120 O.2       1 017        -0.1518
     11 N11        70.5730   55.2720   15.3360 N.am      1 017        -0.2327
     12 C12        71.3580   54.2490   14.6140 C.3       1 017         0.0319
     13 C13        72.8450   54.6130   14.5740 C.3       1 017        -0.0296
     14 C14        73.4440   54.6890   16.0200 C.3       1 017        -0.0612
     15 C15        73.6110   53.6150   13.6720 C.3       1 017        -0.0612
     16 C16        70.2770   56.6030   14.6190 C.3       1 017         0.0578
     17 C17        71.2230   57.7160   15.1630 C.3       1 017         0.0967
     18 O18        71.1190   58.8110   14.3310 O.3       1 017        -0.3877
     19 C19        70.8590   58.0780   16.6180 C.3       1 017         0.0807
     20 N20        71.8240   59.0390   17.0860 N.am      1 017        -0.2550
     21 C21        72.8470   58.6940   18.0730 C.2       1 017         0.3203
     22 O22        72.8580   57.6390   18.6340 O.2       1 017        -0.3775
     23 O23        73.7860   59.6950   18.3150 O.3       1 017        -0.2578
     24 C24        74.5000   59.6650   19.5340 C.3       1 017         0.1189
     25 C25        75.9810   60.3180   19.1940 C.3       1 017         0.0815
     26 O26        75.7190   61.6200   19.0360 O.3       1 017        -0.3480
     27 C27        74.6180   61.9190   20.1170 C.3       1 017         0.1648
     28 O28        73.6960   62.6260   19.6410 O.3       1 017        -0.3509
     29 C29        72.3200   61.7490   19.6610 C.3       1 017         0.0512
     30 C30        72.5240   60.7130   20.4460 C.3       1 017        -0.0191
     31 C31        74.0070   60.4950   20.4730 C.3       1 017         0.0449
     32 C32        69.4990   58.7570   16.7390 C.3       1 017         0.0064
     33 C33        68.9230   58.3910   19.1650 C.ar      1 017        -0.0603
     34 C34        68.6880   58.8560   20.4710 C.ar      1 017        -0.0686
     35 C35        68.7700   60.2320   20.7560 C.ar      1 017        -0.0687
     36 C36        69.0860   61.1210   19.7520 C.ar      1 017        -0.0686
     37 C37        69.3250   60.6590   18.4490 C.ar      1 017        -0.0603
     38 C38        69.2400   59.2740   18.1600 C.ar      1 017        -0.0408
     39 H1         65.5786   50.8699   12.3492 H         1 017         0.1719
     40 H2         64.6272   52.3724   12.2072 H         1 017         0.1719
     41 H3         67.6041   50.8101   13.7780 H         1 017         0.0515
     42 H4         69.1847   51.9430   15.2913 H         1 017         0.0602
     43 H5         66.9305   55.5582   14.9633 H         1 017         0.0602
     44 H6         65.3367   54.4182   13.4406 H         1 017         0.0515
     45 H7         70.9810   54.1694   13.5837 H         1 017         0.0480
     46 H8         71.2398   53.2813   15.1235 H         1 017         0.0480
     47 H9         72.9385   55.6120   14.1233 H         1 017         0.0311
     48 H10        74.5106   54.9515   15.9617 H         1 017         0.0233
     49 H11        73.3332   53.7127   16.5146 H         1 017         0.0233
     50 H12        72.9087   55.4561   16.5988 H         1 017         0.0233
     51 H13        73.1532   53.5988   12.6719 H         1 017         0.0233
     52 H14        73.5619   52.6090   14.1141 H         1 017         0.0233
     53 H15        74.6622   53.9281   13.5889 H         1 017         0.0233
     54 H16        69.2312   56.8913   14.8008 H         1 017         0.0504
     55 H17        70.4409   56.4802   13.5382 H         1 017         0.0504
     56 H18        72.2598   57.3491   15.1440 H         1 017         0.0634
     57 H19        71.3760   58.5638   13.4505 H         1 017         0.2100
     58 H20        70.8784   57.1693   17.2376 H         1 017         0.0604
     59 H21        71.7938   59.9711   16.7250 H         1 017         0.1873
     60 H22        74.5676   58.6355   19.9156 H         1 017         0.0675
     61 H23        76.3989   59.8864   18.2726 H         1 017         0.0590
     62 H24        76.6824   60.1562   20.0257 H         1 017         0.0590
     63 H25        75.0557   62.4056   21.0011 H         1 017         0.0913
     64 H26        72.0771   61.4077   18.6439 H         1 017         0.0561
     65 H27        71.4915   62.3585   20.0509 H         1 017         0.0561
     66 H28        72.0151   59.8242   20.0446 H         1 017         0.0293
     67 H29        72.1509   60.9229   21.4593 H         1 017         0.0293
     68 H30        74.3145   60.1498   21.4711 H         1 017         0.0380
     69 H31        68.7150   58.0314   16.4766 H         1 017         0.0449
     70 H32        69.4621   59.6056   16.0400 H         1 017         0.0449
     71 H33        68.8539   57.3309   18.9495 H         1 017         0.0557
     72 H34        68.4433   58.1537   21.2596 H         1 017         0.0599
     73 H35        68.5852   60.5910   21.7620 H         1 017         0.0559
     74 H36        69.1502   62.1810   19.9695 H         1 017         0.0599
     75 H37        69.5749   61.3619   17.6625 H         1 017         0.0557
@<TRIPOS>BOND
     1    2    1 1  
     2    3    2 ar 
     3    7    2 ar 
     4    4    3 ar 
     5    5    4 ar 
     6    5    6 ar 
     7    8    5 1  
     8    6    7 ar 
     9    8    9 2  
    10    8   10 2  
    11   11    8 am 
    12   11   12 1  
    13   16   11 1  
    14   12   13 1  
    15   13   14 1  
    16   13   15 1  
    17   17   16 1  
    18   17   18 1  
    19   19   17 1  
    20   19   20 1  
    21   32   19 1  
    22   20   21 am 
    23   21   22 2  
    24   21   23 1  
    25   23   24 1  
    26   24   25 1  
    27   24   31 1  
    28   25   26 1  
    29   27   26 1  
    30   27   28 1  
    31   31   27 1  
    32   29   28 1  
    33   30   29 1  
    34   31   30 1  
    35   38   32 1  
    36   33   34 ar 
    37   33   38 ar 
    38   34   35 ar 
    39   35   36 ar 
    40   36   37 ar 
    41   37   38 ar 
    42    1   39 1  
    43    1   40 1  
    44    3   41 1  
    45    4   42 1  
    46    6   43 1  
    47    7   44 1  
    48   12   45 1  
    49   12   46 1  
    50   13   47 1  
    51   14   48 1  
    52   14   49 1  
    53   14   50 1  
    54   15   51 1  
    55   15   52 1  
    56   15   53 1  
    57   16   54 1  
    58   16   55 1  
    59   17   56 1  
    60   18   57 1  
    61   19   58 1  
    62   20   59 1  
    63   24   60 1  
    64   25   61 1  
    65   25   62 1  
    66   27   63 1  
    67   29   64 1  
    68   29   65 1  
    69   30   66 1  
    70   30   67 1  
    71   31   68 1  
    72   32   69 1  
    73   32   70 1  
    74   33   71 1  
    75   34   72 1  
    76   35   73 1  
    77   36   74 1  
    78   37   75 1  
@<TRIPOS>SUBSTRUCTURE
     1 017         1

