### 
### Created by X-TOOL on Wed Jan  1 15:39:35 2020
### 

@<TRIPOS>MOLECULE
6dh7_ligand
   78    81     1     0     0
SMALL
GAST_HUCK


@<TRIPOS>ATOM
      1 N1         65.3440   51.7160   12.5970 N.pl3     1 K13        -0.3369
      2 C2         66.2580   52.3610   13.5010 C.ar      1 K13         0.0353
      3 C3         67.4380   51.6010   14.0740 C.ar      1 K13        -0.0429
      4 C4         68.3720   52.3060   15.0180 C.ar      1 K13        -0.0471
      5 C5         68.0990   53.7500   15.3930 C.ar      1 K13         0.0949
      6 C6         66.9360   54.5060   14.8300 C.ar      1 K13        -0.0471
      7 C7         66.0070   53.7890   13.8810 C.ar      1 K13        -0.0429
      8 S8         69.1940   54.6330   16.4810 S.o2      1 K13         0.0648
      9 O9         68.4880   55.7780   17.1050 O.2       1 K13        -0.1518
     10 O10        69.6690   53.7710   17.5560 O.2       1 K13        -0.1518
     11 N11        70.4810   55.1920   15.5390 N.am      1 K13        -0.2327
     12 C12        71.2180   54.1330   14.8870 C.3       1 K13         0.0321
     13 C13        72.6770   54.5250   14.6640 C.3       1 K13        -0.0270
     14 C14        73.4310   54.4840   15.9940 C.3       1 K13        -0.0610
     15 C15        73.3210   53.5750   13.6520 C.3       1 K13        -0.0518
     16 C16        70.2040   56.4190   14.8070 C.3       1 K13         0.0578
     17 C17        71.1350   57.5280   15.2850 C.3       1 K13         0.0967
     18 C18        73.4380   52.1580   14.2090 C.3       1 K13        -0.0650
     19 O18        71.0320   58.6020   14.3960 O.3       1 K13        -0.3877
     20 C19        70.7600   57.9480   16.7000 C.3       1 K13         0.0807
     21 N20        71.7580   58.8810   17.1340 N.am      1 K13        -0.2550
     22 C21        72.7420   58.5280   18.1080 C.2       1 K13         0.3203
     23 O22        72.7150   57.4680   18.6740 O.2       1 K13        -0.3775
     24 O23        73.7060   59.5270   18.3020 O.3       1 K13        -0.2578
     25 C24        74.5940   59.4720   19.5000 C.3       1 K13         0.1189
     26 C25        75.7460   59.9560   19.1830 C.3       1 K13         0.0815
     27 O26        75.5840   61.5690   19.2930 O.3       1 K13        -0.3480
     28 C27        74.7120   61.7780   20.2260 C.3       1 K13         0.1648
     29 O28        73.5370   62.6450   19.6920 O.3       1 K13        -0.3509
     30 C29        72.4770   61.8730   19.5910 C.3       1 K13         0.0512
     31 C30        72.7300   60.6210   20.5660 C.3       1 K13        -0.0191
     32 C31        74.0650   60.4260   20.5930 C.3       1 K13         0.0449
     33 C32        69.4400   58.7110   16.7280 C.3       1 K13         0.0064
     34 C33        68.8620   58.2490   19.2710 C.ar      1 K13        -0.0603
     35 C34        68.6500   58.7780   20.6790 C.ar      1 K13        -0.0686
     36 C35        68.7700   60.2700   20.9590 C.ar      1 K13        -0.0687
     37 C36        69.1150   61.2320   19.8360 C.ar      1 K13        -0.0686
     38 C37        69.3350   60.7030   18.4300 C.ar      1 K13        -0.0603
     39 C38        69.2210   59.2120   18.1490 C.ar      1 K13        -0.0408
     40 H1         65.4973   50.7352   12.3224 H         1 K13         0.1719
     41 H2         64.5361   52.2349   12.2242 H         1 K13         0.1719
     42 H3         67.6060   50.5639   13.8069 H         1 K13         0.0515
     43 H4         69.2318   51.7875   15.4265 H         1 K13         0.0602
     44 H5         66.7654   55.5426   15.0973 H         1 K13         0.0602
     45 H6         65.1505   54.3115   13.4705 H         1 K13         0.0515
     46 H7         70.7521   53.9194   13.9137 H         1 K13         0.0480
     47 H8         71.1818   53.2317   15.5165 H         1 K13         0.0480
     48 H9         72.7159   55.5491   14.2644 H         1 K13         0.0314
     49 H10        74.4811   54.7669   15.8290 H         1 K13         0.0233
     50 H11        73.3864   53.4665   16.4096 H         1 K13         0.0233
     51 H12        72.9679   55.1891   16.6999 H         1 K13         0.0233
     52 H13        74.3266   53.9455   13.4039 H         1 K13         0.0266
     53 H14        72.7041   53.5511   12.7416 H         1 K13         0.0266
     54 H15        69.1600   56.7193   14.9796 H         1 K13         0.0504
     55 H16        70.3632   56.2468   13.7323 H         1 K13         0.0504
     56 H17        72.1714   57.1593   15.2871 H         1 K13         0.0634
     57 H18        73.9040   51.5054   13.4560 H         1 K13         0.0230
     58 H19        72.4359   51.7767   14.4549 H         1 K13         0.0230
     59 H20        74.0584   52.1711   15.1172 H         1 K13         0.0230
     60 H21        71.2846   58.3167   13.5258 H         1 K13         0.2100
     61 H22        70.7130   57.0696   17.3605 H         1 K13         0.0604
     62 H23        71.7657   59.8023   16.7452 H         1 K13         0.1873
     63 H24        74.6756   58.4404   19.8729 H         1 K13         0.0675
     64 H25        76.0158   59.6658   18.1569 H         1 K13         0.0590
     65 H26        76.5182   59.5988   19.8802 H         1 K13         0.0590
     66 H27        75.1883   62.2495   21.0982 H         1 K13         0.0913
     67 H28        72.3554   61.5282   18.5535 H         1 K13         0.0561
     68 H29        71.5761   62.4217   19.9030 H         1 K13         0.0561
     69 H30        72.2222   59.7263   20.1767 H         1 K13         0.0293
     70 H31        72.3571   60.8437   21.5766 H         1 K13         0.0293
     71 H32        74.3714   60.0766   21.5900 H         1 K13         0.0380
     72 H33        68.6159   58.0436   16.4356 H         1 K13         0.0449
     73 H34        69.4857   59.5631   16.0339 H         1 K13         0.0449
     74 H35        68.7579   57.1896   19.0663 H         1 K13         0.0557
     75 H36        68.4131   58.0930   21.4850 H         1 K13         0.0599
     76 H37        68.6087   60.6463   21.9627 H         1 K13         0.0559
     77 H38        69.2040   62.2934   20.0376 H         1 K13         0.0599
     78 H39        69.5737   61.3887   17.6250 H         1 K13         0.0557
@<TRIPOS>BOND
     1    2    1 1  
     2    3    2 ar 
     3    7    2 ar 
     4    4    3 ar 
     5    5    4 ar 
     6    5    6 ar 
     7    8    5 1  
     8    6    7 ar 
     9    8    9 2  
    10    8   10 2  
    11   11    8 am 
    12   11   12 1  
    13   16   11 1  
    14   12   13 1  
    15   13   14 1  
    16   13   15 1  
    17   15   18 1  
    18   17   16 1  
    19   17   19 1  
    20   20   17 1  
    21   20   21 1  
    22   33   20 1  
    23   21   22 am 
    24   22   23 2  
    25   22   24 1  
    26   24   25 1  
    27   25   26 1  
    28   25   32 1  
    29   26   27 1  
    30   28   27 1  
    31   28   29 1  
    32   32   28 1  
    33   30   29 1  
    34   31   30 1  
    35   32   31 1  
    36   39   33 1  
    37   34   35 ar 
    38   34   39 ar 
    39   35   36 ar 
    40   36   37 ar 
    41   37   38 ar 
    42   38   39 ar 
    43    1   40 1  
    44    1   41 1  
    45    3   42 1  
    46    4   43 1  
    47    6   44 1  
    48    7   45 1  
    49   12   46 1  
    50   12   47 1  
    51   13   48 1  
    52   14   49 1  
    53   14   50 1  
    54   14   51 1  
    55   15   52 1  
    56   15   53 1  
    57   16   54 1  
    58   16   55 1  
    59   17   56 1  
    60   18   57 1  
    61   18   58 1  
    62   18   59 1  
    63   19   60 1  
    64   20   61 1  
    65   21   62 1  
    66   25   63 1  
    67   26   64 1  
    68   26   65 1  
    69   28   66 1  
    70   30   67 1  
    71   30   68 1  
    72   31   69 1  
    73   31   70 1  
    74   32   71 1  
    75   33   72 1  
    76   33   73 1  
    77   34   74 1  
    78   35   75 1  
    79   36   76 1  
    80   37   77 1  
    81   38   78 1  
@<TRIPOS>SUBSTRUCTURE
     1 K13         1

