### 
### Created by X-TOOL on Wed Jan  1 15:39:35 2020
### 

@<TRIPOS>MOLECULE
6dh8_ligand
   87    90     1     0     0
SMALL
GAST_HUCK


@<TRIPOS>ATOM
      1 N1         66.0040  107.8010   13.1210 N.pl3     1 A60        -0.3369
      2 C2         66.8780  108.5350   13.9950 C.ar      1 A60         0.0353
      3 C3         66.6470  110.0530   14.2160 C.ar      1 A60        -0.0429
      4 C4         67.5730  110.8280   15.1420 C.ar      1 A60        -0.0471
      5 C5         68.7160  110.0960   15.8570 C.ar      1 A60         0.0949
      6 C6         68.9520  108.5940   15.6410 C.ar      1 A60        -0.0471
      7 C7         68.0180  107.8130   14.7050 C.ar      1 A60        -0.0429
      8 S8         69.8400  111.0420   16.9540 S.o2      1 A60         0.0648
      9 O9         69.2200  112.2580   17.4650 O.2       1 A60        -0.1518
     10 O10        70.2390  110.2730   18.1200 O.2       1 A60        -0.1518
     11 N11        71.2060  111.3730   15.9810 N.am      1 A60        -0.2327
     12 C12        71.9300  110.1840   15.5240 C.3       1 A60         0.0324
     13 C13        73.5060  110.4330   15.5280 C.3       1 A60        -0.0244
     14 C14        74.2240  109.1200   15.0820 C.3       1 A60        -0.0516
     15 C15        73.9620  110.7990   16.9590 C.3       1 A60        -0.0516
     16 C16        71.0600  112.5160   15.0230 C.3       1 A60         0.0576
     17 C17        72.0190  113.6820   15.4420 C.3       1 A60         0.0949
     18 C18        75.4340  111.3140   16.9340 C.3       1 A60        -0.0650
     19 O18        71.9610  114.6910   14.5030 O.3       1 A60        -0.3879
     20 C19        71.6010  114.2250   16.8080 C.3       1 A60         0.0715
     21 C20        74.0460  108.9020   13.5650 C.3       1 A60        -0.0650
     22 N20        72.6280  115.1840   17.2480 N.am      1 A60        -0.2569
     23 C21        73.6600  114.8170   18.2700 C.2       1 A60         0.3201
     24 O22        73.5830  113.8370   18.9320 O.2       1 A60        -0.3775
     25 O23        74.7460  115.7300   18.3980 O.3       1 A60        -0.2578
     26 C24        75.5990  115.6420   19.6400 C.3       1 A60         0.1189
     27 C25        76.7780  115.9860   19.3250 C.3       1 A60         0.0815
     28 O26        76.6810  117.6160   19.1920 O.3       1 A60        -0.3480
     29 C27        75.8690  117.9970   20.1240 C.3       1 A60         0.1648
     30 O28        74.7120  118.9100   19.5560 O.3       1 A60        -0.3509
     31 C29        73.6290  118.1690   19.5080 C.3       1 A60         0.0512
     32 C30        73.8380  117.0070   20.6300 C.3       1 A60        -0.0191
     33 C31        75.1640  116.7410   20.6580 C.3       1 A60         0.0449
     34 C32        70.3010  114.9920   16.7440 C.3       1 A60        -0.0246
     35 C33        69.7240  114.7420   19.3380 C.3       1 A60        -0.0501
     36 C34        69.4820  115.3750   20.7250 C.3       1 A60        -0.0528
     37 C35        69.5750  116.9140   20.9070 C.3       1 A60        -0.0530
     38 C36        69.9100  117.8080   19.7050 C.3       1 A60        -0.0528
     39 C37        70.1500  117.1770   18.3200 C.3       1 A60        -0.0501
     40 C38        70.0530  115.6380   18.1360 C.3       1 A60        -0.0389
     41 H1         65.2326  108.2845   12.6393 H         1 A60         0.1719
     42 H2         66.1492  106.7916   12.9765 H         1 A60         0.1719
     43 H3         65.8305  110.5589   13.7136 H         1 A60         0.0515
     44 H4         67.4259  111.8909   15.2955 H         1 A60         0.0602
     45 H5         69.7695  108.0902   16.1440 H         1 A60         0.0602
     46 H6         68.1688  106.7509   14.5494 H         1 A60         0.0515
     47 H7         71.6079  109.9385   14.5013 H         1 A60         0.0481
     48 H8         71.6977  109.3427   16.1935 H         1 A60         0.0481
     49 H9         73.7571  111.2507   14.8364 H         1 A60         0.0316
     50 H10        73.7906  108.2669   15.6246 H         1 A60         0.0266
     51 H11        75.2965  109.1958   15.3144 H         1 A60         0.0266
     52 H12        73.8987  109.9078   17.6007 H         1 A60         0.0266
     53 H13        73.3072  111.5868   17.3598 H         1 A60         0.0266
     54 H14        70.0202  112.8747   15.0375 H         1 A60         0.0504
     55 H15        71.3172  112.1778   14.0084 H         1 A60         0.0504
     56 H16        73.0492  113.3011   15.5024 H         1 A60         0.0632
     57 H17        75.7496  111.5718   17.9557 H         1 A60         0.0230
     58 H18        75.4995  112.2062   16.2939 H         1 A60         0.0230
     59 H19        76.0910  110.5272   16.5348 H         1 A60         0.0230
     60 H20        71.0712  115.0189   14.4467 H         1 A60         0.2099
     61 H21        71.5107  113.3943   17.5234 H         1 A60         0.0581
     62 H22        74.5563  107.9747   13.2655 H         1 A60         0.0230
     63 H23        74.4804  109.7523   13.0189 H         1 A60         0.0230
     64 H24        72.9745  108.8235   13.3291 H         1 A60         0.0230
     65 H25        72.6368  116.1034   16.8547 H         1 A60         0.1871
     66 H26        75.5585  114.6341   20.0786 H         1 A60         0.0675
     67 H27        77.0778  115.5312   18.3694 H         1 A60         0.0590
     68 H28        77.4939  115.6978   20.1089 H         1 A60         0.0590
     69 H29        76.4209  118.5198   20.9190 H         1 A60         0.0913
     70 H30        73.5146  117.7216   18.5096 H         1 A60         0.0561
     71 H31        72.7404  118.7733   19.7430 H         1 A60         0.0561
     72 H32        73.2741  116.1041   20.3530 H         1 A60         0.0293
     73 H33        73.5000  117.3628   21.6145 H         1 A60         0.0293
     74 H34        75.4806  116.4815   21.6790 H         1 A60         0.0380
     75 H35        69.4758  114.3075   16.4982 H         1 A60         0.0291
     76 H36        70.3681  115.7762   15.9756 H         1 A60         0.0291
     77 H37        68.8118  114.1845   19.0791 H         1 A60         0.0268
     78 H38        70.5633  114.0399   19.4506 H         1 A60         0.0268
     79 H39        70.2193  114.9300   21.4093 H         1 A60         0.0265
     80 H40        68.4688  115.0800   21.0354 H         1 A60         0.0265
     81 H41        70.3496  117.0982   21.6659 H         1 A60         0.0265
     82 H42        68.5996  117.2485   21.2899 H         1 A60         0.0265
     83 H43        70.8248  118.3606   19.9652 H         1 A60         0.0265
     84 H44        69.0745  118.5145   19.5918 H         1 A60         0.0265
     85 H45        71.1640  117.4697   18.0100 H         1 A60         0.0268
     86 H46        69.4139  117.6247   17.6361 H         1 A60         0.0268
     87 H47        68.9815  115.7315   17.9054 H         1 A60         0.0301
@<TRIPOS>BOND
     1    2    1 1  
     2    3    2 ar 
     3    7    2 ar 
     4    4    3 ar 
     5    5    4 ar 
     6    5    6 ar 
     7    8    5 1  
     8    6    7 ar 
     9    8    9 2  
    10    8   10 2  
    11   11    8 am 
    12   11   12 1  
    13   16   11 1  
    14   12   13 1  
    15   13   14 1  
    16   13   15 1  
    17   14   21 1  
    18   15   18 1  
    19   17   16 1  
    20   17   19 1  
    21   20   17 1  
    22   20   22 1  
    23   34   20 1  
    24   22   23 am 
    25   23   24 2  
    26   23   25 1  
    27   25   26 1  
    28   26   27 1  
    29   26   33 1  
    30   27   28 1  
    31   29   28 1  
    32   29   30 1  
    33   33   29 1  
    34   31   30 1  
    35   32   31 1  
    36   33   32 1  
    37   40   34 1  
    38   35   36 1  
    39   35   40 1  
    40   36   37 1  
    41   37   38 1  
    42   38   39 1  
    43   39   40 1  
    44    1   41 1  
    45    1   42 1  
    46    3   43 1  
    47    4   44 1  
    48    6   45 1  
    49    7   46 1  
    50   12   47 1  
    51   12   48 1  
    52   13   49 1  
    53   14   50 1  
    54   14   51 1  
    55   15   52 1  
    56   15   53 1  
    57   16   54 1  
    58   16   55 1  
    59   17   56 1  
    60   18   57 1  
    61   18   58 1  
    62   18   59 1  
    63   19   60 1  
    64   20   61 1  
    65   21   62 1  
    66   21   63 1  
    67   21   64 1  
    68   22   65 1  
    69   26   66 1  
    70   27   67 1  
    71   27   68 1  
    72   29   69 1  
    73   31   70 1  
    74   31   71 1  
    75   32   72 1  
    76   32   73 1  
    77   33   74 1  
    78   34   75 1  
    79   34   76 1  
    80   35   77 1  
    81   35   78 1  
    82   36   79 1  
    83   36   80 1  
    84   37   81 1  
    85   37   82 1  
    86   38   83 1  
    87   38   84 1  
    88   39   85 1  
    89   39   86 1  
    90   40   87 1  
@<TRIPOS>SUBSTRUCTURE
     1 A60         1

