### 
### Created by X-TOOL on Mon Aug  2 16:11:59 2021
### 

@<TRIPOS>MOLECULE
6dha_ligand
   46    48     1     0     0
SMALL
GAST_HUCK


@<TRIPOS>ATOM
      1 C10        16.4540   61.7630   11.5390 C.3       1 GFV         0.0796
      2 C13        19.1770   61.5450   13.9450 C.ar      1 GFV        -0.0396
      3 C15        18.2460   61.7670   16.1340 C.ar      1 GFV        -0.0502
      4 C17        16.8010   61.8420   14.2190 C.ar      1 GFV        -0.0396
      5 C20        18.4620   63.3480   19.6720 C.2       1 GFV         0.2225
      6 C01        18.3370   68.2330    9.6440 C.3       1 GFV        -0.0286
      7 C02        18.5190   67.2550    8.4990 C.3       1 GFV         0.0891
      8 C03        18.0430   65.8190    8.8550 C.ar      1 GFV         0.0057
      9 C04        16.7270   65.6260    9.4440 C.ar      1 GFV         0.0063
     10 C06        17.0720   63.3250    9.5330 C.ar      1 GFV         0.0237
     11 C07        18.3670   63.4290    8.9650 C.ar      1 GFV        -0.0387
     12 C08        18.8540   64.7250    8.6190 C.ar      1 GFV        -0.0446
     13 C09        16.5240   61.9480    9.9100 C.3       1 GFV         0.0210
     14 C12        17.8950   61.6690   13.4010 C.ar      1 GFV         0.0843
     15 C14        19.3450   61.5920   15.3080 C.ar      1 GFV        -0.0686
     16 C16        16.9690   61.8930   15.5910 C.ar      1 GFV        -0.0686
     17 C18        18.4450   61.8280   17.6850 C.3       1 GFV         0.0077
     18 C19        18.5250   63.2690   18.1100 C.3       1 GFV         0.1282
     19 C23        20.5440   64.7090   19.0300 C.2       1 GFV         0.2695
     20 N05        16.3080   64.4120    9.7510 N.ar      1 GFV        -0.3057
     21 N22        19.7230   64.2470   20.2140 N.am      1 GFV        -0.1891
     22 O11        17.7340   61.6150   11.9670 O.3       1 GFV        -0.3202
     23 O21        17.6340   62.8420   20.3540 O.2       1 GFV        -0.3846
     24 O24        21.4030   65.4490   19.0570 O.2       1 GFV        -0.3731
     25 O26        17.7110   67.7160    7.4040 O.3       1 GFV        -0.3794
     26 S25        19.9390   63.9240   17.6530 S.3       1 GFV         0.0006
     27 H1         15.8626   60.8715   11.7949 H         1 GFV         0.0635
     28 H2         15.9988   62.6505   12.0028 H         1 GFV         0.0635
     29 H3         20.0341   61.4124   13.2948 H         1 GFV         0.0525
     30 H4         15.8106   61.9380   13.7889 H         1 GFV         0.0525
     31 H5         18.6894   69.2283    9.3356 H         1 GFV         0.0277
     32 H6         18.9177   67.8917   10.5136 H         1 GFV         0.0277
     33 H7         17.2719   68.2884    9.9132 H         1 GFV         0.0277
     34 H8         19.5796   67.2267    8.2086 H         1 GFV         0.0756
     35 H9         16.0883   66.4815    9.6315 H         1 GFV         0.0740
     36 H10        18.9724   62.5455    8.7976 H         1 GFV         0.0634
     37 H11        19.8378   64.8486    8.1810 H         1 GFV         0.0661
     38 H12        15.5123   61.8379    9.4925 H         1 GFV         0.0468
     39 H13        17.1809   61.1728    9.4887 H         1 GFV         0.0468
     40 H14        20.3357   61.4923   15.7365 H         1 GFV         0.0530
     41 H15        16.1119   62.0302   16.2403 H         1 GFV         0.0530
     42 H16        19.3762   61.3102   17.9584 H         1 GFV         0.0442
     43 H17        17.5946   61.3421   18.1858 H         1 GFV         0.0442
     44 H18        17.6901   63.8309   17.6660 H         1 GFV         0.0706
     45 H19        19.9176   64.4559   21.1724 H         1 GFV         0.2265
     46 H20        16.7980   67.7230    7.6666 H         1 GFV         0.2130
@<TRIPOS>BOND
     1    1   13 1  
     2   22    1 1  
     3    2   14 ar 
     4   15    2 ar 
     5    3   15 ar 
     6    3   16 ar 
     7   17    3 1  
     8    4   14 ar 
     9   16    4 ar 
    10   18    5 1  
    11    5   21 am 
    12    5   23 2  
    13    7    6 1  
    14    8    7 1  
    15    7   25 1  
    16    9    8 ar 
    17   12    8 ar 
    18   20    9 ar 
    19   10   11 ar 
    20   13   10 1  
    21   10   20 ar 
    22   11   12 ar 
    23   14   22 1  
    24   17   18 1  
    25   18   26 1  
    26   21   19 am 
    27   19   24 2  
    28   19   26 1  
    29    1   27 1  
    30    1   28 1  
    31    2   29 1  
    32    4   30 1  
    33    6   31 1  
    34    6   32 1  
    35    6   33 1  
    36    7   34 1  
    37    9   35 1  
    38   11   36 1  
    39   12   37 1  
    40   13   38 1  
    41   13   39 1  
    42   15   40 1  
    43   16   41 1  
    44   17   42 1  
    45   17   43 1  
    46   18   44 1  
    47   21   45 1  
    48   25   46 1  
@<TRIPOS>SUBSTRUCTURE
     1 GFV         1

