### 
### Created by X-TOOL on Wed Jan  1 15:39:35 2020
### 

@<TRIPOS>MOLECULE
6dhc_ligand
   96    97     1     0     0
SMALL
GAST_HUCK


@<TRIPOS>ATOM
      1 N41         1.8120  -15.1050   29.4830 N.4       1 GHJ         0.4095
      2 C01         0.0090  -15.1340   28.2300 C.3       1 GHJ         0.2116
      3 O02        -1.1310  -15.1940   29.2820 O.3       1 GHJ        -0.3463
      4 C03        -1.5790  -16.6410   29.2690 C.3       1 GHJ         0.0516
      5 C04        -0.8000  -17.2620   28.3580 C.3       1 GHJ        -0.0143
      6 C05         0.4740  -16.3400   28.2990 C.3       1 GHJ         0.0786
      7 C06         1.1240  -16.2860   29.4860 C.3       1 GHJ         0.1054
      8 C07         1.5820  -17.5400   30.2440 C.2       1 GHJ         0.2284
      9 O40         2.1630  -18.3350   29.6130 O.2       1 GHJ        -0.3907
     10 O42         1.1340  -14.3250   28.6420 O.3       1 GHJ        -0.2946
     11 N08         1.2860  -17.7230   31.6930 N.am      1 GHJ        -0.2602
     12 C09         1.7600  -18.9220   32.3540 C.3       1 GHJ         0.1398
     13 C10         3.2310  -18.9840   31.8760 C.3       1 GHJ         0.0338
     14 S11         4.5420  -19.7880   32.8590 S.3       1 GHJ        -0.1594
     15 C12         5.8260  -18.5490   33.1630 C.3       1 GHJ        -0.0179
     16 C13         1.5590  -18.8300   33.8990 C.2       1 GHJ         0.2028
     17 O39         2.5400  -18.8890   34.5330 O.2       1 GHJ        -0.3945
     18 C18        -1.6960  -15.6480   34.7510 C.3       1 GHJ        -0.0626
     19 C19        -2.7860  -15.7770   32.4930 C.3       1 GHJ        -0.0626
     20 C17        -1.6330  -16.3400   33.3550 C.3       1 GHJ        -0.0446
     21 C16        -1.6250  -17.9190   33.3450 C.3       1 GHJ        -0.0251
     22 N14         0.3370  -18.7190   34.8100 N.am      1 GHJ        -0.2795
     23 C15        -1.1480  -18.5890   34.6480 C.3       1 GHJ         0.0683
     24 C20        -1.9070  -19.8790   34.9500 C.3       1 GHJ         0.0804
     25 O21        -2.5190  -20.3920   33.8300 O.3       1 GHJ        -0.3894
     26 C22        -1.0020  -20.9810   35.5740 C.3       1 GHJ        -0.0052
     27 C23        -1.8410  -21.9130   36.4600 C.3       1 GHJ         0.0483
     28 C38        -1.2820  -23.3070   36.4420 C.3       1 GHJ        -0.0452
     29 C24        -1.8060  -21.4160   37.9190 C.2       1 GHJ         0.1811
     30 O37        -0.8210  -20.9330   38.3680 O.2       1 GHJ        -0.3966
     31 N25        -3.0070  -21.5380   38.7750 N.am      1 GHJ        -0.2652
     32 C26        -2.9460  -21.0910   40.1170 C.3       1 GHJ         0.1330
     33 C27        -2.2080  -22.1910   40.9110 C.2       1 GHJ         0.2019
     34 O33        -2.5600  -23.3020   40.7400 O.2       1 GHJ        -0.3945
     35 C34        -4.4180  -20.9260   40.5990 C.3       1 GHJ        -0.0063
     36 C35        -4.4950  -20.1980   41.9620 C.3       1 GHJ        -0.0584
     37 C36        -5.1540  -22.2640   40.6570 C.3       1 GHJ        -0.0584
     38 C32         1.8220  -19.5680   42.2960 C.3       1 GHJ        -0.0608
     39 C30         1.0180  -20.8920   42.0310 C.3       1 GHJ        -0.0265
     40 C31         1.5610  -22.0420   42.8950 C.3       1 GHJ        -0.0608
     41 C29        -0.4830  -20.7110   42.1930 C.3       1 GHJ         0.0333
     42 N28        -1.1000  -22.0120   41.8430 N.am      1 GHJ        -0.2848
     43 H1          2.7559  -15.2435   29.1577 H         1 GHJ         0.2380
     44 H2          1.8307  -14.7014   30.4065 H         1 GHJ         0.2380
     45 H3         -0.3591  -14.8447   27.2346 H         1 GHJ         0.0971
     46 H4         -2.6376  -16.7111   28.9783 H         1 GHJ         0.0561
     47 H5         -1.4407  -17.0932   30.2622 H         1 GHJ         0.0561
     48 H6         -1.2985  -17.3114   27.3787 H         1 GHJ         0.0295
     49 H7         -0.5382  -18.2782   28.6879 H         1 GHJ         0.0295
     50 H8          1.1377  -16.6153   27.4661 H         1 GHJ         0.0434
     51 H9          0.2912  -16.0229   30.1547 H         1 GHJ         0.1114
     52 H10         0.7703  -17.0318   32.1992 H         1 GHJ         0.1885
     53 H11         1.2141  -19.8062   31.9931 H         1 GHJ         0.0808
     54 H12         3.5510  -17.9414   31.7327 H         1 GHJ         0.0424
     55 H13         3.2163  -19.4998   30.9046 H         1 GHJ         0.0424
     56 H14         6.6365  -18.9987   33.7553 H         1 GHJ         0.0341
     57 H15         5.3944  -17.7017   33.7160 H         1 GHJ         0.0341
     58 H16         6.2275  -18.1937   32.2025 H         1 GHJ         0.0341
     59 H17        -1.6956  -14.5559   34.6192 H         1 GHJ         0.0232
     60 H18        -0.8211  -15.9456   35.3476 H         1 GHJ         0.0232
     61 H19        -2.6157  -15.9542   35.2709 H         1 GHJ         0.0232
     62 H20        -2.7655  -16.2492   31.4997 H         1 GHJ         0.0232
     63 H21        -2.6652  -14.6891   32.3843 H         1 GHJ         0.0232
     64 H22        -3.7478  -15.9922   32.9814 H         1 GHJ         0.0232
     65 H23        -0.6852  -16.0291   32.8913 H         1 GHJ         0.0296
     66 H24        -0.9618  -18.2493   32.5319 H         1 GHJ         0.0291
     67 H25        -2.6507  -18.2617   33.1438 H         1 GHJ         0.0291
     68 H26         0.5984  -18.7383   35.7750 H         1 GHJ         0.1855
     69 H27        -1.4479  -17.8902   35.4428 H         1 GHJ         0.0582
     70 H28        -2.6899  -19.6317   35.6820 H         1 GHJ         0.0618
     71 H29        -3.1374  -19.7565   33.4893 H         1 GHJ         0.2099
     72 H30        -0.2190  -20.5067   36.1839 H         1 GHJ         0.0318
     73 H31        -0.5350  -21.5673   34.7690 H         1 GHJ         0.0318
     74 H32        -2.8782  -21.9249   36.0939 H         1 GHJ         0.0536
     75 H33        -1.8969  -23.9569   37.0819 H         1 GHJ         0.0257
     76 H34        -0.2488  -23.2927   36.8192 H         1 GHJ         0.0257
     77 H35        -1.2910  -23.6924   35.4118 H         1 GHJ         0.0257
     78 H36        -3.8510  -21.9312   38.4102 H         1 GHJ         0.1883
     79 H37        -2.4082  -20.1348   40.1972 H         1 GHJ         0.0802
     80 H38        -4.9350  -20.2975   39.8590 H         1 GHJ         0.0343
     81 H39        -5.5474  -20.1013   42.2671 H         1 GHJ         0.0234
     82 H40        -4.0468  -19.1978   41.8693 H         1 GHJ         0.0234
     83 H41        -3.9457  -20.7773   42.7187 H         1 GHJ         0.0234
     84 H42        -5.0860  -22.7626   39.6788 H         1 GHJ         0.0234
     85 H43        -6.2110  -22.0905   40.9074 H         1 GHJ         0.0234
     86 H44        -4.6948  -22.9020   41.4264 H         1 GHJ         0.0234
     87 H45         2.8972  -19.7595   42.1647 H         1 GHJ         0.0233
     88 H46         1.6337  -19.2241   43.3237 H         1 GHJ         0.0233
     89 H47         1.4980  -18.7937   41.5851 H         1 GHJ         0.0233
     90 H48         1.1912  -21.1678   40.9803 H         1 GHJ         0.0315
     91 H49         0.9840  -22.9565   42.6929 H         1 GHJ         0.0233
     92 H50         1.4677  -21.7772   43.9586 H         1 GHJ         0.0233
     93 H51         2.6197  -22.2152   42.6517 H         1 GHJ         0.0233
     94 H52        -0.8466  -19.9231   41.5170 H         1 GHJ         0.0522
     95 H53        -0.7242  -20.4426   43.2321 H         1 GHJ         0.0522
     96 H54        -0.7279  -22.8311   42.2797 H         1 GHJ         0.1851
@<TRIPOS>BOND
     1    7    1 1  
     2    1   10 1  
     3    2    3 1  
     4    6    2 1  
     5    2   10 1  
     6    4    3 1  
     7    5    4 1  
     8    6    5 1  
     9    7    6 1  
    10    8    7 1  
    11    8    9 2  
    12   11    8 am 
    13   12   11 1  
    14   12   13 1  
    15   16   12 1  
    16   13   14 1  
    17   14   15 1  
    18   16   17 2  
    19   22   16 am 
    20   20   18 1  
    21   20   19 1  
    22   21   20 1  
    23   23   21 1  
    24   23   22 1  
    25   24   23 1  
    26   24   25 1  
    27   26   24 1  
    28   27   26 1  
    29   27   28 1  
    30   29   27 1  
    31   29   30 2  
    32   31   29 am 
    33   32   31 1  
    34   33   32 1  
    35   32   35 1  
    36   33   34 2  
    37   42   33 am 
    38   35   36 1  
    39   35   37 1  
    40   39   38 1  
    41   39   40 1  
    42   41   39 1  
    43   41   42 1  
    44    1   43 1  
    45    1   44 1  
    46    2   45 1  
    47    4   46 1  
    48    4   47 1  
    49    5   48 1  
    50    5   49 1  
    51    6   50 1  
    52    7   51 1  
    53   11   52 1  
    54   12   53 1  
    55   13   54 1  
    56   13   55 1  
    57   15   56 1  
    58   15   57 1  
    59   15   58 1  
    60   18   59 1  
    61   18   60 1  
    62   18   61 1  
    63   19   62 1  
    64   19   63 1  
    65   19   64 1  
    66   20   65 1  
    67   21   66 1  
    68   21   67 1  
    69   22   68 1  
    70   23   69 1  
    71   24   70 1  
    72   25   71 1  
    73   26   72 1  
    74   26   73 1  
    75   27   74 1  
    76   28   75 1  
    77   28   76 1  
    78   28   77 1  
    79   31   78 1  
    80   32   79 1  
    81   35   80 1  
    82   36   81 1  
    83   36   82 1  
    84   36   83 1  
    85   37   84 1  
    86   37   85 1  
    87   37   86 1  
    88   38   87 1  
    89   38   88 1  
    90   38   89 1  
    91   39   90 1  
    92   40   91 1  
    93   40   92 1  
    94   40   93 1  
    95   41   94 1  
    96   41   95 1  
    97   42   96 1  
@<TRIPOS>SUBSTRUCTURE
     1 GHJ         1

