### 
### Created by X-TOOL on Mon Aug  2 16:12:57 2021
### 

@<TRIPOS>MOLECULE
6dhu_ligand
   18    18     1     0     0
SMALL
GAST_HUCK


@<TRIPOS>ATOM
      1 C4          6.1150  -14.3190  -33.9540 C.ar      1 GHM        -0.0408
      2 C5          7.2050  -13.5800  -34.3930 C.ar      1 GHM         0.0265
      3 C6          7.0500  -12.0720  -34.6090 C.2       1 GHM         0.0668
      4 C7          8.4150  -14.2150  -34.6360 C.ar      1 GHM         0.0275
      5 C8          9.6360  -13.4300  -35.1200 C.2       1 GHM         0.0659
      6 C9          8.5290  -15.5790  -34.4480 C.ar      1 GHM        -0.0301
      7 C3          6.2300  -15.6880  -33.7620 C.ar      1 GHM        -0.0417
      8 C1          7.6010  -17.8110  -33.8080 C.2       1 GHM         0.0650
      9 C2          7.4420  -16.3110  -34.0120 C.ar      1 GHM         0.0161
     10 O1          8.5240  -18.4210  -34.4120 O.co2     1 GHM        -0.5600
     11 O2          6.8150  -18.4220  -33.0370 O.co2     1 GHM        -0.5600
     12 O3          6.3020  -11.6580  -35.5260 O.co2     1 GHM        -0.5593
     13 O4          7.6600  -11.2530  -33.8780 O.co2     1 GHM        -0.5593
     14 O5          9.5070  -12.5840  -36.0340 O.co2     1 GHM        -0.5599
     15 O6         10.7690  -13.6150  -34.6000 O.co2     1 GHM        -0.5599
     16 H1          5.1701  -13.8243  -33.7604 H         1 GHM         0.0664
     17 H2          9.4728  -16.0753  -34.6429 H         1 GHM         0.0692
     18 H3          5.3790  -16.2654  -33.4193 H         1 GHM         0.0677
@<TRIPOS>BOND
     1    1    2 ar 
     2    1    7 ar 
     3    2    3 1  
     4    2    4 ar 
     5    3   12 ar 
     6    3   13 ar 
     7    4    5 1  
     8    4    6 ar 
     9    5   14 ar 
    10    5   15 ar 
    11    6    9 ar 
    12    7    9 ar 
    13    9    8 1  
    14    8   10 ar 
    15    8   11 ar 
    16    1   16 1  
    17    6   17 1  
    18    7   18 1  
@<TRIPOS>SUBSTRUCTURE
     1 GHM         1

