### 
### Created by X-TOOL on Wed Jan  1 15:39:36 2020
### 

@<TRIPOS>MOLECULE
6di0_ligand
   33    34     1     0     0
SMALL
GAST_HUCK


@<TRIPOS>ATOM
      1 N3         20.8750    6.5690    1.9790 N.ar      1 GJG        -0.2781
      2 C4         21.4960    6.6850    0.7800 C.ar      1 GJG         0.1164
      3 C5         19.6940    5.9240    2.0720 C.ar      1 GJG         0.0165
      4 C8         19.7470    5.4800   -0.2940 C.ar      1 GJG        -0.0347
      5 C10        20.9510    6.1430   -0.3670 C.ar      1 GJG        -0.0107
      6 C13        23.9620    9.2450    1.4530 C.3       1 GJG        -0.0299
      7 C15        25.4990    7.3400    3.0920 C.3       1 GJG        -0.0510
      8 O7         17.5880    3.9230   -0.0050 O.2       1 GJG        -0.3879
      9 C2         17.8300    4.6440    0.9580 C.2       1 GJG         0.2005
     10 N9         17.0170    4.8240    1.9840 N.am      1 GJG        -0.3009
     11 C1         19.1200    5.3650    0.9300 C.ar      1 GJG         0.0629
     12 N6         22.6830    7.3200    0.6310 N.pl3     1 GJG        -0.3025
     13 C11        23.4340    7.8380    1.7480 C.3       1 GJG         0.0390
     14 C14        24.9620    9.7140    2.5070 C.3       1 GJG        -0.0510
     15 C16        26.0770    8.6990    2.7310 C.3       1 GJG        -0.0529
     16 C12        24.5790    6.8610    1.9830 C.3       1 GJG        -0.0299
     17 H1         19.1932    5.8404    3.0298 H         1 GJG         0.0838
     18 H2         19.2981    5.0547   -1.1843 H         1 GJG         0.0748
     19 H3         21.4664    6.2387   -1.3158 H         1 GJG         0.0621
     20 H4         23.1140    9.9452    1.4319 H         1 GJG         0.0288
     21 H5         24.4576    9.2396    0.4710 H         1 GJG         0.0288
     22 H6         24.9289    7.4229    4.0290 H         1 GJG         0.0266
     23 H7         26.3184    6.6181    3.2240 H         1 GJG         0.0266
     24 H8         17.2847    5.4290    2.7339 H         1 GJG         0.1806
     25 H9         16.1341    4.3553    2.0106 H         1 GJG         0.1806
     26 H10        23.0648    7.4377   -0.3184 H         1 GJG         0.1823
     27 H11        22.7920    7.8800    2.6402 H         1 GJG         0.0556
     28 H12        24.4292    9.8710    3.4565 H         1 GJG         0.0266
     29 H13        25.4079   10.6633    2.1754 H         1 GJG         0.0266
     30 H14        26.6715    8.6060    1.8102 H         1 GJG         0.0265
     31 H15        26.7228    9.0465    3.5508 H         1 GJG         0.0265
     32 H16        24.1622    5.8820    2.2619 H         1 GJG         0.0288
     33 H17        25.1601    6.7611    1.0544 H         1 GJG         0.0288
@<TRIPOS>BOND
     1    2    1 ar 
     2    1    3 ar 
     3    2    5 ar 
     4   12    2 1  
     5    3   11 ar 
     6    5    4 ar 
     7    4   11 ar 
     8   13    6 1  
     9    6   14 1  
    10    7   15 1  
    11   16    7 1  
    12    9    8 2  
    13    9   10 am 
    14   11    9 1  
    15   13   12 1  
    16   13   16 1  
    17   14   15 1  
    18    3   17 1  
    19    4   18 1  
    20    5   19 1  
    21    6   20 1  
    22    6   21 1  
    23    7   22 1  
    24    7   23 1  
    25   10   24 1  
    26   10   25 1  
    27   12   26 1  
    28   13   27 1  
    29   14   28 1  
    30   14   29 1  
    31   15   30 1  
    32   15   31 1  
    33   16   32 1  
    34   16   33 1  
@<TRIPOS>SUBSTRUCTURE
     1 GJG         1

