### 
### Created by X-TOOL on Wed Jan  1 15:39:35 2020
### 

@<TRIPOS>MOLECULE
6di1_ligand
   36    37     1     0     0
SMALL
GAST_HUCK


@<TRIPOS>ATOM
      1 C2        -14.7320   -6.7100   -1.7980 C.ar      1 GJD         0.1810
      2 C4        -16.1300   -5.7140   -0.2400 C.ar      1 GJD         0.1318
      3 C5        -16.9950   -5.4500   -1.2900 C.ar      1 GJD         0.1035
      4 C6        -16.6240   -5.8100   -2.5950 C.ar      1 GJD         0.0203
      5 CAT       -11.8950  -13.4210   -0.3060 C.2       1 GJD        -0.0786
      6 CAS       -11.8600  -12.3360   -1.2350 C.2       1 GJD         0.0081
      7 CAQ       -11.4550  -10.9660   -1.0910 C.2       1 GJD         0.1955
      8 OAR       -10.4420  -10.7120   -0.3820 O.2       1 GJD        -0.3877
      9 NAN       -12.0480  -10.0060   -1.8140 N.am      1 GJD        -0.2824
     10 CAL       -11.5880   -8.6060   -1.7840 C.3       1 GJD         0.0639
     11 CAM       -12.6290   -7.7210   -1.0130 C.3       1 GJD         0.0574
     12 CAK       -11.6340   -8.0630   -3.2430 C.3       1 GJD        -0.0071
     13 CAJ       -13.1640   -7.7580   -3.4790 C.3       1 GJD         0.0367
     14 NAI       -13.6030   -7.3460   -2.0710 N.pl3     1 GJD        -0.2738
     15 N3        -14.9400   -6.3480   -0.5320 N.ar      1 GJD        -0.2356
     16 NAH       -16.3730   -5.4470    1.0320 N.pl3     1 GJD        -0.3136
     17 N1        -15.4420   -6.4360   -2.8000 N.ar      1 GJD        -0.2657
     18 CAG       -18.3440   -4.7470   -1.1040 C.2       1 GJD         0.1985
     19 OAO       -18.4690   -4.1450   -0.0580 O.2       1 GJD        -0.3932
     20 NAP       -19.2020   -4.8400   -2.0830 N.am      1 GJD        -0.3024
     21 H1        -17.2781   -5.5887   -3.4306 H         1 GJD         0.0904
     22 H2        -12.2444  -14.4013   -0.6267 H         1 GJD         0.0687
     23 H3        -11.5723  -13.2676    0.7227 H         1 GJD         0.0687
     24 H4        -12.2033  -12.5956   -2.2353 H         1 GJD         0.0692
     25 H5        -12.8274  -10.2472   -2.3923 H         1 GJD         0.1844
     26 H6        -10.5829   -8.5297   -1.3437 H         1 GJD         0.0576
     27 H7        -12.1485   -6.8290   -0.5848 H         1 GJD         0.0551
     28 H8        -13.1180   -8.2944   -0.2117 H         1 GJD         0.0551
     29 H9        -11.2702   -8.8187   -3.9547 H         1 GJD         0.0308
     30 H10       -11.0318   -7.1476   -3.3403 H         1 GJD         0.0308
     31 H11       -13.7048   -8.6511   -3.8251 H         1 GJD         0.0529
     32 H12       -13.3058   -6.9406   -4.2013 H         1 GJD         0.0529
     33 H13       -15.6713   -5.6777    1.7498 H         1 GJD         0.1830
     34 H14       -17.2640   -5.0083    1.3050 H         1 GJD         0.1830
     35 H15       -20.0959   -4.3980   -2.0081 H         1 GJD         0.1802
     36 H16       -18.9655   -5.3533   -2.9080 H         1 GJD         0.1802
@<TRIPOS>BOND
     1   14    1 1  
     2    1   15 ar 
     3    1   17 ar 
     4    2    3 ar 
     5   15    2 ar 
     6    2   16 1  
     7    4    3 ar 
     8    3   18 1  
     9   17    4 ar 
    10    6    5 2  
    11    7    6 1  
    12    7    8 2  
    13    9    7 am 
    14   10    9 1  
    15   11   10 1  
    16   10   12 1  
    17   11   14 1  
    18   12   13 1  
    19   13   14 1  
    20   18   19 2  
    21   18   20 am 
    22    4   21 1  
    23    5   22 1  
    24    5   23 1  
    25    6   24 1  
    26    9   25 1  
    27   10   26 1  
    28   11   27 1  
    29   11   28 1  
    30   12   29 1  
    31   12   30 1  
    32   13   31 1  
    33   13   32 1  
    34   16   33 1  
    35   16   34 1  
    36   20   35 1  
    37   20   36 1  
@<TRIPOS>SUBSTRUCTURE
     1 GJD         1

