### 
### Created by X-TOOL on Mon Aug  2 16:12:57 2021
### 

@<TRIPOS>MOLECULE
6die_ligand
   18    18     1     0     0
SMALL
GAST_HUCK


@<TRIPOS>ATOM
      1 C4         -6.0520  -14.4280   33.9980 C.ar      1 GHM        -0.0408
      2 C5         -7.1490  -13.6960   34.4510 C.ar      1 GHM         0.0265
      3 C6         -6.9790  -12.2240   34.6850 C.2       1 GHM         0.0668
      4 C7         -8.3680  -14.3250   34.6260 C.ar      1 GHM         0.0275
      5 C8         -9.5720  -13.5710   35.1200 C.2       1 GHM         0.0659
      6 C9         -8.4770  -15.6940   34.4090 C.ar      1 GHM        -0.0301
      7 C3         -6.1690  -15.7960   33.7650 C.ar      1 GHM        -0.0417
      8 C1         -7.5420  -17.9040   33.7230 C.2       1 GHM         0.0650
      9 C2         -7.3840  -16.4290   33.9760 C.ar      1 GHM         0.0161
     10 O1         -6.7820  -18.4950   32.9840 O.co2     1 GHM        -0.5600
     11 O2         -8.5260  -18.5800   34.3080 O.co2     1 GHM        -0.5600
     12 O3         -7.6650  -11.3990   34.1090 O.co2     1 GHM        -0.5593
     13 O4         -6.0330  -11.8180   35.5150 O.co2     1 GHM        -0.5593
     14 O5        -10.6860  -13.7720   34.6760 O.co2     1 GHM        -0.5599
     15 O6         -9.4330  -12.6810   36.0880 O.co2     1 GHM        -0.5599
     16 H1         -5.1044  -13.9302   33.8265 H         1 GHM         0.0664
     17 H2         -9.4250  -16.1911   34.5799 H         1 GHM         0.0692
     18 H3         -5.3127  -16.3640   33.4197 H         1 GHM         0.0677
@<TRIPOS>BOND
     1    1    2 ar 
     2    1    7 ar 
     3    2    3 1  
     4    2    4 ar 
     5    3   12 ar 
     6    3   13 ar 
     7    4    5 1  
     8    4    6 ar 
     9    5   14 ar 
    10    5   15 ar 
    11    6    9 ar 
    12    7    9 ar 
    13    9    8 1  
    14    8   10 ar 
    15    8   11 ar 
    16    1   16 1  
    17    6   17 1  
    18    7   18 1  
@<TRIPOS>SUBSTRUCTURE
     1 GHM         1

