### 
### Created by X-TOOL on Wed Jan  1 15:39:35 2020
### 

@<TRIPOS>MOLECULE
6dif_ligand
   75    78     1     0     0
SMALL
GAST_HUCK


@<TRIPOS>ATOM
      1 O1         13.2680   21.8760   62.6890 O.3       1 TPV        -0.2775
      2 C2         12.1410   21.1770   62.9140 C.2       1 TPV         0.2212
      3 C3         12.1300   19.8970   63.5140 C.2       1 TPV         0.0518
      4 C4         13.4000   19.3900   63.7750 C.2       1 TPV         0.0930
      5 C5         14.6030   20.0160   63.3880 C.3       1 TPV         0.0484
      6 C6         14.5170   21.5300   63.2800 C.3       1 TPV         0.1121
      7 O7         11.1090   21.7810   62.5170 O.2       1 TPV        -0.3901
      8 O8         13.5090   18.1540   64.3600 O.3       1 TPV        -0.3232
      9 C9         14.5820   22.0280   64.7430 C.3       1 TPV        -0.0172
     10 C10        14.5990   23.5340   64.9410 C.3       1 TPV        -0.0528
     11 C11        14.6490   23.8300   66.4670 C.3       1 TPV        -0.0652
     12 C12        15.6050   22.1730   62.4310 C.3       1 TPV        -0.0074
     13 C13        15.6510   21.7910   60.9640 C.3       1 TPV        -0.0160
     14 C14        16.7190   22.3830   60.2790 C.ar      1 TPV        -0.0429
     15 C15        16.4840   23.4950   59.4770 C.ar      1 TPV        -0.0603
     16 C16        17.5050   24.1310   58.8140 C.ar      1 TPV        -0.0686
     17 C17        18.8060   23.6330   58.9450 C.ar      1 TPV        -0.0687
     18 C18        19.0650   22.5080   59.7280 C.ar      1 TPV        -0.0686
     19 C19        18.0240   21.8790   60.4000 C.ar      1 TPV        -0.0603
     20 C20        10.8750   19.2200   63.6990 C.3       1 TPV         0.0078
     21 C21        10.7070   18.5490   65.0470 C.3       1 TPV        -0.0416
     22 C22        10.9000   19.4440   66.2640 C.3       1 TPV        -0.0625
     23 C23        10.4480   18.3640   62.6880 C.ar      1 TPV        -0.0540
     24 C24        11.3340   17.8100   61.7760 C.ar      1 TPV        -0.0769
     25 C25        10.9100   16.9380   60.7500 C.ar      1 TPV        -0.0844
     26 C26         9.5800   16.5880   60.5830 C.ar      1 TPV        -0.0526
     27 C27         8.6460   17.1210   61.4860 C.ar      1 TPV         0.0558
     28 N28         7.3030   16.8190   61.3120 N.am      1 TPV        -0.1846
     29 C29         9.1000   17.9610   62.4820 C.ar      1 TPV        -0.0443
     30 S30         6.7390   15.4690   61.9880 S.o2      1 TPV         0.1159
     31 O31         5.2990   15.3440   61.5620 O.2       1 TPV        -0.1395
     32 O32         7.6310   14.2950   61.5840 O.2       1 TPV        -0.1395
     33 C33         6.8230   15.7170   63.7580 C.ar      1 TPV         0.2140
     34 N34         7.8680   15.2490   64.4660 N.ar      1 TPV        -0.2350
     35 C35         8.0490   15.6320   65.7940 C.ar      1 TPV         0.0449
     36 C36         7.1280   16.4940   66.4180 C.ar      1 TPV         0.0774
     37 C37         6.0360   16.9060   65.6670 C.ar      1 TPV        -0.0118
     38 C38         5.8600   16.5180   64.3350 C.ar      1 TPV         0.0213
     39 C39         7.2770   16.9140   67.7220 C.3       1 TPV         0.3861
     40 F40         7.8900   16.0330   68.5240 F         1 TPV        -0.2154
     41 F41         6.2520   17.3680   68.4030 F         1 TPV        -0.2154
     42 F42         8.1300   17.9720   67.7640 F         1 TPV        -0.2154
     43 H1         14.8978   19.6174   62.4061 H         1 TPV         0.0532
     44 H2         15.3747   19.7675   64.1314 H         1 TPV         0.0532
     45 H3         12.6427   17.8304   64.5777 H         1 TPV         0.2572
     46 H4         15.4979   21.6201   65.1955 H         1 TPV         0.0298
     47 H5         13.7032   21.6304   65.2718 H         1 TPV         0.0298
     48 H6         13.6899   23.9757   64.5069 H         1 TPV         0.0264
     49 H7         15.4853   23.9629   64.4506 H         1 TPV         0.0264
     50 H8         14.6619   24.9179   66.6292 H         1 TPV         0.0230
     51 H9         15.5579   23.3844   66.8974 H         1 TPV         0.0230
     52 H10        13.7626   23.3972   66.9537 H         1 TPV         0.0230
     53 H11        16.5747   21.9030   62.8745 H         1 TPV         0.0320
     54 H12        15.4675   23.2630   62.4856 H         1 TPV         0.0320
     55 H13        14.7108   22.1083   60.4892 H         1 TPV         0.0427
     56 H14        15.7490   20.6980   60.8890 H         1 TPV         0.0427
     57 H15        15.4716   23.8683   59.3729 H         1 TPV         0.0557
     58 H16        17.3066   25.0025   58.2007 H         1 TPV         0.0599
     59 H17        19.6227   24.1275   58.4317 H         1 TPV         0.0559
     60 H18        20.0758   22.1254   59.8120 H         1 TPV         0.0599
     61 H19        18.2178   21.0061   61.0128 H         1 TPV         0.0557
     62 H20        10.1393   20.0377   63.6946 H         1 TPV         0.0507
     63 H21        11.4402   17.7314   65.1103 H         1 TPV         0.0297
     64 H22         9.6895   18.1335   65.0922 H         1 TPV         0.0297
     65 H23        10.7548   18.8531   67.1804 H         1 TPV         0.0232
     66 H24        10.1670   20.2637   66.2363 H         1 TPV         0.0232
     67 H25        11.9176   19.8616   66.2544 H         1 TPV         0.0232
     68 H26        12.3872   18.0548   61.8536 H         1 TPV         0.0414
     69 H27        11.6491   16.5290   60.0707 H         1 TPV         0.0555
     70 H28         9.2709   15.9254   59.7827 H         1 TPV         0.0425
     71 H29         6.7036   17.4203   60.7836 H         1 TPV         0.2164
     72 H30         8.3599   18.3501   63.1719 H         1 TPV         0.0414
     73 H31         8.9041   15.2638   66.3493 H         1 TPV         0.1070
     74 H32         5.2954   17.5495   66.1279 H         1 TPV         0.0964
     75 H33         4.9908   16.8379   63.7717 H         1 TPV         0.0802
@<TRIPOS>BOND
     1    1    2 1  
     2    1    6 1  
     3    2    3 1  
     4    2    7 2  
     5    3    4 2  
     6    3   20 1  
     7    4    5 1  
     8    4    8 1  
     9    5    6 1  
    10    6    9 1  
    11    6   12 1  
    12    9   10 1  
    13   10   11 1  
    14   12   13 1  
    15   13   14 1  
    16   14   15 ar 
    17   14   19 ar 
    18   15   16 ar 
    19   16   17 ar 
    20   17   18 ar 
    21   18   19 ar 
    22   20   21 1  
    23   20   23 1  
    24   21   22 1  
    25   23   24 ar 
    26   23   29 ar 
    27   24   25 ar 
    28   25   26 ar 
    29   26   27 ar 
    30   27   28 1  
    31   27   29 ar 
    32   28   30 am 
    33   30   31 2  
    34   30   32 2  
    35   30   33 1  
    36   33   34 ar 
    37   33   38 ar 
    38   34   35 ar 
    39   35   36 ar 
    40   36   37 ar 
    41   36   39 1  
    42   37   38 ar 
    43   39   40 1  
    44   39   41 1  
    45   39   42 1  
    46    5   43 1  
    47    5   44 1  
    48    8   45 1  
    49    9   46 1  
    50    9   47 1  
    51   10   48 1  
    52   10   49 1  
    53   11   50 1  
    54   11   51 1  
    55   11   52 1  
    56   12   53 1  
    57   12   54 1  
    58   13   55 1  
    59   13   56 1  
    60   15   57 1  
    61   16   58 1  
    62   17   59 1  
    63   18   60 1  
    64   19   61 1  
    65   20   62 1  
    66   21   63 1  
    67   21   64 1  
    68   22   65 1  
    69   22   66 1  
    70   22   67 1  
    71   24   68 1  
    72   25   69 1  
    73   26   70 1  
    74   28   71 1  
    75   29   72 1  
    76   35   73 1  
    77   37   74 1  
    78   38   75 1  
@<TRIPOS>SUBSTRUCTURE
     1 TPV         1

