### 
### Created by X-TOOL on Mon Aug  2 16:12:58 2021
### 

@<TRIPOS>MOLECULE
6dih_ligand
   17    17     1     0     0
SMALL
GAST_HUCK


@<TRIPOS>ATOM
      1 C10        -8.2840  -14.2320   34.6880 C.ar      1 GJS         0.0156
      2 C02        -6.9620  -12.0690   34.8290 C.2       1 GJS         0.0581
      3 C04        -7.0700  -13.5690   34.5560 C.ar      1 GJS         0.0128
      4 C05        -5.9300  -14.2580   34.1570 C.ar      1 GJS        -0.0528
      5 C06        -6.0020  -15.6240   33.9060 C.ar      1 GJS        -0.0269
      6 C07        -7.2090  -16.2900   34.0530 C.ar      1 GJS         0.0942
      7 C09        -8.3460  -15.5950   34.4440 C.ar      1 GJS        -0.0155
      8 C11        -9.5520  -13.4840   35.1330 C.2       1 GJS         0.0629
      9 O01        -7.6340  -11.2490   34.1640 O.co2     1 GJS        -0.5629
     10 O03        -6.1870  -11.6620   35.7250 O.co2     1 GJS        -0.5629
     11 O08        -7.2870  -17.6680   33.7960 O.3       1 GJS        -0.3305
     12 O12        -9.4880  -12.6990   36.1040 O.co2     1 GJS        -0.5600
     13 O13       -10.6610  -13.6470   34.5540 O.co2     1 GJS        -0.5600
     14 H1         -4.9889  -13.7325   34.0420 H         1 GJS         0.0630
     15 H2         -5.1163  -16.1668   33.5961 H         1 GJS         0.0571
     16 H3         -9.2867  -16.1212   34.5590 H         1 GJS         0.0583
     17 H4         -7.5763  -18.1194   34.5802 H         1 GJS         0.2493
@<TRIPOS>BOND
     1    1    3 ar 
     2    1    7 ar 
     3    1    8 1  
     4    3    2 1  
     5    2    9 ar 
     6    2   10 ar 
     7    3    4 ar 
     8    4    5 ar 
     9    5    6 ar 
    10    6    7 ar 
    11    6   11 1  
    12    8   12 ar 
    13    8   13 ar 
    14    4   14 1  
    15    5   15 1  
    16    7   16 1  
    17   11   17 1  
@<TRIPOS>SUBSTRUCTURE
     1 GJS         1

