### 
### Created by X-TOOL on Wed Jan  1 15:39:35 2020
### 

@<TRIPOS>MOLECULE
6dik_ligand
   50    51     1     0     0
SMALL
GAST_HUCK


@<TRIPOS>ATOM
      1 C1          2.5570  -12.7680    4.1020 C.ar      1 GKP        -0.0672
      2 C10         4.2330  -19.0840    3.6540 C.3       1 GKP         0.1793
      3 C11         4.1180  -19.7710    4.9860 C.2       1 GKP         0.0730
      4 C12         3.6840  -19.9630    2.5390 C.3       1 GKP         0.1793
      5 C13         1.7580  -21.2850    2.0600 C.2       1 GKP         0.2463
      6 C14         0.3000  -21.5020    2.0360 C.2       1 GKP         0.0163
      7 C15        -0.2250  -22.3860    1.1960 C.2       1 GKP        -0.0474
      8 C16        -1.6890  -22.5970    1.1630 C.ar      1 GKP        -0.0328
      9 C17        -2.2060  -23.6790    0.4570 C.ar      1 GKP        -0.0287
     10 C18        -3.5770  -23.8830    0.4100 C.ar      1 GKP         0.1218
     11 C19        -4.4710  -22.9340    1.1180 C.ar      1 GKP         0.1232
     12 C2          2.0520  -11.4740    4.0140 C.ar      1 GKP        -0.0342
     13 C20        -3.9120  -21.8660    1.8090 C.ar      1 GKP        -0.0342
     14 C21        -2.5290  -21.7010    1.8230 C.ar      1 GKP        -0.0672
     15 C22         3.8810  -19.2410    1.2410 C.2       1 GKP         0.0730
     16 C3          2.8990  -10.3880    4.1990 C.ar      1 GKP         0.1232
     17 C4          4.3310  -10.6370    4.4870 C.ar      1 GKP         0.1218
     18 C5          4.7860  -11.9420    4.5650 C.ar      1 GKP        -0.0287
     19 C6          3.9050  -12.9990    4.3750 C.ar      1 GKP        -0.0328
     20 C7          4.4320  -14.3800    4.4620 C.2       1 GKP        -0.0474
     21 C8          3.6530  -15.4210    4.2020 C.2       1 GKP         0.0163
     22 C9          4.2060  -16.7850    4.2850 C.2       1 GKP         0.2463
     23 O1          5.2650  -17.0140    4.8490 O.2       1 GKP        -0.3668
     24 O10         4.9890  -19.4270    0.5280 O.co2     1 GKP        -0.5659
     25 O11         5.1850   -9.5980    4.6740 O.3       1 GKP        -0.3356
     26 O12         2.4340   -9.1100    4.1200 O.3       1 GKP        -0.3320
     27 O2          3.4780  -17.8750    3.6690 O.3       1 GKP        -0.2584
     28 O3          3.0370  -19.9160    5.5360 O.co2     1 GKP        -0.5659
     29 O4          5.2130  -20.2270    5.5890 O.co2     1 GKP        -0.5659
     30 O5          2.2860  -20.1190    2.7440 O.3       1 GKP        -0.2584
     31 O6          2.5240  -22.0620    1.5090 O.2       1 GKP        -0.3668
     32 O7         -5.8200  -23.1090    1.0890 O.3       1 GKP        -0.3320
     33 O8         -4.0940  -24.9420   -0.2730 O.3       1 GKP        -0.3356
     34 O9          3.0280  -18.4720    0.8280 O.co2     1 GKP        -0.5659
     35 H1          1.8911  -13.6108    3.9558 H         1 GKP         0.0547
     36 H2          5.2911  -18.8582    3.4556 H         1 GKP         0.0867
     37 H3          4.1895  -20.9399    2.5256 H         1 GKP         0.0867
     38 H4         -0.3460  -20.9375    2.7069 H         1 GKP         0.0617
     39 H5          0.4222  -22.9560    0.5310 H         1 GKP         0.0733
     40 H6         -1.5379  -24.3616   -0.0556 H         1 GKP         0.0541
     41 H7          1.0011  -11.3138    3.8018 H         1 GKP         0.0531
     42 H8         -4.5494  -21.1643    2.3348 H         1 GKP         0.0531
     43 H9         -2.0982  -20.8613    2.3563 H         1 GKP         0.0547
     44 H10         5.8311  -12.1393    4.7746 H         1 GKP         0.0541
     45 H11         5.4715  -14.5426    4.7428 H         1 GKP         0.0733
     46 H12         2.6099  -15.2691    3.9285 H         1 GKP         0.0617
     47 H13         4.7104   -8.7797    4.5863 H         1 GKP         0.2444
     48 H14         2.8924   -8.6497    3.4268 H         1 GKP         0.2473
     49 H15        -6.2286  -22.3471    0.6953 H         1 GKP         0.2473
     50 H16        -4.5822  -25.4954    0.3253 H         1 GKP         0.2444
@<TRIPOS>BOND
     1    1   12 ar 
     2   19    1 ar 
     3    2    3 1  
     4    2    4 1  
     5   27    2 1  
     6    3   28 ar 
     7    3   29 ar 
     8    4   15 1  
     9    4   30 1  
    10    5    6 1  
    11   30    5 1  
    12    5   31 2  
    13    6    7 2  
    14    7    8 1  
    15    8    9 ar 
    16    8   14 ar 
    17    9   10 ar 
    18   10   11 ar 
    19   10   33 1  
    20   13   11 ar 
    21   11   32 1  
    22   12   16 ar 
    23   14   13 ar 
    24   15   24 ar 
    25   15   34 ar 
    26   17   16 ar 
    27   16   26 1  
    28   18   17 ar 
    29   17   25 1  
    30   19   18 ar 
    31   20   19 1  
    32   21   20 2  
    33   22   21 1  
    34   22   23 2  
    35   22   27 1  
    36    1   35 1  
    37    2   36 1  
    38    4   37 1  
    39    6   38 1  
    40    7   39 1  
    41    9   40 1  
    42   12   41 1  
    43   13   42 1  
    44   14   43 1  
    45   18   44 1  
    46   20   45 1  
    47   21   46 1  
    48   25   47 1  
    49   26   48 1  
    50   32   49 1  
    51   33   50 1  
@<TRIPOS>SUBSTRUCTURE
     1 GKP         1

