### 
### Created by X-TOOL on Wed Jan  1 15:39:35 2020
### 

@<TRIPOS>MOLECULE
6dil_ligand
   75    78     1     0     0
SMALL
GAST_HUCK


@<TRIPOS>ATOM
      1 O1         13.3290   21.8950   62.8530 O.3       1 TPV        -0.2775
      2 C2         12.1840   21.2230   63.1020 C.2       1 TPV         0.2212
      3 C3         12.1690   19.9290   63.6580 C.2       1 TPV         0.0518
      4 C4         13.4410   19.4290   63.9600 C.2       1 TPV         0.0930
      5 C5         14.6410   20.0240   63.5610 C.3       1 TPV         0.0484
      6 C6         14.5560   21.5470   63.4800 C.3       1 TPV         0.1121
      7 O7         11.1460   21.8260   62.7180 O.2       1 TPV        -0.3901
      8 O8         13.5980   18.2010   64.4990 O.3       1 TPV        -0.3232
      9 C9         14.7020   22.0100   64.9410 C.3       1 TPV        -0.0172
     10 C10        14.5400   23.4850   65.1910 C.3       1 TPV        -0.0528
     11 C11        14.6670   23.8490   66.6770 C.3       1 TPV        -0.0652
     12 C12        15.6800   22.1480   62.6150 C.3       1 TPV        -0.0074
     13 C13        15.7060   21.7420   61.1480 C.3       1 TPV        -0.0160
     14 C14        16.7500   22.3580   60.4560 C.ar      1 TPV        -0.0429
     15 C15        16.5380   23.4950   59.6820 C.ar      1 TPV        -0.0603
     16 C16        17.5890   24.0670   58.9760 C.ar      1 TPV        -0.0686
     17 C17        18.8910   23.5880   59.1140 C.ar      1 TPV        -0.0687
     18 C18        19.1020   22.4070   59.8250 C.ar      1 TPV        -0.0686
     19 C19        18.0450   21.8620   60.5380 C.ar      1 TPV        -0.0603
     20 C20        10.9710   19.2310   63.8520 C.3       1 TPV         0.0078
     21 C21        10.7810   18.5360   65.1890 C.3       1 TPV        -0.0416
     22 C22        10.8680   19.4360   66.4110 C.3       1 TPV        -0.0625
     23 C23        10.5300   18.3750   62.8440 C.ar      1 TPV        -0.0540
     24 C24        11.4050   17.7650   61.9600 C.ar      1 TPV        -0.0769
     25 C25        10.9450   16.9020   60.9470 C.ar      1 TPV        -0.0844
     26 C26         9.5940   16.6530   60.7580 C.ar      1 TPV        -0.0526
     27 C27         8.6840   17.1580   61.7160 C.ar      1 TPV         0.0558
     28 N28         7.3600   16.9880   61.4990 N.am      1 TPV        -0.1846
     29 C29         9.1620   18.0450   62.6670 C.ar      1 TPV        -0.0443
     30 S30         6.6810   15.6270   62.1570 S.o2      1 TPV         0.1159
     31 O31         5.2780   15.4100   61.6550 O.2       1 TPV        -0.1395
     32 O32         7.5890   14.4170   61.7740 O.2       1 TPV        -0.1395
     33 C33         6.8450   15.9370   63.8770 C.ar      1 TPV         0.2140
     34 N34         7.8400   15.3600   64.5800 N.ar      1 TPV        -0.2350
     35 C35         7.9670   15.6390   65.9510 C.ar      1 TPV         0.0449
     36 C36         7.0420   16.4570   66.6070 C.ar      1 TPV         0.0774
     37 C37         6.0030   17.0370   65.8600 C.ar      1 TPV        -0.0118
     38 C38         5.8950   16.7250   64.5040 C.ar      1 TPV         0.0213
     39 C39         7.2040   16.8850   67.9180 C.3       1 TPV         0.3861
     40 F40         7.8230   16.0320   68.7150 F         1 TPV        -0.2154
     41 F41         6.0570   17.3250   68.4070 F         1 TPV        -0.2154
     42 F42         8.0220   17.9600   67.8810 F         1 TPV        -0.2154
     43 H1         14.9116   19.6351   62.5683 H         1 TPV         0.0532
     44 H2         15.4233   19.7550   64.2860 H         1 TPV         0.0532
     45 H3         12.7490   17.8546   64.7476 H         1 TPV         0.2572
     46 H4         15.7052   21.7196   65.2862 H         1 TPV         0.0298
     47 H5         13.9423   21.4834   65.5372 H         1 TPV         0.0298
     48 H6         13.5463   23.7956   64.8359 H         1 TPV         0.0264
     49 H7         15.3158   24.0251   64.6284 H         1 TPV         0.0264
     50 H8         14.5407   24.9347   66.8006 H         1 TPV         0.0230
     51 H9         15.6604   23.5514   67.0438 H         1 TPV         0.0230
     52 H10        13.8909   23.3219   67.2513 H         1 TPV         0.0230
     53 H11        16.6399   21.8482   63.0607 H         1 TPV         0.0320
     54 H12        15.5827   23.2429   62.6560 H         1 TPV         0.0320
     55 H13        14.7520   22.0300   60.6823 H         1 TPV         0.0427
     56 H14        15.8312   20.6511   61.0830 H         1 TPV         0.0427
     57 H15        15.5491   23.9360   59.6298 H         1 TPV         0.0557
     58 H16        17.3938   24.8981   58.3079 H         1 TPV         0.0599
     59 H17        19.7250   24.1244   58.6761 H         1 TPV         0.0559
     60 H18        20.0728   21.9248   59.8204 H         1 TPV         0.0599
     61 H19        18.2370   21.0143   61.1858 H         1 TPV         0.0557
     62 H20        10.2259   20.0401   63.8589 H         1 TPV         0.0507
     63 H21        11.5568   17.7618   65.2821 H         1 TPV         0.0297
     64 H22         9.7884   18.0620   65.1869 H         1 TPV         0.0297
     65 H23        10.7171   18.8354   67.3201 H         1 TPV         0.0232
     66 H24        10.0907   20.2120   66.3510 H         1 TPV         0.0232
     67 H25        11.8592   19.9117   66.4462 H         1 TPV         0.0232
     68 H26        12.4681   17.9565   62.0502 H         1 TPV         0.0414
     69 H27        11.6663   16.4193   60.2975 H         1 TPV         0.0555
     70 H28         9.2455   16.0879   59.9011 H         1 TPV         0.0425
     71 H29         6.8218   17.6456   60.9719 H         1 TPV         0.2164
     72 H30         8.4400   18.5199   63.3215 H         1 TPV         0.0414
     73 H31         8.7940   15.2140   66.5083 H         1 TPV         0.1070
     74 H32         5.2981   17.7144   66.3283 H         1 TPV         0.0964
     75 H33         5.0552   17.1051   63.9336 H         1 TPV         0.0802
@<TRIPOS>BOND
     1    1    2 1  
     2    1    6 1  
     3    2    3 1  
     4    2    7 2  
     5    3    4 2  
     6    3   20 1  
     7    4    5 1  
     8    4    8 1  
     9    5    6 1  
    10    6    9 1  
    11    6   12 1  
    12    9   10 1  
    13   10   11 1  
    14   12   13 1  
    15   13   14 1  
    16   14   15 ar 
    17   14   19 ar 
    18   15   16 ar 
    19   16   17 ar 
    20   17   18 ar 
    21   18   19 ar 
    22   20   21 1  
    23   20   23 1  
    24   21   22 1  
    25   23   24 ar 
    26   23   29 ar 
    27   24   25 ar 
    28   25   26 ar 
    29   26   27 ar 
    30   27   28 1  
    31   27   29 ar 
    32   28   30 am 
    33   30   31 2  
    34   30   32 2  
    35   30   33 1  
    36   33   34 ar 
    37   33   38 ar 
    38   34   35 ar 
    39   35   36 ar 
    40   36   37 ar 
    41   36   39 1  
    42   37   38 ar 
    43   39   40 1  
    44   39   41 1  
    45   39   42 1  
    46    5   43 1  
    47    5   44 1  
    48    8   45 1  
    49    9   46 1  
    50    9   47 1  
    51   10   48 1  
    52   10   49 1  
    53   11   50 1  
    54   11   51 1  
    55   11   52 1  
    56   12   53 1  
    57   12   54 1  
    58   13   55 1  
    59   13   56 1  
    60   15   57 1  
    61   16   58 1  
    62   17   59 1  
    63   18   60 1  
    64   19   61 1  
    65   20   62 1  
    66   21   63 1  
    67   21   64 1  
    68   22   65 1  
    69   22   66 1  
    70   22   67 1  
    71   24   68 1  
    72   25   69 1  
    73   26   70 1  
    74   28   71 1  
    75   29   72 1  
    76   35   73 1  
    77   37   74 1  
    78   38   75 1  
@<TRIPOS>SUBSTRUCTURE
     1 TPV         1

