### 
### Created by X-TOOL on Mon Aug  2 16:12:58 2021
### 

@<TRIPOS>MOLECULE
6dim_ligand
   20    21     1     0     0
SMALL
GAST_HUCK


@<TRIPOS>ATOM
      1 C4         -6.7880  -14.8030   32.2730 C.ar      1 GJP         0.0373
      2 C5         -6.6500  -15.8370   31.3180 C.ar      1 GJP        -0.0435
      3 C6         -7.3590  -15.7720   30.1260 C.ar      1 GJP        -0.0581
      4 C7         -8.1940  -14.6830   29.8650 C.ar      1 GJP        -0.0573
      5 C8         -8.3310  -13.6620   30.8070 C.ar      1 GJP        -0.0439
      6 C9         -7.6120  -13.7320   32.0190 C.ar      1 GJP         0.0461
      7 C10        -7.7220  -12.7110   32.9910 C.ar      1 GJP         0.1376
      8 C3         -6.1800  -13.9390   34.3530 C.ar      1 GJP         0.0081
      9 N          -6.0960  -14.8750   33.4200 N.ar      1 GJP        -0.3133
     10 C1         -7.0540  -11.7620   35.2900 C.2       1 GJP         0.0614
     11 C2         -6.9880  -12.8170   34.1800 C.ar      1 GJP         0.0664
     12 O1         -6.8860  -12.0860   36.5040 O.co2     1 GJP        -0.5647
     13 O2         -7.2990  -10.5670   35.0170 O.co2     1 GJP        -0.5647
     14 O3         -8.5600  -11.6110   32.7240 O.3       1 GJP        -0.3116
     15 H1         -5.9935  -16.6766   31.5158 H         1 GJP         0.0621
     16 H2         -7.2644  -16.5681   29.3963 H         1 GJP         0.0654
     17 H3         -8.7371  -14.6306   28.9283 H         1 GJP         0.0617
     18 H4         -8.9855  -12.8209   30.6087 H         1 GJP         0.0667
     19 H5         -5.6096  -14.0477   35.2684 H         1 GJP         0.0842
     20 H6         -9.2320  -11.5565   33.3933 H         1 GJP         0.2600
@<TRIPOS>BOND
     1    1    2 ar 
     2    1    6 ar 
     3    1    9 ar 
     4    2    3 ar 
     5    3    4 ar 
     6    4    5 ar 
     7    5    6 ar 
     8    6    7 ar 
     9    7   11 ar 
    10    7   14 1  
    11    9    8 ar 
    12    8   11 ar 
    13   11   10 1  
    14   10   12 ar 
    15   10   13 ar 
    16    2   15 1  
    17    3   16 1  
    18    4   17 1  
    19    5   18 1  
    20    8   19 1  
    21   14   20 1  
@<TRIPOS>SUBSTRUCTURE
     1 GJP         1

