### 
### Created by X-TOOL on Wed Jan  1 15:39:35 2020
### 

@<TRIPOS>MOLECULE
6dj1_ligand
   94    97     1     0     0
SMALL
GAST_HUCK


@<TRIPOS>ATOM
      1 C1          5.1690   16.3660   63.7490 C.3       1 AB1         0.0330
      2 C2          6.9050   17.8280   62.7300 C.3       1 AB1         0.0388
      3 N1          7.9290   16.8830   63.2380 N.am      1 AB1        -0.2377
      4 C3          7.6160   15.8750   64.0460 C.2       1 AB1         0.2622
      5 N2          6.2810   15.6640   64.3580 N.am      1 AB1        -0.2728
      6 C4         14.9030   20.5570   61.6730 C.ar      1 AB1        -0.0408
      7 C5         16.1800   21.0410   61.5330 C.ar      1 AB1        -0.0603
      8 C6         16.5140   22.0890   60.6710 C.ar      1 AB1        -0.0686
      9 C7         15.5240   22.7110   59.9030 C.ar      1 AB1        -0.0687
     10 C8         14.2320   22.2350   60.0340 C.ar      1 AB1        -0.0686
     11 C9         13.9370   21.1300   60.8370 C.ar      1 AB1        -0.0603
     12 O1          8.4780   15.0970   64.5340 O.2       1 AB1        -0.4005
     13 C10         9.3570   17.0790   62.8830 C.3       1 AB1         0.1362
     14 C11         9.8930   18.2830   63.6240 C.2       1 AB1         0.2023
     15 N3         10.6460   18.0430   64.7140 N.am      1 AB1        -0.2800
     16 C12        11.1440   19.0920   65.6120 C.3       1 AB1         0.0540
     17 C13         9.5600   17.1780   61.3780 C.3       1 AB1        -0.0063
     18 C14        11.0550   17.3980   61.1040 C.3       1 AB1        -0.0584
     19 C15         9.1070   15.8860   60.6920 C.3       1 AB1        -0.0584
     20 O2          9.5800   19.4040   63.1950 O.2       1 AB1        -0.3945
     21 C16         7.2070   20.9410   66.8420 C.ar      1 AB1        -0.0686
     22 C17         6.2710   19.9210   66.7520 C.ar      1 AB1        -0.0687
     23 C18         6.7020   18.6020   66.7220 C.ar      1 AB1        -0.0686
     24 C19         8.0770   18.3380   66.8010 C.ar      1 AB1        -0.0603
     25 C20         9.0270   19.3410   66.8460 C.ar      1 AB1        -0.0408
     26 C21         8.5670   20.6610   66.9080 C.ar      1 AB1        -0.0603
     27 C22        10.3790   19.0760   66.9460 C.3       1 AB1         0.0040
     28 C23        12.6250   18.8120   65.8670 C.3       1 AB1         0.0004
     29 C24        13.4830   18.5890   64.6170 C.3       1 AB1         0.0821
     30 C25        13.7460   19.7990   63.7270 C.3       1 AB1         0.0774
     31 N4         14.4420   20.8770   64.4590 N.am      1 AB1        -0.2772
     32 C26        13.8710   22.0720   64.6950 C.2       1 AB1         0.2068
     33 C27        14.8000   23.1450   65.2660 C.3       1 AB1         0.1556
     34 O3         16.0380   22.5870   65.7550 O.3       1 AB1        -0.3054
     35 C28        16.8770   23.5730   66.1050 C.ar      1 AB1         0.0966
     36 O4         14.7790   18.0320   64.9890 O.3       1 AB1        -0.3893
     37 C29        14.5960   19.4570   62.4960 C.3       1 AB1         0.0064
     38 O5         12.6920   22.3170   64.4620 O.2       1 AB1        -0.3941
     39 C30        16.8070   24.1500   67.3650 C.ar      1 AB1        -0.0230
     40 C31        17.7090   25.1670   67.6510 C.ar      1 AB1        -0.0759
     41 C32        18.6280   25.6400   66.7020 C.ar      1 AB1        -0.0862
     42 C33        18.6870   25.0210   65.4470 C.ar      1 AB1        -0.0759
     43 C34        17.8450   23.9250   65.1900 C.ar      1 AB1        -0.0230
     44 C35        17.8190   23.3160   63.9240 C.3       1 AB1        -0.0348
     45 C36        15.8580   23.7900   68.3460 C.3       1 AB1        -0.0348
     46 C37         5.6050   17.1050   62.4870 C.3       1 AB1        -0.0125
     47 H1          4.7665   17.0934   64.4693 H         1 AB1         0.0517
     48 H2          4.3866   15.6388   63.4863 H         1 AB1         0.0517
     49 H3          7.2560   18.2716   61.7866 H         1 AB1         0.0522
     50 H4          6.7449   18.6239   63.4722 H         1 AB1         0.0522
     51 H5          6.0705   14.9774   65.0539 H         1 AB1         0.1845
     52 H6         16.9695   20.5871   62.1210 H         1 AB1         0.0557
     53 H7         17.5433   22.4209   60.5973 H         1 AB1         0.0599
     54 H8         15.7593   23.5308   59.2340 H         1 AB1         0.0559
     55 H9         13.4289   22.7310   59.5010 H         1 AB1         0.0599
     56 H10        12.9390   20.7075   60.8121 H         1 AB1         0.0557
     57 H11         9.9153   16.1967   63.2291 H         1 AB1         0.0802
     58 H12        10.8799   17.0938   64.9243 H         1 AB1         0.1856
     59 H13        11.0243   20.0763   65.1358 H         1 AB1         0.0579
     60 H14         8.9798   18.0248   60.9827 H         1 AB1         0.0342
     61 H15        11.2219   17.4722   60.0193 H         1 AB1         0.0234
     62 H16        11.6301   16.5510   61.5063 H         1 AB1         0.0234
     63 H17        11.3839   18.3284   61.5900 H         1 AB1         0.0234
     64 H18         8.0363   15.7241   60.8855 H         1 AB1         0.0234
     65 H19         9.6838   15.0380   61.0897 H         1 AB1         0.0234
     66 H20         9.2754   15.9679   59.6081 H         1 AB1         0.0234
     67 H21         6.8728   21.9720   66.8611 H         1 AB1         0.0599
     68 H22         5.2129   20.1520   66.7055 H         1 AB1         0.0559
     69 H23         5.9884   17.7903   66.6390 H         1 AB1         0.0599
     70 H24         8.4080   17.3061   66.8278 H         1 AB1         0.0557
     71 H25         9.2780   21.4731   67.0085 H         1 AB1         0.0557
     72 H26        10.8274   19.8333   67.6058 H         1 AB1         0.0448
     73 H27        10.4992   18.0797   67.3965 H         1 AB1         0.0448
     74 H28        12.6959   17.9091   66.4912 H         1 AB1         0.0315
     75 H29        13.0420   19.6700   66.4146 H         1 AB1         0.0315
     76 H30        12.9506   17.8482   64.0023 H         1 AB1         0.0619
     77 H31        12.7721   20.1781   63.3838 H         1 AB1         0.0604
     78 H32        15.3708   20.7125   64.7910 H         1 AB1         0.1857
     79 H33        14.2874   23.6527   66.0963 H         1 AB1         0.0853
     80 H34        15.0278   23.8745   64.4749 H         1 AB1         0.0853
     81 H35        14.6484   17.2736   65.5460 H         1 AB1         0.2099
     82 H36        15.5409   19.0141   62.8437 H         1 AB1         0.0449
     83 H37        14.0456   18.7200   61.8928 H         1 AB1         0.0449
     84 H38        17.7027   25.6100   68.6403 H         1 AB1         0.0471
     85 H39        19.2823   26.4718   66.9366 H         1 AB1         0.0489
     86 H40        19.3705   25.3810   64.6866 H         1 AB1         0.0471
     87 H41        17.0997   22.4838   63.9322 H         1 AB1         0.0366
     88 H42        18.8208   22.9323   63.6810 H         1 AB1         0.0366
     89 H43        17.5160   24.0551   63.1677 H         1 AB1         0.0366
     90 H44        15.2255   22.9757   67.9628 H         1 AB1         0.0366
     91 H45        15.2297   24.6606   68.5854 H         1 AB1         0.0366
     92 H46        16.3792   23.4531   69.2542 H         1 AB1         0.0366
     93 H47         4.8305   17.8343   62.2071 H         1 AB1         0.0304
     94 H48         5.7393   16.3809   61.6700 H         1 AB1         0.0304
@<TRIPOS>BOND
     1    5    1 1  
     2   46    1 1  
     3    3    2 1  
     4    2   46 1  
     5    3    4 am 
     6   13    3 1  
     7    4    5 am 
     8    4   12 2  
     9    6    7 ar 
    10    6   11 ar 
    11   37    6 1  
    12    7    8 ar 
    13    8    9 ar 
    14   10    9 ar 
    15   11   10 ar 
    16   14   13 1  
    17   13   17 1  
    18   15   14 am 
    19   14   20 2  
    20   16   15 1  
    21   16   27 1  
    22   28   16 1  
    23   17   18 1  
    24   17   19 1  
    25   21   22 ar 
    26   26   21 ar 
    27   23   22 ar 
    28   24   23 ar 
    29   25   24 ar 
    30   25   26 ar 
    31   27   25 1  
    32   29   28 1  
    33   30   29 1  
    34   29   36 1  
    35   30   31 1  
    36   30   37 1  
    37   31   32 am 
    38   32   33 1  
    39   32   38 2  
    40   33   34 1  
    41   34   35 1  
    42   35   39 ar 
    43   35   43 ar 
    44   39   40 ar 
    45   39   45 1  
    46   40   41 ar 
    47   41   42 ar 
    48   42   43 ar 
    49   43   44 1  
    50    1   47 1  
    51    1   48 1  
    52    2   49 1  
    53    2   50 1  
    54    5   51 1  
    55    7   52 1  
    56    8   53 1  
    57    9   54 1  
    58   10   55 1  
    59   11   56 1  
    60   13   57 1  
    61   15   58 1  
    62   16   59 1  
    63   17   60 1  
    64   18   61 1  
    65   18   62 1  
    66   18   63 1  
    67   19   64 1  
    68   19   65 1  
    69   19   66 1  
    70   21   67 1  
    71   22   68 1  
    72   23   69 1  
    73   24   70 1  
    74   26   71 1  
    75   27   72 1  
    76   27   73 1  
    77   28   74 1  
    78   28   75 1  
    79   29   76 1  
    80   30   77 1  
    81   31   78 1  
    82   33   79 1  
    83   33   80 1  
    84   36   81 1  
    85   37   82 1  
    86   37   83 1  
    87   40   84 1  
    88   41   85 1  
    89   42   86 1  
    90   44   87 1  
    91   44   88 1  
    92   44   89 1  
    93   45   90 1  
    94   45   91 1  
    95   45   92 1  
    96   46   93 1  
    97   46   94 1  
@<TRIPOS>SUBSTRUCTURE
     1 AB1         1

