### 
### Created by X-TOOL on Wed Jan  1 15:39:35 2020
### 

@<TRIPOS>MOLECULE
6dj2_ligand
   94    97     1     0     0
SMALL
GAST_HUCK


@<TRIPOS>ATOM
      1 C1          5.0070   16.5070   64.2720 C.3       1 AB1         0.0330
      2 C2          6.7890   17.9290   63.2850 C.3       1 AB1         0.0388
      3 N1          7.7980   16.9030   63.6600 N.am      1 AB1        -0.2377
      4 C3          7.4400   15.8620   64.4070 C.2       1 AB1         0.2622
      5 N2          6.1280   15.6720   64.7750 N.am      1 AB1        -0.2728
      6 C4         14.7760   20.4710   61.8760 C.ar      1 AB1        -0.0408
      7 C5         16.0600   20.9530   61.7480 C.ar      1 AB1        -0.0603
      8 C6         16.4530   21.9840   60.9270 C.ar      1 AB1        -0.0686
      9 C7         15.4420   22.6050   60.1510 C.ar      1 AB1        -0.0687
     10 C8         14.1720   22.1090   60.1890 C.ar      1 AB1        -0.0686
     11 C9         13.8270   21.0660   61.0440 C.ar      1 AB1        -0.0603
     12 O1          8.3080   15.0440   64.7660 O.2       1 AB1        -0.4005
     13 C10         9.1990   17.1040   63.1990 C.3       1 AB1         0.1362
     14 C11         9.7260   18.3290   63.9330 C.2       1 AB1         0.2023
     15 N3         10.4880   18.0610   64.9880 N.am      1 AB1        -0.2800
     16 C12        11.0520   19.1250   65.8400 C.3       1 AB1         0.0540
     17 C13         9.2680   17.2040   61.6820 C.3       1 AB1        -0.0063
     18 C14        10.7410   17.4150   61.3090 C.3       1 AB1        -0.0584
     19 C15         8.7950   15.8930   61.0560 C.3       1 AB1        -0.0584
     20 O2          9.4480   19.4520   63.4950 O.2       1 AB1        -0.3945
     21 C16         7.1070   20.9870   67.0950 C.ar      1 AB1        -0.0686
     22 C17         6.1430   19.9930   67.1130 C.ar      1 AB1        -0.0687
     23 C18         6.5790   18.6610   67.1410 C.ar      1 AB1        -0.0686
     24 C19         7.9560   18.3990   67.1870 C.ar      1 AB1        -0.0603
     25 C20         8.9120   19.3990   67.0770 C.ar      1 AB1        -0.0408
     26 C21         8.4490   20.7290   67.0910 C.ar      1 AB1        -0.0603
     27 C22        10.2790   19.1680   67.1530 C.3       1 AB1         0.0040
     28 C23        12.5340   18.8550   66.1000 C.3       1 AB1         0.0004
     29 C24        13.3780   18.5920   64.8700 C.3       1 AB1         0.0821
     30 C25        13.6670   19.7930   63.9710 C.3       1 AB1         0.0774
     31 N4         14.4030   20.8620   64.6780 N.am      1 AB1        -0.2772
     32 C26        13.8120   22.0570   64.9090 C.2       1 AB1         0.2068
     33 C27        14.6960   23.1550   65.4950 C.3       1 AB1         0.1556
     34 O3         15.9360   22.5600   65.9540 O.3       1 AB1        -0.3054
     35 C28        16.7980   23.5450   66.3080 C.ar      1 AB1         0.0966
     36 O4         14.6300   18.0420   65.2890 O.3       1 AB1        -0.3893
     37 C29        14.4910   19.4120   62.7560 C.3       1 AB1         0.0064
     38 O5         12.6170   22.3150   64.6770 O.2       1 AB1        -0.3941
     39 C30        16.6740   24.0960   67.5720 C.ar      1 AB1        -0.0230
     40 C31        17.5950   25.0810   67.9000 C.ar      1 AB1        -0.0759
     41 C32        18.5530   25.5340   67.0120 C.ar      1 AB1        -0.0862
     42 C33        18.6640   24.9600   65.7370 C.ar      1 AB1        -0.0759
     43 C34        17.7680   23.9270   65.3920 C.ar      1 AB1        -0.0230
     44 C35        17.8310   23.3970   64.1070 C.3       1 AB1        -0.0348
     45 C36        15.7640   23.6570   68.5740 C.3       1 AB1        -0.0348
     46 C37         5.4370   17.2800   63.0350 C.3       1 AB1        -0.0125
     47 H1          4.7033   17.2166   65.0557 H         1 AB1         0.0517
     48 H2          4.1571   15.8572   64.0163 H         1 AB1         0.0517
     49 H3          7.1184   18.4432   62.3700 H         1 AB1         0.0522
     50 H4          6.6943   18.6592   64.1022 H         1 AB1         0.0522
     51 H5          5.9179   14.9328   65.4149 H         1 AB1         0.1845
     52 H6         16.8283   20.4779   62.3471 H         1 AB1         0.0557
     53 H7         17.4867   22.3065   60.8757 H         1 AB1         0.0599
     54 H8         15.6759   23.4650   59.5339 H         1 AB1         0.0559
     55 H9         13.4158   22.5357   59.5401 H         1 AB1         0.0599
     56 H10        12.8033   20.7099   61.0637 H         1 AB1         0.0557
     57 H11         9.8025   16.2349   63.4996 H         1 AB1         0.0802
     58 H12        10.6857   17.1066   65.2118 H         1 AB1         0.1856
     59 H13        10.9493   20.0932   65.3281 H         1 AB1         0.0579
     60 H14         8.6512   18.0411   61.3230 H         1 AB1         0.0342
     61 H15        10.8349   17.4927   60.2158 H         1 AB1         0.0234
     62 H16        11.3360   16.5625   61.6684 H         1 AB1         0.0234
     63 H17        11.1083   18.3411   61.7753 H         1 AB1         0.0234
     64 H18         7.7388   15.7241   61.3129 H         1 AB1         0.0234
     65 H19         9.4036   15.0619   61.4418 H         1 AB1         0.0234
     66 H20         8.9019   15.9491   59.9627 H         1 AB1         0.0234
     67 H21         6.7810   22.0208   67.0835 H         1 AB1         0.0599
     68 H22         5.0868   20.2367   67.1057 H         1 AB1         0.0559
     69 H23         5.8635   17.8468   67.1273 H         1 AB1         0.0599
     70 H24         8.2868   17.3745   67.3135 H         1 AB1         0.0557
     71 H25         9.1580   21.5490   67.0986 H         1 AB1         0.0557
     72 H26        10.7161   19.9681   67.7684 H         1 AB1         0.0448
     73 H27        10.4236   18.1995   67.6541 H         1 AB1         0.0448
     74 H28        12.6075   17.9745   66.7552 H         1 AB1         0.0315
     75 H29        12.9522   19.7319   66.6159 H         1 AB1         0.0315
     76 H30        12.8452   17.8467   64.2612 H         1 AB1         0.0619
     77 H31        12.7016   20.1958   63.6308 H         1 AB1         0.0604
     78 H32        15.3406   20.7016   64.9866 H         1 AB1         0.1857
     79 H33        14.1801   23.6334   66.3406 H         1 AB1         0.0853
     80 H34        14.9109   23.9084   64.7229 H         1 AB1         0.0853
     81 H35        14.4731   17.2919   65.8506 H         1 AB1         0.2099
     82 H36        15.4458   18.9946   63.1084 H         1 AB1         0.0449
     83 H37        13.9386   18.6426   62.1966 H         1 AB1         0.0449
     84 H38        17.5619   25.5131   68.8936 H         1 AB1         0.0471
     85 H39        19.2214   26.3365   67.3025 H         1 AB1         0.0489
     86 H40        19.4176   25.3009   65.0363 H         1 AB1         0.0471
     87 H41        17.0729   22.6074   63.9985 H         1 AB1         0.0366
     88 H42        18.8306   22.9717   63.9344 H         1 AB1         0.0366
     89 H43        17.6392   24.1928   63.3723 H         1 AB1         0.0366
     90 H44        15.1064   22.8800   68.1570 H         1 AB1         0.0366
     91 H45        15.1558   24.5077   68.9152 H         1 AB1         0.0366
     92 H46        16.3263   23.2438   69.4244 H         1 AB1         0.0366
     93 H47         4.6925   18.0586   62.8124 H         1 AB1         0.0304
     94 H48         5.5137   16.5911   62.1809 H         1 AB1         0.0304
@<TRIPOS>BOND
     1    5    1 1  
     2   46    1 1  
     3    3    2 1  
     4    2   46 1  
     5    3    4 am 
     6   13    3 1  
     7    4    5 am 
     8    4   12 2  
     9    6    7 ar 
    10    6   11 ar 
    11   37    6 1  
    12    7    8 ar 
    13    8    9 ar 
    14   10    9 ar 
    15   11   10 ar 
    16   14   13 1  
    17   13   17 1  
    18   15   14 am 
    19   14   20 2  
    20   16   15 1  
    21   16   27 1  
    22   28   16 1  
    23   17   18 1  
    24   17   19 1  
    25   21   22 ar 
    26   26   21 ar 
    27   23   22 ar 
    28   24   23 ar 
    29   25   24 ar 
    30   25   26 ar 
    31   27   25 1  
    32   29   28 1  
    33   30   29 1  
    34   29   36 1  
    35   30   31 1  
    36   30   37 1  
    37   31   32 am 
    38   32   33 1  
    39   32   38 2  
    40   33   34 1  
    41   34   35 1  
    42   35   39 ar 
    43   35   43 ar 
    44   39   40 ar 
    45   39   45 1  
    46   40   41 ar 
    47   41   42 ar 
    48   42   43 ar 
    49   43   44 1  
    50    1   47 1  
    51    1   48 1  
    52    2   49 1  
    53    2   50 1  
    54    5   51 1  
    55    7   52 1  
    56    8   53 1  
    57    9   54 1  
    58   10   55 1  
    59   11   56 1  
    60   13   57 1  
    61   15   58 1  
    62   16   59 1  
    63   17   60 1  
    64   18   61 1  
    65   18   62 1  
    66   18   63 1  
    67   19   64 1  
    68   19   65 1  
    69   19   66 1  
    70   21   67 1  
    71   22   68 1  
    72   23   69 1  
    73   24   70 1  
    74   26   71 1  
    75   27   72 1  
    76   27   73 1  
    77   28   74 1  
    78   28   75 1  
    79   29   76 1  
    80   30   77 1  
    81   31   78 1  
    82   33   79 1  
    83   33   80 1  
    84   36   81 1  
    85   37   82 1  
    86   37   83 1  
    87   40   84 1  
    88   41   85 1  
    89   42   86 1  
    90   44   87 1  
    91   44   88 1  
    92   44   89 1  
    93   45   90 1  
    94   45   91 1  
    95   45   92 1  
    96   46   93 1  
    97   46   94 1  
@<TRIPOS>SUBSTRUCTURE
     1 AB1         1

