### 
### Created by X-TOOL on Wed Jan  1 15:39:37 2020
### 

@<TRIPOS>MOLECULE
6dj5_ligand
   82    86     1     0     0
SMALL
GAST_HUCK


@<TRIPOS>ATOM
      1 C2         20.9830   27.6060   15.0380 C.ar      1 G52         0.0908
      2 C3         19.6300   27.5470   14.6920 C.ar      1 G52        -0.0313
      3 C4         18.8650   26.4170   14.9590 C.ar      1 G52        -0.0440
      4 C5         19.4480   25.3420   15.6340 C.ar      1 G52         0.0971
      5 C6         20.7940   25.4020   15.9710 C.ar      1 G52        -0.0440
      6 C7         21.5710   26.5210   15.6830 C.ar      1 G52        -0.0313
      7 S8         18.5090   23.9090   16.0160 S.o2      1 G52         0.0657
      8 O9         17.4440   23.7580   14.9800 O.2       1 G52        -0.1515
      9 O10        19.4150   22.7230   16.0720 O.2       1 G52        -0.1515
     10 N11        17.8140   24.0520   17.4890 N.am      1 G52        -0.2325
     11 C12        18.7620   24.4740   18.5150 C.3       1 G52         0.0319
     12 C13        18.5230   23.7040   19.8200 C.3       1 G52        -0.0296
     13 C14        18.2710   22.2150   19.5780 C.3       1 G52        -0.0612
     14 C15        19.6770   23.8930   20.8100 C.3       1 G52        -0.0612
     15 C16        16.6000   24.8640   17.4650 C.3       1 G52         0.0578
     16 C17        15.4170   24.0340   17.9430 C.3       1 G52         0.0967
     17 O18        14.2560   24.8170   18.1890 O.3       1 G52        -0.3877
     18 C19        15.0820   22.8750   17.0010 C.3       1 G52         0.0807
     19 N20        14.1400   21.9800   17.6980 N.am      1 G52        -0.2550
     20 C21        14.3580   20.7000   17.9960 C.2       1 G52         0.3203
     21 O22        15.4050   20.1090   17.7310 O.2       1 G52        -0.3775
     22 O23        13.3390   20.0450   18.6220 O.3       1 G52        -0.2578
     23 C24        13.6370   18.6660   18.8500 C.3       1 G52         0.1192
     24 C25        13.2050   18.3390   20.2830 C.3       1 G52         0.0816
     25 O26        11.7720   18.3190   20.2330 O.3       1 G52        -0.3479
     26 C27        11.3740   17.9240   18.9240 C.3       1 G52         0.1682
     27 O28        10.5200   18.9000   18.3520 O.3       1 G52        -0.3222
     28 C29        11.0120   19.3520   17.0990 C.3       1 G52         0.1655
     29 C30        12.2130   18.4950   16.7360 C.3       1 G52         0.0225
     30 C31        12.6160   17.8350   18.0580 C.3       1 G52         0.0504
     31 C32        14.3640   23.3830   15.7390 C.3       1 G52         0.0064
     32 C33        12.7270   21.7120   14.7900 C.ar      1 G52        -0.0603
     33 C34        12.4080   20.6320   13.9800 C.ar      1 G52        -0.0686
     34 C35        13.3970   20.0130   13.2200 C.ar      1 G52        -0.0687
     35 C36        14.7030   20.4820   13.2690 C.ar      1 G52        -0.0686
     36 C37        15.0210   21.5740   14.0760 C.ar      1 G52        -0.0603
     37 C38        14.0330   22.1890   14.8310 C.ar      1 G52        -0.0408
     38 O39        21.7040   28.7330   14.7830 O.3       1 G52        -0.3212
     39 C40        23.0930   28.5410   15.0220 C.3       1 G52         0.0594
     40 O41        10.0300   19.0770   16.0870 O.3       1 G52        -0.3509
     41 C42        10.1220   17.6540   15.8880 C.3       1 G52         0.0511
     42 C43        11.6310   17.4420   15.7820 C.3       1 G52        -0.0214
     43 H1         19.1681   28.3988   14.2060 H         1 G52         0.0542
     44 H2         17.8279   26.3708   14.6469 H         1 G52         0.0608
     45 H3         21.2514   24.5560   16.4711 H         1 G52         0.0608
     46 H4         22.6194   26.5471   15.9572 H         1 G52         0.0542
     47 H5         18.6366   25.5506   18.7023 H         1 G52         0.0480
     48 H6         19.7859   24.2799   18.1630 H         1 G52         0.0480
     49 H7         17.6165   24.1216   20.2825 H         1 G52         0.0311
     50 H8         18.1061   21.7098   20.5411 H         1 G52         0.0233
     51 H9         19.1441   21.7721   19.0764 H         1 G52         0.0233
     52 H10        17.3816   22.0922   18.9425 H         1 G52         0.0233
     53 H11        19.8468   24.9673   20.9744 H         1 G52         0.0233
     54 H12        20.5899   23.4359   20.4006 H         1 G52         0.0233
     55 H13        19.4227   23.4116   21.7658 H         1 G52         0.0233
     56 H14        16.4122   25.2104   16.4380 H         1 G52         0.0504
     57 H15        16.7282   25.7328   18.1273 H         1 G52         0.0504
     58 H16        15.7155   23.5906   18.9044 H         1 G52         0.0634
     59 H17        13.9968   25.2573   17.3881 H         1 G52         0.2100
     60 H18        16.0008   22.3370   16.7249 H         1 G52         0.0604
     61 H19        13.2598   22.3681   17.9711 H         1 G52         0.1873
     62 H20        14.6854   18.4171   18.6289 H         1 G52         0.0675
     63 H21        13.5584   19.1121   20.9812 H         1 G52         0.0590
     64 H22        13.5965   17.3587   20.5925 H         1 G52         0.0590
     65 H23        10.8619   16.9514   18.9646 H         1 G52         0.0914
     66 H24        11.2679   20.4212   17.1357 H         1 G52         0.0913
     67 H25        13.0393   19.0621   16.2825 H         1 G52         0.0356
     68 H26        12.9658   16.8042   17.8998 H         1 G52         0.0383
     69 H27        15.0184   24.0843   15.2006 H         1 G52         0.0449
     70 H28        13.4341   23.8958   16.0260 H         1 G52         0.0449
     71 H29        11.9584   22.1843   15.3911 H         1 G52         0.0557
     72 H30        11.3873   20.2694   13.9386 H         1 G52         0.0599
     73 H31        13.1477   19.1661   12.5909 H         1 G52         0.0559
     74 H32        15.4749   19.9996   12.6803 H         1 G52         0.0599
     75 H33        16.0399   21.9421   14.1133 H         1 G52         0.0557
     76 H34        23.6348   29.4732   14.8040 H         1 G52         0.0577
     77 H35        23.4694   27.7376   14.3717 H         1 G52         0.0577
     78 H36        23.2490   28.2639   16.0750 H         1 G52         0.0577
     79 H37         9.6099   17.3461   14.9645 H         1 G52         0.0561
     80 H38         9.7006   17.1034   16.7420 H         1 G52         0.0561
     81 H39        11.9081   16.4267   16.1019 H         1 G52         0.0292
     82 H40        11.9795   17.6099   14.7523 H         1 G52         0.0292
@<TRIPOS>BOND
     1    2    1 ar 
     2    6    1 ar 
     3    1   38 1  
     4    3    2 ar 
     5    4    3 ar 
     6    4    5 ar 
     7    7    4 1  
     8    5    6 ar 
     9    7    8 2  
    10    7    9 2  
    11   10    7 am 
    12   10   11 1  
    13   15   10 1  
    14   11   12 1  
    15   12   13 1  
    16   12   14 1  
    17   16   15 1  
    18   16   17 1  
    19   18   16 1  
    20   18   19 1  
    21   31   18 1  
    22   19   20 am 
    23   20   21 2  
    24   20   22 1  
    25   22   23 1  
    26   23   24 1  
    27   23   30 1  
    28   24   25 1  
    29   26   25 1  
    30   26   27 1  
    31   30   26 1  
    32   28   27 1  
    33   29   28 1  
    34   28   40 1  
    35   30   29 1  
    36   29   42 1  
    37   37   31 1  
    38   32   33 ar 
    39   32   37 ar 
    40   33   34 ar 
    41   34   35 ar 
    42   35   36 ar 
    43   36   37 ar 
    44   38   39 1  
    45   40   41 1  
    46   41   42 1  
    47    2   43 1  
    48    3   44 1  
    49    5   45 1  
    50    6   46 1  
    51   11   47 1  
    52   11   48 1  
    53   12   49 1  
    54   13   50 1  
    55   13   51 1  
    56   13   52 1  
    57   14   53 1  
    58   14   54 1  
    59   14   55 1  
    60   15   56 1  
    61   15   57 1  
    62   16   58 1  
    63   17   59 1  
    64   18   60 1  
    65   19   61 1  
    66   23   62 1  
    67   24   63 1  
    68   24   64 1  
    69   26   65 1  
    70   28   66 1  
    71   29   67 1  
    72   30   68 1  
    73   31   69 1  
    74   31   70 1  
    75   32   71 1  
    76   33   72 1  
    77   34   73 1  
    78   35   74 1  
    79   36   75 1  
    80   39   76 1  
    81   39   77 1  
    82   39   78 1  
    83   41   79 1  
    84   41   80 1  
    85   42   81 1  
    86   42   82 1  
@<TRIPOS>SUBSTRUCTURE
     1 G52         1

