### 
### Created by X-TOOL on Wed Jan  1 15:39:35 2020
### 

@<TRIPOS>MOLECULE
6dj7_ligand
   75    78     1     0     0
SMALL
GAST_HUCK


@<TRIPOS>ATOM
      1 N1          7.2430   14.5440   14.4920 N.pl3     1 G10        -0.3369
      2 C2          7.9680   15.6030   14.8620 C.ar      1 G10         0.0353
      3 C3          9.3130   15.6980   14.5250 C.ar      1 G10        -0.0429
      4 C4         10.1160   16.7670   14.8780 C.ar      1 G10        -0.0471
      5 C5          9.5220   17.7890   15.6200 C.ar      1 G10         0.0949
      6 C6          8.1910   17.7010   15.9920 C.ar      1 G10        -0.0471
      7 C7          7.3940   16.6180   15.6290 C.ar      1 G10        -0.0429
      8 S8         10.4670   19.1960   16.1230 S.o2      1 G10         0.0648
      9 O9         11.5240   19.4110   15.1530 O.2       1 G10        -0.1518
     10 O10         9.5320   20.3070   16.3530 O.2       1 G10        -0.1518
     11 N11        11.0840   18.8320   17.5960 N.am      1 G10        -0.2327
     12 C12        10.1120   18.5310   18.6140 C.3       1 G10         0.0319
     13 C13        10.4460   19.1920   19.9600 C.3       1 G10        -0.0296
     14 C14        10.4310   20.7180   19.8380 C.3       1 G10        -0.0612
     15 C15         9.4820   18.7200   21.0660 C.3       1 G10        -0.0612
     16 C16        12.3560   18.1550   17.5350 C.3       1 G10         0.0578
     17 C17        13.4830   19.0280   18.0660 C.3       1 G10         0.0967
     18 O18        14.6350   18.2470   18.4340 O.3       1 G10        -0.3877
     19 C19        13.9050   20.1840   17.1500 C.3       1 G10         0.0807
     20 N20        14.7980   21.1010   17.8670 N.am      1 G10        -0.2550
     21 C21        14.4870   22.3480   18.2480 C.2       1 G10         0.3203
     22 O22        13.3650   22.8380   18.0090 O.2       1 G10        -0.3775
     23 O23        15.5060   22.9830   18.8800 O.3       1 G10        -0.2576
     24 C24        15.3180   24.3680   19.2150 C.3       1 G10         0.1244
     25 C25        15.9200   24.5910   20.6020 C.3       1 G10         0.0818
     26 O26        17.3410   24.6130   20.4250 O.3       1 G10        -0.3478
     27 C27        17.5970   25.1540   19.1340 C.3       1 G10         0.1706
     28 O28        18.4250   24.2220   18.4360 O.3       1 G10        -0.3448
     29 C29        17.8090   23.7220   17.2500 C.3       1 G10         0.1144
     30 C30        16.6650   24.6870   17.0260 C.3       1 G10         0.2819
     31 C31        16.2910   25.2300   18.3810 C.3       1 G10         0.1080
     32 C32        14.6620   19.6770   15.9160 C.3       1 G10         0.0064
     33 C33        16.4070   21.1370   14.8550 C.ar      1 G10        -0.0603
     34 C34        16.8140   22.1620   14.0270 C.ar      1 G10        -0.0686
     35 C35        15.8810   22.9050   13.3010 C.ar      1 G10        -0.0687
     36 C36        14.5410   22.5530   13.3740 C.ar      1 G10        -0.0686
     37 C37        14.1090   21.5200   14.2140 C.ar      1 G10        -0.0603
     38 C38        15.0490   20.8070   14.9670 C.ar      1 G10        -0.0408
     39 F39        15.6060   24.1190   16.4060 F         1 G10        -0.2026
     40 F40        17.1300   25.6850   16.2310 F         1 G10        -0.2026
     41 H1          7.6724   13.7983   13.9260 H         1 G10         0.1719
     42 H2          6.2545   14.4731   14.7727 H         1 G10         0.1719
     43 H3          9.7567   14.8902   13.9544 H         1 G10         0.0515
     44 H4         11.1605   16.8093   14.5911 H         1 G10         0.0602
     45 H5          7.7564   18.4988   16.5834 H         1 G10         0.0602
     46 H6          6.3552   16.5648   15.9342 H         1 G10         0.0515
     47 H7         10.0757   17.4408   18.7558 H         1 G10         0.0480
     48 H8          9.1277   18.8902   18.2792 H         1 G10         0.0480
     49 H9         11.4632   18.8846   20.2443 H         1 G10         0.0311
     50 H10        10.6727   21.1662   20.8131 H         1 G10         0.0233
     51 H11         9.4322   21.0506   19.5191 H         1 G10         0.0233
     52 H12        11.1774   21.0338   19.0943 H         1 G10         0.0233
     53 H13         9.5109   17.6225   21.1337 H         1 G10         0.0233
     54 H14         8.4594   19.0456   20.8246 H         1 G10         0.0233
     55 H15         9.7876   19.1549   22.0290 H         1 G10         0.0233
     56 H16        12.5707   17.8929   16.4885 H         1 G10         0.0504
     57 H17        12.3009   17.2373   18.1390 H         1 G10         0.0504
     58 H18        13.0992   19.4892   18.9879 H         1 G10         0.0634
     59 H19        14.9540   17.7771   17.6725 H         1 G10         0.2100
     60 H20        13.0038   20.7255   16.8265 H         1 G10         0.0604
     61 H21        15.7143   20.7683   18.0899 H         1 G10         0.1873
     62 H22        14.2658   24.6762   19.1265 H         1 G10         0.0677
     63 H23        15.6331   23.7719   21.2779 H         1 G10         0.0590
     64 H24        15.5733   25.5483   21.0182 H         1 G10         0.0590
     65 H25        18.0746   26.1423   19.2052 H         1 G10         0.0915
     66 H26        17.4380   22.6973   17.3993 H         1 G10         0.0620
     67 H27        18.5110   23.7381   16.4033 H         1 G10         0.0620
     68 H28        15.9059   26.2565   18.2915 H         1 G10         0.0439
     69 H29        14.0203   18.9657   15.3753 H         1 G10         0.0449
     70 H30        15.5774   19.1656   16.2484 H         1 G10         0.0449
     71 H31        17.1436   20.5816   15.4243 H         1 G10         0.0557
     72 H32        17.8694   22.3933   13.9389 H         1 G10         0.0599
     73 H33        16.1983   23.7427   12.6906 H         1 G10         0.0559
     74 H34        13.8162   23.0871   12.7702 H         1 G10         0.0599
     75 H35        13.0553   21.2743   14.2808 H         1 G10         0.0557
@<TRIPOS>BOND
     1    2    1 1  
     2    3    2 ar 
     3    7    2 ar 
     4    4    3 ar 
     5    5    4 ar 
     6    5    6 ar 
     7    8    5 1  
     8    6    7 ar 
     9    8    9 2  
    10    8   10 2  
    11   11    8 am 
    12   11   12 1  
    13   16   11 1  
    14   12   13 1  
    15   13   14 1  
    16   13   15 1  
    17   17   16 1  
    18   17   18 1  
    19   19   17 1  
    20   19   20 1  
    21   32   19 1  
    22   20   21 am 
    23   21   22 2  
    24   21   23 1  
    25   23   24 1  
    26   24   25 1  
    27   24   31 1  
    28   25   26 1  
    29   27   26 1  
    30   27   28 1  
    31   31   27 1  
    32   29   28 1  
    33   30   29 1  
    34   31   30 1  
    35   30   39 1  
    36   30   40 1  
    37   38   32 1  
    38   33   34 ar 
    39   33   38 ar 
    40   34   35 ar 
    41   35   36 ar 
    42   36   37 ar 
    43   37   38 ar 
    44    1   41 1  
    45    1   42 1  
    46    3   43 1  
    47    4   44 1  
    48    6   45 1  
    49    7   46 1  
    50   12   47 1  
    51   12   48 1  
    52   13   49 1  
    53   14   50 1  
    54   14   51 1  
    55   14   52 1  
    56   15   53 1  
    57   15   54 1  
    58   15   55 1  
    59   16   56 1  
    60   16   57 1  
    61   17   58 1  
    62   18   59 1  
    63   19   60 1  
    64   20   61 1  
    65   24   62 1  
    66   25   63 1  
    67   25   64 1  
    68   27   65 1  
    69   29   66 1  
    70   29   67 1  
    71   31   68 1  
    72   32   69 1  
    73   32   70 1  
    74   33   71 1  
    75   34   72 1  
    76   35   73 1  
    77   36   74 1  
    78   37   75 1  
@<TRIPOS>SUBSTRUCTURE
     1 G10         1

