### 
### Created by X-TOOL on Wed Jan  1 15:39:34 2020
### 

@<TRIPOS>MOLECULE
6djc_ligand
  118   125     1     0     0
SMALL
GAST_HUCK


@<TRIPOS>ATOM
      1 CL1       -27.4110   13.0650   26.1080 Cl        1 CF6        -0.0647
      2 C45       -26.9400   12.7080   27.7890 C.ar      1 CF6         0.0470
      3 C44       -27.4800   11.5980   28.4130 C.ar      1 CF6        -0.0406
      4 C43       -27.1120   11.3170   29.7150 C.ar      1 CF6        -0.0437
      5 C46       -26.0510   13.5470   28.4490 C.ar      1 CF6        -0.0406
      6 C47       -25.6800   13.2680   29.7570 C.ar      1 CF6        -0.0437
      7 C42       -26.2180   12.1510   30.3900 C.ar      1 CF6         0.0078
      8 C41       -25.8330   11.8360   31.8040 C.2       1 CF6         0.0263
      9 C4        -25.8720   10.4090   32.2390 C.2       1 CF6         0.0320
     10 C2        -25.3230    9.2530   31.4350 C.2       1 CF6        -0.0580
     11 C3        -24.6150    9.3020   30.1060 C.3       1 CF6        -0.0507
     12 N9        -25.5620   12.7730   32.6050 N.2       1 CF6        -0.3433
     13 C9        -25.2010   12.4610   33.9770 C.3       1 CF6         0.0994
     14 C8        -26.4270   11.9770   34.6520 C.2       1 CF6         0.1630
     15 N2        -27.1600   12.6010   35.5930 N.2       1 CF6        -0.2784
     16 N1        -28.2290   11.7470   35.9290 N.2       1 CF6        -0.2795
     17 C6        -28.1340   10.6200   35.1850 C.2       1 CF6         0.1468
     18 C7        -29.1080    9.4650   35.2450 C.3       1 CF6         0.0171
     19 N         -27.0440   10.8100   34.4230 N.pl3     1 CF6        -0.1470
     20 C5        -26.5120    9.9620   33.5080 C.2       1 CF6         0.1844
     21 S         -26.3820    8.2430   33.6500 S.3       1 CF6         0.0060
     22 C1        -25.5540    7.9710   32.1440 C.2       1 CF6         0.0043
     23 C         -25.2010    6.5570   31.7580 C.3       1 CF6        -0.0308
     24 C10       -24.6570   13.7460   34.5960 C.3       1 CF6         0.0632
     25 C11       -23.3780   14.1270   33.8760 C.2       1 CF6         0.1794
     26 O         -22.6570   13.2660   33.3730 O.2       1 CF6        -0.3968
     27 N3        -23.0840   15.4270   33.8150 N.am      1 CF6        -0.2868
     28 C12       -21.8400   15.8890   33.2270 C.3       1 CF6         0.0309
     29 C13       -22.0650   16.8150   32.0360 C.3       1 CF6        -0.0327
     30 C14       -22.7960   16.1080   30.9040 C.3       1 CF6        -0.0512
     31 C15       -22.9060   17.0000   29.6690 C.3       1 CF6        -0.0530
     32 C16       -23.7880   16.3330   28.6190 C.3       1 CF6        -0.0531
     33 C17       -23.9070   17.1250   27.3130 C.3       1 CF6        -0.0531
     34 C18       -24.9000   16.4170   26.3960 C.3       1 CF6        -0.0530
     35 C19       -24.9440   16.9690   24.9750 C.3       1 CF6        -0.0512
     36 C20       -26.0050   16.1880   24.2000 C.3       1 CF6        -0.0327
     37 C21       -26.1390   16.6030   22.7340 C.3       1 CF6         0.0309
     38 N4        -25.0310   16.1420   21.9110 N.am      1 CF6        -0.2868
     39 C22       -24.9500   14.8820   21.4780 C.2       1 CF6         0.1794
     40 O1        -25.8240   14.0450   21.6860 O.2       1 CF6        -0.3968
     41 C23       -23.7140   14.5050   20.6810 C.3       1 CF6         0.0632
     42 C24       -23.1460   13.2400   21.3120 C.3       1 CF6         0.0994
     43 C34       -22.0090   12.6520   20.5620 C.2       1 CF6         0.1630
     44 N8        -21.3730   13.1600   19.4820 N.2       1 CF6        -0.2784
     45 N7        -20.3440   12.2520   19.1370 N.2       1 CF6        -0.2795
     46 C32       -20.3740   11.2110   20.0050 C.2       1 CF6         0.1468
     47 C33       -19.4360   10.0360   19.9760 C.3       1 CF6         0.0171
     48 N6        -21.3640   11.5120   20.8700 N.pl3     1 CF6        -0.1470
     49 C27       -21.8450   10.7690   21.8990 C.2       1 CF6         0.1844
     50 C26       -22.3730   11.3610   23.1520 C.2       1 CF6         0.0320
     51 C30       -22.9380   10.3150   24.0840 C.2       1 CF6        -0.0580
     52 C31       -23.5460   10.5210   25.4540 C.3       1 CF6        -0.0507
     53 C28       -22.8210    8.9660   23.4740 C.2       1 CF6         0.0043
     54 C29       -23.2340    7.6130   24.0020 C.3       1 CF6        -0.0308
     55 S1        -22.0880    9.0540   21.9040 S.3       1 CF6         0.0060
     56 C25       -22.2880   12.8170   23.4470 C.2       1 CF6         0.0263
     57 N5        -22.6090   13.6800   22.5900 N.2       1 CF6        -0.3433
     58 C35       -21.7070   13.2500   24.7590 C.ar      1 CF6         0.0078
     59 C40       -20.9790   12.3520   25.5450 C.ar      1 CF6        -0.0437
     60 C39       -20.4340   12.7250   26.7600 C.ar      1 CF6        -0.0406
     61 C38       -20.6020   14.0370   27.1540 C.ar      1 CF6         0.0470
     62 CL        -19.8840   14.5270   28.7010 Cl        1 CF6        -0.0647
     63 C37       -21.2930   14.9600   26.3780 C.ar      1 CF6        -0.0406
     64 C36       -21.8480   14.5720   25.1680 C.ar      1 CF6        -0.0437
     65 H1        -28.1810   10.9585   27.8889 H         1 CF6         0.0639
     66 H2        -27.5190   10.4454   30.2146 H         1 CF6         0.0681
     67 H3        -25.6481   14.4173   27.9437 H         1 CF6         0.0639
     68 H4        -24.9807   13.9113   30.2787 H         1 CF6         0.0681
     69 H5        -24.5522   10.3450   29.7623 H         1 CF6         0.0315
     70 H6        -25.1750    8.7065   29.3700 H         1 CF6         0.0315
     71 H7        -23.6008    8.8904   30.2154 H         1 CF6         0.0315
     72 H8        -24.4284   11.6787   34.0092 H         1 CF6         0.0654
     73 H9        -29.8792    9.6746   36.0009 H         1 CF6         0.0469
     74 H10       -28.5695    8.5449   35.5160 H         1 CF6         0.0469
     75 H11       -29.5840    9.3353   34.2619 H         1 CF6         0.0469
     76 H12       -25.5369    5.8671   32.5462 H         1 CF6         0.0365
     77 H13       -24.1112    6.4714   31.6359 H         1 CF6         0.0365
     78 H14       -25.6974    6.3008   30.8104 H         1 CF6         0.0365
     79 H15       -24.4467   13.5829   35.6633 H         1 CF6         0.0539
     80 H16       -25.3975   14.5521   34.4871 H         1 CF6         0.0539
     81 H17       -23.7322   16.0949   34.1809 H         1 CF6         0.1851
     82 H18       -21.2631   15.0151   32.8902 H         1 CF6         0.0520
     83 H19       -21.2681   16.4327   33.9934 H         1 CF6         0.0520
     84 H20       -21.0896   17.1647   31.6669 H         1 CF6         0.0285
     85 H21       -22.6639   17.6777   32.3632 H         1 CF6         0.0285
     86 H22       -23.8075   15.8402   31.2433 H         1 CF6         0.0266
     87 H23       -22.2447   15.1942   30.6375 H         1 CF6         0.0266
     88 H24       -21.9028   17.1661   29.2494 H         1 CF6         0.0265
     89 H25       -23.3481   17.9656   29.9556 H         1 CF6         0.0265
     90 H26       -24.7959   16.2090   29.0417 H         1 CF6         0.0265
     91 H27       -23.3635   15.3451   28.3872 H         1 CF6         0.0265
     92 H28       -22.9240   17.1782   26.8222 H         1 CF6         0.0265
     93 H29       -24.2645   18.1426   27.5292 H         1 CF6         0.0265
     94 H30       -25.9040   16.5141   26.8347 H         1 CF6         0.0265
     95 H31       -24.6237   15.3535   26.3442 H         1 CF6         0.0265
     96 H32       -23.9624   16.8434   24.4947 H         1 CF6         0.0266
     97 H33       -25.2076   18.0367   24.9968 H         1 CF6         0.0266
     98 H34       -26.9762   16.3422   24.6928 H         1 CF6         0.0285
     99 H35       -25.7419   15.1205   24.2341 H         1 CF6         0.0285
    100 H36       -26.1812   17.7010   22.6825 H         1 CF6         0.0520
    101 H37       -27.0727   16.1810   22.3338 H         1 CF6         0.0520
    102 H38       -24.3092   16.7880   21.6626 H         1 CF6         0.1851
    103 H39       -22.9725   15.3161   20.7276 H         1 CF6         0.0539
    104 H40       -23.9844   14.3152   19.6318 H         1 CF6         0.0539
    105 H41       -23.9393   12.4886   21.4388 H         1 CF6         0.0654
    106 H42       -18.7570   10.1301   19.1157 H         1 CF6         0.0469
    107 H43       -20.0161    9.1058   19.8852 H         1 CF6         0.0469
    108 H44       -18.8487   10.0126   20.9058 H         1 CF6         0.0469
    109 H45       -23.5309   11.5920   25.7046 H         1 CF6         0.0315
    110 H46       -22.9643    9.9614   26.2013 H         1 CF6         0.0315
    111 H47       -24.5849   10.1595   25.4523 H         1 CF6         0.0315
    112 H48       -22.9851    6.8388   23.2613 H         1 CF6         0.0365
    113 H49       -24.3181    7.6073   24.1881 H         1 CF6         0.0365
    114 H50       -22.6996    7.4072   24.9412 H         1 CF6         0.0365
    115 H51       -20.8380   11.3365   25.1928 H         1 CF6         0.0681
    116 H52       -19.8963   12.0153   27.3782 H         1 CF6         0.0639
    117 H53       -21.3981   15.9836   26.7188 H         1 CF6         0.0639
    118 H54       -22.3822   15.2861   24.5518 H         1 CF6         0.0681
@<TRIPOS>BOND
     1    1    2 1  
     2    2    3 ar 
     3    2    5 ar 
     4    3    4 ar 
     5    4    7 ar 
     6    5    6 ar 
     7    6    7 ar 
     8    7    8 1  
     9    8    9 1  
    10    8   12 2  
    11    9   10 1  
    12    9   20 2  
    13   10   11 1  
    14   10   22 2  
    15   12   13 1  
    16   13   14 1  
    17   13   24 1  
    18   14   15 2  
    19   14   19 1  
    20   15   16 1  
    21   16   17 2  
    22   17   18 1  
    23   17   19 1  
    24   19   20 1  
    25   20   21 1  
    26   21   22 1  
    27   22   23 1  
    28   24   25 1  
    29   25   26 2  
    30   25   27 am 
    31   27   28 1  
    32   28   29 1  
    33   29   30 1  
    34   30   31 1  
    35   31   32 1  
    36   32   33 1  
    37   33   34 1  
    38   34   35 1  
    39   35   36 1  
    40   36   37 1  
    41   37   38 1  
    42   38   39 am 
    43   39   40 2  
    44   39   41 1  
    45   41   42 1  
    46   42   43 1  
    47   42   57 1  
    48   43   44 2  
    49   43   48 1  
    50   44   45 1  
    51   45   46 2  
    52   46   47 1  
    53   46   48 1  
    54   48   49 1  
    55   49   50 2  
    56   49   55 1  
    57   50   51 1  
    58   50   56 1  
    59   51   52 1  
    60   51   53 2  
    61   53   54 1  
    62   53   55 1  
    63   56   57 2  
    64   56   58 1  
    65   58   59 ar 
    66   58   64 ar 
    67   59   60 ar 
    68   60   61 ar 
    69   61   62 1  
    70   61   63 ar 
    71   63   64 ar 
    72    3   65 1  
    73    4   66 1  
    74    5   67 1  
    75    6   68 1  
    76   11   69 1  
    77   11   70 1  
    78   11   71 1  
    79   13   72 1  
    80   18   73 1  
    81   18   74 1  
    82   18   75 1  
    83   23   76 1  
    84   23   77 1  
    85   23   78 1  
    86   24   79 1  
    87   24   80 1  
    88   27   81 1  
    89   28   82 1  
    90   28   83 1  
    91   29   84 1  
    92   29   85 1  
    93   30   86 1  
    94   30   87 1  
    95   31   88 1  
    96   31   89 1  
    97   32   90 1  
    98   32   91 1  
    99   33   92 1  
   100   33   93 1  
   101   34   94 1  
   102   34   95 1  
   103   35   96 1  
   104   35   97 1  
   105   36   98 1  
   106   36   99 1  
   107   37  100 1  
   108   37  101 1  
   109   38  102 1  
   110   41  103 1  
   111   41  104 1  
   112   42  105 1  
   113   47  106 1  
   114   47  107 1  
   115   47  108 1  
   116   52  109 1  
   117   52  110 1  
   118   52  111 1  
   119   54  112 1  
   120   54  113 1  
   121   54  114 1  
   122   59  115 1  
   123   60  116 1  
   124   63  117 1  
   125   64  118 1  
@<TRIPOS>SUBSTRUCTURE
     1 CF6         1

