### 
### Created by X-TOOL on Mon Aug  2 16:12:58 2021
### 

@<TRIPOS>MOLECULE
6djd_ligand
   20    21     1     0     0
SMALL
GAST_HUCK


@<TRIPOS>ATOM
      1 C4         -6.8730  -14.9300   32.0990 C.ar      1 GJP         0.0373
      2 C5         -6.7770  -15.9340   31.1100 C.ar      1 GJP        -0.0435
      3 C6         -7.4860  -15.8130   29.9250 C.ar      1 GJP        -0.0581
      4 C7         -8.2900  -14.6970   29.7000 C.ar      1 GJP        -0.0573
      5 C8         -8.3870  -13.7060   30.6710 C.ar      1 GJP        -0.0439
      6 C9         -7.6700  -13.8320   31.8780 C.ar      1 GJP         0.0461
      7 C10        -7.7490  -12.8370   32.8740 C.ar      1 GJP         0.1376
      8 C3         -6.2430  -14.1460   34.2040 C.ar      1 GJP         0.0081
      9 N          -6.1840  -15.0580   33.2470 N.ar      1 GJP        -0.3133
     10 C1         -7.0750  -11.9560   35.1770 C.2       1 GJP         0.0614
     11 C2         -7.0150  -12.9970   34.0570 C.ar      1 GJP         0.0664
     12 O1         -6.9770  -12.3030   36.3940 O.co2     1 GJP        -0.5647
     13 O2         -7.2590  -10.7500   34.8850 O.co2     1 GJP        -0.5647
     14 O3         -8.5540  -11.7050   32.6480 O.3       1 GJP        -0.3116
     15 H1         -6.1478  -16.8006   31.2780 H         1 GJP         0.0621
     16 H2         -7.4149  -16.5887   29.1711 H         1 GJP         0.0654
     17 H3         -8.8387  -14.6016   28.7700 H         1 GJP         0.0617
     18 H4         -9.0132  -12.8379   30.4998 H         1 GJP         0.0667
     19 H5         -5.6804  -14.2963   35.1183 H         1 GJP         0.0842
     20 H6         -9.2205  -11.6520   33.3228 H         1 GJP         0.2600
@<TRIPOS>BOND
     1    1    2 ar 
     2    1    6 ar 
     3    1    9 ar 
     4    2    3 ar 
     5    3    4 ar 
     6    4    5 ar 
     7    5    6 ar 
     8    6    7 ar 
     9    7   11 ar 
    10    7   14 1  
    11    9    8 ar 
    12    8   11 ar 
    13   11   10 1  
    14   10   12 ar 
    15   10   13 ar 
    16    2   15 1  
    17    3   16 1  
    18    4   17 1  
    19    5   18 1  
    20    8   19 1  
    21   14   20 1  
@<TRIPOS>SUBSTRUCTURE
     1 GJP         1

