### 
### Created by X-TOOL on Mon Aug  2 16:12:58 2021
### 

@<TRIPOS>MOLECULE
6dji_ligand
   17    17     1     0     0
SMALL
GAST_HUCK


@<TRIPOS>ATOM
      1 C10         8.1510  -14.1300  -34.5720 C.ar      1 GOG         0.0523
      2 C02         6.8230  -11.9490  -34.8290 C.2       1 GOG         0.0628
      3 C04         6.9480  -13.4300  -34.4650 C.ar      1 GOG         0.0156
      4 C05         5.8150  -14.0780  -34.0040 C.ar      1 GOG        -0.0551
      5 C06         5.8570  -15.4150  -33.6590 C.ar      1 GOG        -0.0643
      6 C07         7.0440  -16.1120  -33.7750 C.ar      1 GOG        -0.0267
      7 C08         8.1890  -15.4700  -34.2260 C.ar      1 GOG         0.1061
      8 C11         9.4440  -13.4800  -35.0740 C.2       1 GOG         0.0605
      9 O01         7.4080  -11.0770  -34.1350 O.co2     1 GOG        -0.5600
     10 O03         6.1400  -11.6070  -35.8290 O.co2     1 GOG        -0.5600
     11 O09         9.3890  -16.1870  -34.3360 O.3       1 GOG        -0.3290
     12 O12         9.4370  -12.4050  -35.7310 O.co2     1 GOG        -0.5636
     13 O13        10.5360  -14.0580  -34.8390 O.co2     1 GOG        -0.5636
     14 H1          4.8842  -13.5301  -33.9127 H         1 GOG         0.0565
     15 H2          4.9643  -15.9139  -33.2996 H         1 GOG         0.0617
     16 H3          7.0814  -17.1632  -33.5131 H         1 GOG         0.0571
     17 H4         10.0729  -15.6104  -34.6558 H         1 GOG         0.2498
@<TRIPOS>BOND
     1    1    3 ar 
     2    1    7 ar 
     3    1    8 1  
     4    3    2 1  
     5    2    9 ar 
     6    2   10 ar 
     7    3    4 ar 
     8    4    5 ar 
     9    5    6 ar 
    10    6    7 ar 
    11    7   11 1  
    12    8   12 ar 
    13    8   13 ar 
    14    4   14 1  
    15    5   15 1  
    16    6   16 1  
    17   11   17 1  
@<TRIPOS>SUBSTRUCTURE
     1 GOG         1

