### 
### Created by X-TOOL on Mon Aug  2 16:12:59 2021
### 

@<TRIPOS>MOLECULE
6djj_ligand
   18    18     1     0     0
SMALL
GAST_HUCK


@<TRIPOS>ATOM
      1 C10        -6.9270  -12.1750   34.4330 C.2       1 GM7         0.0624
      2 C13        -5.9880  -14.4130   33.8580 C.ar      1 GM7        -0.0268
      3 C02        -6.0900  -15.7780   33.6510 C.ar      1 GM7         0.0420
      4 C03        -7.3000  -16.4230   33.8280 C.ar      1 GM7        -0.0382
      5 C04        -8.4120  -15.6860   34.1980 C.ar      1 GM7        -0.0558
      6 C05        -8.3200  -14.3160   34.3850 C.ar      1 GM7         0.0105
      7 C06        -9.5780  -13.5650   34.8180 C.2       1 GM7         0.0567
      8 C09        -7.1010  -13.6780   34.2350 C.ar      1 GM7         0.0126
      9 N01        -4.9140  -16.5390   33.2620 N.pl3     1 GM7        -0.3348
     10 O07        -9.5140  -12.7370   35.7650 O.co2     1 GM7        -0.5635
     11 O08       -10.6760  -13.8040   34.2560 O.co2     1 GM7        -0.5635
     12 O11        -6.0300  -11.7610   35.2020 O.co2     1 GM7        -0.5600
     13 O12        -7.6500  -11.3660   33.8130 O.co2     1 GM7        -0.5600
     14 H1         -5.0335  -13.9168   33.7247 H         1 GM7         0.0557
     15 H2         -7.3772  -17.4939   33.6787 H         1 GM7         0.0544
     16 H3         -9.3633  -16.1851   34.3427 H         1 GM7         0.0624
     17 H4         -4.0115  -16.0605   33.1296 H         1 GM7         0.1730
     18 H5         -4.9833  -17.5566   33.1188 H         1 GM7         0.1730
@<TRIPOS>BOND
     1    8    1 1  
     2    1   12 ar 
     3    1   13 ar 
     4    2    3 ar 
     5    2    8 ar 
     6    3    4 ar 
     7    3    9 1  
     8    4    5 ar 
     9    5    6 ar 
    10    6    7 1  
    11    6    8 ar 
    12    7   10 ar 
    13    7   11 ar 
    14    2   14 1  
    15    4   15 1  
    16    5   16 1  
    17    9   17 1  
    18    9   18 1  
@<TRIPOS>SUBSTRUCTURE
     1 GM7         1

