### 
### Created by X-TOOL on Wed Jan  1 15:39:38 2020
### 

@<TRIPOS>MOLECULE
6dk1_ligand
   49    51     1     0     0
SMALL
GAST_HUCK


@<TRIPOS>ATOM
      1 C02        12.3270   39.0010  -34.5900 C.3       1 GM4        -0.0203
      2 C04         9.8880   39.8540  -34.6940 C.3       1 GM4         0.0353
      3 C05         9.6840   39.0260  -33.2890 C.ar      1 GM4        -0.0197
      4 C06        10.6970   38.1490  -32.8310 C.ar      1 GM4        -0.0550
      5 C11         8.5060   39.1890  -32.5530 C.ar      1 GM4        -0.0342
      6 C12        12.0090   37.9350  -33.6200 C.3       1 GM4        -0.0359
      7 C13        13.1640   37.7360  -32.6360 C.3       1 GM4        -0.0870
      8 C14        11.8310   36.7050  -34.4040 C.3       1 GM4        -0.0346
      9 C15        10.7890   36.8720  -35.5460 C.3       1 GM4        -0.0388
     10 C01        12.7190   40.3550  -33.8060 C.3       1 GM4        -0.0652
     11 C03        11.1980   39.2740  -35.5170 C.3       1 GM4        -0.0121
     12 C07        10.5160   37.4390  -31.6340 C.ar      1 GM4        -0.0193
     13 C08         9.3430   37.6060  -30.9000 C.ar      1 GM4         0.1085
     14 C10         8.3330   38.4780  -31.3640 C.ar      1 GM4        -0.0091
     15 C17         9.8200   38.2410  -36.8860 C.3       1 GM4        -0.0247
     16 C18         9.9910   39.1320  -38.1170 C.2       1 GM4        -0.0650
     17 C19         8.9340   39.5950  -38.7610 C.2       1 GM4        -0.0823
     18 C20         7.5230   39.2450  -38.2830 C.3       1 GM4        -0.0404
     19 C21         9.1140   40.4880  -39.9900 C.3       1 GM4        -0.0404
     20 N16        10.8530   38.0980  -36.2930 N.4       1 GM4         0.2445
     21 O09         9.1640   36.8910  -29.7110 O.3       1 GM4        -0.3300
     22 H1         13.1917   38.6753  -35.1868 H         1 GM4         0.0251
     23 H2         10.0441   40.9192  -34.4680 H         1 GM4         0.0545
     24 H3          8.9885   39.7392  -35.3167 H         1 GM4         0.0545
     25 H4          7.7325   39.8628  -32.9033 H         1 GM4         0.0619
     26 H5         12.9056   36.9385  -31.9238 H         1 GM4         0.0125
     27 H6         13.3444   38.6726  -32.0880 H         1 GM4         0.0125
     28 H7         14.0722   37.4538  -33.1888 H         1 GM4         0.0125
     29 H8         11.4914   35.9038  -33.7311 H         1 GM4         0.0212
     30 H9         12.7983   36.4261  -34.8472 H         1 GM4         0.0212
     31 H10         9.7868   36.8050  -35.0975 H         1 GM4         0.0806
     32 H11        10.9307   36.0413  -36.2529 H         1 GM4         0.0806
     33 H12        12.9548   41.1451  -34.5341 H         1 GM4         0.0226
     34 H13        13.5967   40.1692  -33.1696 H         1 GM4         0.0226
     35 H14        11.8729   40.6742  -33.1797 H         1 GM4         0.0226
     36 H15        11.5240   40.0539  -36.2209 H         1 GM4         0.0878
     37 H16        11.2863   36.7627  -31.2814 H         1 GM4         0.0709
     38 H17         7.4187   38.5957  -30.7937 H         1 GM4         0.0786
     39 H18         9.4549   37.2547  -37.2082 H         1 GM4         0.0888
     40 H19         9.0834   38.7024  -36.2119 H         1 GM4         0.0888
     41 H20        10.9908   39.3868  -38.4654 H         1 GM4         0.0294
     42 H21         6.7835   39.7210  -38.9437 H         1 GM4         0.0375
     43 H22         7.3835   39.6088  -37.2543 H         1 GM4         0.0375
     44 H23         7.3877   38.1536  -38.3075 H         1 GM4         0.0375
     45 H24        10.1870   40.6317  -40.1848 H         1 GM4         0.0375
     46 H25         8.6408   41.4639  -39.8066 H         1 GM4         0.0375
     47 H26         8.6437   40.0105  -40.8623 H         1 GM4         0.0375
     48 H27        11.5840   37.9864  -36.9780 H         1 GM4         0.2045
     49 H28         9.0399   37.4998  -28.9923 H         1 GM4         0.2469
@<TRIPOS>BOND
     1    1    6 1  
     2    1   10 1  
     3   11    1 1  
     4    2    3 1  
     5   11    2 1  
     6    3    4 ar 
     7    3    5 ar 
     8    6    4 1  
     9    4   12 ar 
    10    5   14 ar 
    11    6    7 1  
    12    8    6 1  
    13    9    8 1  
    14   20    9 1  
    15   20   11 1  
    16   12   13 ar 
    17   14   13 ar 
    18   13   21 1  
    19   15   16 1  
    20   15   20 1  
    21   16   17 2  
    22   17   18 1  
    23   17   19 1  
    24    1   22 1  
    25    2   23 1  
    26    2   24 1  
    27    5   25 1  
    28    7   26 1  
    29    7   27 1  
    30    7   28 1  
    31    8   29 1  
    32    8   30 1  
    33    9   31 1  
    34    9   32 1  
    35   10   33 1  
    36   10   34 1  
    37   10   35 1  
    38   11   36 1  
    39   12   37 1  
    40   14   38 1  
    41   15   39 1  
    42   15   40 1  
    43   16   41 1  
    44   18   42 1  
    45   18   43 1  
    46   18   44 1  
    47   19   45 1  
    48   19   46 1  
    49   19   47 1  
    50   20   48 1  
    51   21   49 1  
@<TRIPOS>SUBSTRUCTURE
     1 GM4         1

