### 
### Created by X-TOOL on Wed Jan  1 15:39:38 2020
### 

@<TRIPOS>MOLECULE
6dkb_ligand
   60    63     1     0     0
SMALL
GAST_HUCK


@<TRIPOS>ATOM
      1 C5        -20.4870    2.7100  -28.2680 C.2       1 FKY         0.0504
      2 C6        -19.9840    1.4600  -30.3900 C.3       1 FKY         0.0490
      3 C7        -20.4000    4.5270  -26.4580 C.ar      1 FKY        -0.0060
      4 C8        -19.7790    5.7070  -26.0610 C.ar      1 FKY        -0.0297
      5 C10       -21.2090    5.7470  -24.1540 C.ar      1 FKY         0.1825
      6 C15       -22.7900    6.7660  -21.0150 C.3       1 FKY         0.1520
      7 C20       -21.4960    5.5360  -17.9400 C.2       1 FKY         0.1883
      8 C22       -22.0870    6.5570  -16.9850 C.3       1 FKY         0.0656
      9 C24       -20.3080    7.4070  -15.4150 C.ar      1 FKY        -0.0664
     10 C26       -19.9510    6.4310  -13.2570 C.ar      1 FKY         0.0937
     11 C28       -21.7420    5.6590  -14.6520 C.ar      1 FKY        -0.0664
     12 C1        -19.9930    3.8530  -27.7040 C.2       1 FKY         0.0270
     13 N2        -18.9510    4.4140  -28.5300 N.2       1 FKY        -0.3190
     14 C3        -18.8520    3.6000  -29.5540 C.2       1 FKY         0.1003
     15 N4        -19.7870    2.5460  -29.4280 N.pl3     1 FKY        -0.2499
     16 C9        -20.1750    6.3680  -24.8960 C.ar      1 FKY         0.1025
     17 N11       -21.7970    4.6090  -24.5050 N.ar      1 FKY        -0.2716
     18 C12       -21.4070    4.0240  -25.6460 C.ar      1 FKY         0.0053
     19 O13       -21.6600    6.4300  -23.0710 O.3       1 FKY        -0.2899
     20 C14       -22.2900    5.7160  -21.9800 C.3       1 FKY         0.1203
     21 C16       -23.2520    6.1060  -19.6570 C.3       1 FKY         0.0679
     22 N17       -22.1420    5.3250  -19.1070 N.am      1 FKY        -0.2688
     23 C18       -21.7680    4.2210  -20.0030 C.3       1 FKY         0.0369
     24 C19       -21.2870    4.7560  -21.3520 C.3       1 FKY         0.0017
     25 O21       -20.4260    5.0030  -17.6930 O.2       1 FKY        -0.3943
     26 C23       -21.3840    6.5590  -15.6460 C.ar      1 FKY        -0.0350
     27 C25       -19.5810    7.3390  -14.2370 C.ar      1 FKY        -0.0388
     28 C27       -21.0360    5.5920  -13.4620 C.ar      1 FKY        -0.0388
     29 O29       -19.2460    6.4710  -12.0530 O.3       1 FKY        -0.2302
     30 C30       -18.3740    5.5010  -11.8070 C.3       1 FKY         0.5452
     31 F31       -17.4590    5.3820  -12.7610 F         1 FKY        -0.1401
     32 F32       -17.7670    5.8050  -10.6770 F         1 FKY        -0.1401
     33 F33       -18.9370    4.3200  -11.6360 F         1 FKY        -0.1401
     34 F34       -21.7660    7.6930  -20.7420 F         1 FKY        -0.2402
     35 C35       -19.5940    7.6990  -24.5240 C.2       1 FKY         0.2040
     36 N36       -19.3710    7.9520  -23.2370 N.am      1 FKY        -0.3009
     37 O37       -19.3650    8.5230  -25.4050 O.2       1 FKY        -0.3879
     38 H1        -21.2727    2.0665  -27.8749 H         1 FKY         0.0918
     39 H2        -19.2821    1.5810  -31.2283 H         1 FKY         0.0592
     40 H3        -21.0162    1.4886  -30.7690 H         1 FKY         0.0592
     41 H4        -19.8016    0.4945  -29.8955 H         1 FKY         0.0592
     42 H5        -18.9775    6.1187  -26.6636 H         1 FKY         0.0722
     43 H6        -23.6435    7.2902  -21.4697 H         1 FKY         0.0702
     44 H7        -23.1497    6.3210  -16.8270 H         1 FKY         0.0638
     45 H8        -21.9963    7.5569  -17.4344 H         1 FKY         0.0638
     46 H9        -20.0322    8.1348  -16.1695 H         1 FKY         0.0534
     47 H10       -22.5870    4.9984  -14.8092 H         1 FKY         0.0534
     48 H11       -18.1524    3.7184  -30.3801 H         1 FKY         0.1236
     49 H12       -21.9041    3.1101  -25.9506 H         1 FKY         0.0785
     50 H13       -23.1442    5.1341  -22.3563 H         1 FKY         0.0688
     51 H14       -24.1123    5.4457  -19.8413 H         1 FKY         0.0552
     52 H15       -23.5394    6.8922  -18.9434 H         1 FKY         0.0552
     53 H16       -22.6431    3.5740  -20.1629 H         1 FKY         0.0523
     54 H17       -20.9602    3.6369  -19.5379 H         1 FKY         0.0523
     55 H18       -20.3343    5.2856  -21.2039 H         1 FKY         0.0315
     56 H19       -21.1327    3.9077  -22.0351 H         1 FKY         0.0315
     57 H20       -18.7290    7.9913  -14.0830 H         1 FKY         0.0526
     58 H21       -21.3306    4.8862  -12.6938 H         1 FKY         0.0526
     59 H22       -18.9842    8.8316  -22.9601 H         1 FKY         0.1806
     60 H23       -19.5902    7.2626  -22.5466 H         1 FKY         0.1806
@<TRIPOS>BOND
     1   12    1 2  
     2    1   15 1  
     3   15    2 1  
     4    4    3 ar 
     5    3   12 1  
     6   18    3 ar 
     7   16    4 ar 
     8    5   16 ar 
     9    5   17 ar 
    10   19    5 1  
    11    6   20 1  
    12   21    6 1  
    13    6   34 1  
    14    7    8 1  
    15   22    7 am 
    16    7   25 2  
    17    8   26 1  
    18   26    9 ar 
    19    9   27 ar 
    20   27   10 ar 
    21   28   10 ar 
    22   10   29 1  
    23   26   11 ar 
    24   11   28 ar 
    25   12   13 1  
    26   13   14 2  
    27   14   15 1  
    28   16   35 1  
    29   17   18 ar 
    30   20   19 1  
    31   20   24 1  
    32   21   22 1  
    33   22   23 1  
    34   23   24 1  
    35   29   30 1  
    36   30   31 1  
    37   30   32 1  
    38   30   33 1  
    39   35   36 am 
    40   35   37 2  
    41    1   38 1  
    42    2   39 1  
    43    2   40 1  
    44    2   41 1  
    45    4   42 1  
    46    6   43 1  
    47    8   44 1  
    48    8   45 1  
    49    9   46 1  
    50   11   47 1  
    51   14   48 1  
    52   18   49 1  
    53   20   50 1  
    54   21   51 1  
    55   21   52 1  
    56   23   53 1  
    57   23   54 1  
    58   24   55 1  
    59   24   56 1  
    60   27   57 1  
    61   28   58 1  
    62   36   59 1  
    63   36   60 1  
@<TRIPOS>SUBSTRUCTURE
     1 FKY         1

