### 
### Created by X-TOOL on Wed Jan  1 15:39:36 2020
### 

@<TRIPOS>MOLECULE
6dkg_ligand
   65    67     1     0     0
SMALL
GAST_HUCK


@<TRIPOS>ATOM
      1 C4        -19.7710    5.2180  -25.9940 C.ar      1 GO7        -0.0582
      2 C20       -21.6380    5.9430  -14.9020 C.ar      1 GO7        -0.0664
      3 C16       -20.2050    7.6950  -15.7010 C.ar      1 GO7        -0.0664
      4 C5        -20.2570    3.9810  -26.3690 C.ar      1 GO7        -0.0376
      5 C19       -20.9770    5.9550  -13.6980 C.ar      1 GO7        -0.0388
      6 C17       -19.5420    7.7220  -14.4830 C.ar      1 GO7        -0.0388
      7 C1        -21.8220    4.0770  -24.5600 C.ar      1 GO7         0.0012
      8 C3        -20.2980    5.8980  -24.9060 C.ar      1 GO7         0.0670
      9 C15       -21.2460    6.8030  -15.9070 C.ar      1 GO7        -0.0350
     10 C18       -19.9170    6.8290  -13.4930 C.ar      1 GO7         0.0937
     11 C6        -21.2870    3.4090  -25.6430 C.ar      1 GO7         0.0882
     12 C2        -21.3220    5.3150  -24.1720 C.ar      1 GO7         0.1047
     13 C8        -19.6980    7.2340  -24.5910 C.2       1 GO7         0.1890
     14 C13       -21.4730    5.5470  -18.0250 C.2       1 GO7         0.1883
     15 C12       -21.2980    4.6200  -21.2190 C.3       1 GO7         0.0014
     16 C11       -21.8550    4.0600  -19.9230 C.3       1 GO7         0.0369
     17 C10       -23.3120    5.9850  -19.7330 C.3       1 GO7         0.0679
     18 C7        -22.3610    5.3990  -21.9680 C.3       1 GO7         0.1173
     19 C9        -22.8680    6.5080  -21.0740 C.3       1 GO7         0.1517
     20 C25       -22.9570   -0.3240  -26.9380 C.3       1 GO7        -0.0338
     21 C24       -21.3480   -0.6940  -25.1330 C.3       1 GO7        -0.0338
     22 C14       -21.9590    6.7180  -17.2110 C.3       1 GO7         0.0656
     23 C22       -21.0250    1.2620  -26.6840 C.3       1 GO7         0.0995
     24 C23       -21.4990   -0.1880  -26.5540 C.3       1 GO7         0.0882
     25 C21       -18.4330    5.6990  -12.0280 C.3       1 GO7         0.5452
     26 N2        -22.2850    5.1620  -19.0910 N.am      1 GO7        -0.2688
     27 N1        -19.8680    7.7820  -23.3300 N.am      1 GO7        -0.3035
     28 O2        -19.0560    7.8030  -25.4610 O.2       1 GO7        -0.3959
     29 O3        -20.4120    4.9960  -17.7560 O.2       1 GO7        -0.3943
     30 O6        -20.7200   -1.0120  -27.4310 O.3       1 GO7        -0.3864
     31 O1        -21.8430    6.0700  -23.1150 O.3       1 GO7        -0.3091
     32 O4        -21.8670    2.1720  -25.9340 O.3       1 GO7        -0.3145
     33 O5        -19.2710    6.8500  -12.2570 O.3       1 GO7        -0.2302
     34 F4        -21.8660    7.3960  -20.8460 F         1 GO7        -0.2402
     35 F3        -18.9480    4.4910  -12.3470 F         1 GO7        -0.1401
     36 F2        -18.2060    5.5700  -10.7070 F         1 GO7        -0.1401
     37 F1        -17.2450    5.8210  -12.6660 F         1 GO7        -0.1401
     38 H1        -18.9626    5.6659  -26.5605 H         1 GO7         0.0616
     39 H2        -22.4647    5.2603  -15.0619 H         1 GO7         0.0534
     40 H3        -19.9086    8.3727  -16.4934 H         1 GO7         0.0534
     41 H4        -19.8360    3.4633  -27.2233 H         1 GO7         0.0469
     42 H5        -21.2832    5.2810  -12.9061 H         1 GO7         0.0526
     43 H6        -18.7417    8.4320  -14.3084 H         1 GO7         0.0526
     44 H7        -22.6406    3.6317  -24.0062 H         1 GO7         0.0475
     45 H8        -20.9474    3.7898  -21.8497 H         1 GO7         0.0315
     46 H9        -20.4547    5.2883  -20.9905 H         1 GO7         0.0315
     47 H10       -21.0751    3.4850  -19.4023 H         1 GO7         0.0523
     48 H11       -22.7108    3.4040  -20.1403 H         1 GO7         0.0523
     49 H12       -24.2173    5.3760  -19.8726 H         1 GO7         0.0552
     50 H13       -23.5416    6.8387  -19.0785 H         1 GO7         0.0552
     51 H14       -23.1766    4.7207  -22.2590 H         1 GO7         0.0684
     52 H15       -23.7112    7.0117  -21.5692 H         1 GO7         0.0702
     53 H16       -23.2670   -1.3743  -26.8345 H         1 GO7         0.0258
     54 H17       -23.0930   -0.0027  -27.9812 H         1 GO7         0.0258
     55 H18       -23.5705    0.3061  -26.2773 H         1 GO7         0.0258
     56 H19       -20.2960   -0.6082  -24.8231 H         1 GO7         0.0258
     57 H20       -21.6599   -1.7477  -25.0839 H         1 GO7         0.0258
     58 H21       -21.9783   -0.0932  -24.4609 H         1 GO7         0.0258
     59 H22       -21.7835    7.6450  -17.7765 H         1 GO7         0.0638
     60 H23       -23.0366    6.6014  -17.0233 H         1 GO7         0.0638
     61 H24       -21.0464    1.5499  -27.7454 H         1 GO7         0.0645
     62 H25       -19.9950    1.3354  -26.3048 H         1 GO7         0.0645
     63 H26       -19.4696    8.6735  -23.1144 H         1 GO7         0.1801
     64 H27       -20.3891    7.2860  -22.6354 H         1 GO7         0.1801
     65 H28       -21.0272   -1.9094  -27.3765 H         1 GO7         0.2103
@<TRIPOS>BOND
     1    4    1 ar 
     2    1    8 ar 
     3    2    5 ar 
     4    9    2 ar 
     5    3    6 ar 
     6    9    3 ar 
     7   11    4 ar 
     8    5   10 ar 
     9    6   10 ar 
    10   11    7 ar 
    11    7   12 ar 
    12   12    8 ar 
    13    8   13 1  
    14   22    9 1  
    15   10   33 1  
    16   32   11 1  
    17   12   31 1  
    18   13   27 am 
    19   13   28 2  
    20   14   22 1  
    21   26   14 am 
    22   14   29 2  
    23   15   16 1  
    24   18   15 1  
    25   16   26 1  
    26   19   17 1  
    27   17   26 1  
    28   18   19 1  
    29   31   18 1  
    30   19   34 1  
    31   24   20 1  
    32   24   21 1  
    33   23   24 1  
    34   23   32 1  
    35   24   30 1  
    36   33   25 1  
    37   25   35 1  
    38   25   36 1  
    39   25   37 1  
    40    1   38 1  
    41    2   39 1  
    42    3   40 1  
    43    4   41 1  
    44    5   42 1  
    45    6   43 1  
    46    7   44 1  
    47   15   45 1  
    48   15   46 1  
    49   16   47 1  
    50   16   48 1  
    51   17   49 1  
    52   17   50 1  
    53   18   51 1  
    54   19   52 1  
    55   20   53 1  
    56   20   54 1  
    57   20   55 1  
    58   21   56 1  
    59   21   57 1  
    60   21   58 1  
    61   22   59 1  
    62   22   60 1  
    63   23   61 1  
    64   23   62 1  
    65   27   63 1  
    66   27   64 1  
    67   30   65 1  
@<TRIPOS>SUBSTRUCTURE
     1 GO7         1

