### 
### Created by X-TOOL on Wed Jan  1 15:39:36 2020
### 

@<TRIPOS>MOLECULE
6dki_ligand
   52    54     1     0     0
SMALL
GAST_HUCK


@<TRIPOS>ATOM
      1 C4        -19.0520    6.7680  -25.6360 C.ar      1 GOD         0.0041
      2 C5        -20.6650    6.5210  -23.4430 C.ar      1 GOD         0.1430
      3 C8        -19.7560    7.5780  -23.5860 C.ar      1 GOD         0.1455
      4 C15       -21.0130    6.0510  -18.4120 C.2       1 GOD         0.1885
      5 C20       -20.6060    6.1800  -13.8090 C.ar      1 GOD        -0.0388
      6 C21       -19.5750    7.0920  -13.6190 C.ar      1 GOD         0.0937
      7 C22       -19.2570    7.9910  -14.6180 C.ar      1 GOD        -0.0388
      8 C1        -19.8940    5.6660  -25.5600 C.ar      1 GOD         0.0532
      9 C2        -20.0040    4.5590  -26.5690 C.2       1 GOD         0.2000
     10 C3        -20.7170    5.5590  -24.4410 C.ar      1 GOD        -0.0060
     11 N6        -18.9660    7.6950  -24.6740 N.ar      1 GOD        -0.2892
     12 O7        -21.5620    6.5910  -22.3960 O.3       1 GOD        -0.3034
     13 C9        -22.0690    5.4030  -21.8120 C.3       1 GOD         0.1651
     14 N10       -19.6970    8.5440  -22.6620 N.pl3     1 GOD        -0.3221
     15 C11       -21.1830    5.0240  -20.6260 C.3       1 GOD         0.0703
     16 C12       -23.4540    5.7780  -21.1690 C.3       1 GOD         0.3001
     17 N13       -21.7000    5.8630  -19.5510 N.am      1 GOD        -0.2629
     18 C14       -23.0300    6.3980  -19.8410 C.3       1 GOD         0.1004
     19 C16       -21.6620    6.9490  -17.3750 C.3       1 GOD         0.0656
     20 O17       -19.9250    5.5330  -18.2350 O.2       1 GOD        -0.3943
     21 C18       -20.9530    7.0240  -16.0420 C.ar      1 GOD        -0.0350
     22 C19       -21.2860    6.1550  -15.0140 C.ar      1 GOD        -0.0664
     23 C23       -19.9470    7.9540  -15.8210 C.ar      1 GOD        -0.0664
     24 O24       -18.8600    7.1650  -12.4090 O.3       1 GOD        -0.2302
     25 C25       -18.1710    6.0880  -11.9940 C.3       1 GOD         0.5452
     26 F26       -17.4540    6.4070  -10.9580 F         1 GOD        -0.1401
     27 F27       -17.3410    5.5660  -12.8480 F         1 GOD        -0.1401
     28 F28       -18.9390    5.1170  -11.6060 F         1 GOD        -0.1401
     29 F29       -24.2670    4.6860  -21.0000 F         1 GOD        -0.2001
     30 F30       -24.1510    6.6620  -21.9370 F         1 GOD        -0.2001
     31 O31       -20.7840    3.6250  -26.3990 O.2       1 GOD        -0.3877
     32 N32       -19.2580    4.6420  -27.6690 N.am      1 GOD        -0.2902
     33 C33       -19.4090    3.6950  -28.7610 C.3       1 GOD         0.0189
     34 H1        -18.4334    6.8832  -26.5187 H         1 GOD         0.0736
     35 H2        -20.8764    5.4912  -13.0169 H         1 GOD         0.0526
     36 H3        -18.4719    8.7222  -14.4629 H         1 GOD         0.0526
     37 H4        -21.3997    4.7219  -24.3500 H         1 GOD         0.0656
     38 H5        -22.1500    4.5886  -22.5469 H         1 GOD         0.0729
     39 H6        -19.0279    9.3196  -22.7698 H         1 GOD         0.1753
     40 H7        -20.3207    8.5120  -21.8429 H         1 GOD         0.1753
     41 H8        -20.1268    5.2517  -20.8324 H         1 GOD         0.0554
     42 H9        -21.2867    3.9570  -20.3797 H         1 GOD         0.0554
     43 H10       -23.7362    6.1174  -19.0457 H         1 GOD         0.0583
     44 H11       -22.9905    7.4940  -19.9265 H         1 GOD         0.0583
     45 H12       -22.6817    6.5774  -17.1957 H         1 GOD         0.0638
     46 H13       -21.7103    7.9663  -17.7906 H         1 GOD         0.0638
     47 H14       -22.0922    5.4445  -15.1566 H         1 GOD         0.0534
     48 H15       -19.6961    8.6634  -16.6013 H         1 GOD         0.0534
     49 H16       -18.5789    5.3721  -27.7453 H         1 GOD         0.1839
     50 H17       -18.7001    3.9453  -29.5640 H         1 GOD         0.0483
     51 H18       -20.4366    3.7450  -29.1503 H         1 GOD         0.0483
     52 H19       -19.2045    2.6779  -28.3953 H         1 GOD         0.0483
@<TRIPOS>BOND
     1    8    1 ar 
     2   11    1 ar 
     3    2    3 ar 
     4    2   10 ar 
     5   12    2 1  
     6    3   11 ar 
     7    3   14 1  
     8    4   17 am 
     9   19    4 1  
    10    4   20 2  
    11    5    6 ar 
    12   22    5 ar 
    13    6    7 ar 
    14    6   24 1  
    15    7   23 ar 
    16    8    9 1  
    17   10    8 ar 
    18    9   31 2  
    19    9   32 am 
    20   13   12 1  
    21   15   13 1  
    22   16   13 1  
    23   17   15 1  
    24   18   16 1  
    25   16   29 1  
    26   16   30 1  
    27   17   18 1  
    28   21   19 1  
    29   21   22 ar 
    30   21   23 ar 
    31   24   25 1  
    32   25   26 1  
    33   25   27 1  
    34   25   28 1  
    35   32   33 1  
    36    1   34 1  
    37    5   35 1  
    38    7   36 1  
    39   10   37 1  
    40   13   38 1  
    41   14   39 1  
    42   14   40 1  
    43   15   41 1  
    44   15   42 1  
    45   18   43 1  
    46   18   44 1  
    47   19   45 1  
    48   19   46 1  
    49   22   47 1  
    50   23   48 1  
    51   32   49 1  
    52   33   50 1  
    53   33   51 1  
    54   33   52 1  
@<TRIPOS>SUBSTRUCTURE
     1 GOD         1

