### 
### Created by X-TOOL on Wed Jan  1 15:39:36 2020
### 

@<TRIPOS>MOLECULE
6dko_ligand
   21    21     1     0     0
SMALL
GAST_HUCK


@<TRIPOS>ATOM
      1 C10        35.0820   76.2040   63.5360 C.ar      1 GXG         0.1510
      2 C13        33.0460   74.9430   63.3490 C.ar      1 GXG        -0.0608
      3 C15        33.2030   77.1030   62.3290 C.ar      1 GXG         0.1510
      4 C02        38.0350   80.3600   64.2720 C.2       1 GXG         0.1272
      5 C04        36.8900   80.2890   63.3050 C.2       1 GXG         0.1885
      6 C06        35.7550   79.3430   63.5830 C.3       1 GXG         0.1037
      7 C07        35.3040   78.4720   62.4550 C.2       1 GXG         0.1498
      8 C09        34.5020   77.2360   62.7950 C.ar      1 GXG         0.1018
      9 C12        34.3450   75.0690   63.8100 C.ar      1 GXG        -0.0259
     10 C14        32.4670   75.9610   62.6120 C.ar      1 GXG        -0.0259
     11 F11        36.3310   76.3130   63.9960 F         1 GXG        -0.1781
     12 F16        32.6540   78.0910   61.6100 F         1 GXG        -0.1781
     13 O01        37.8880   80.2080   65.5400 O.co2     1 GXG        -0.5463
     14 O03        39.1560   80.5850   63.7570 O.co2     1 GXG        -0.5463
     15 O05        36.9230   81.0050   62.3010 O.2       1 GXG        -0.3543
     16 O08        35.5720   78.7240   61.2500 O.2       1 GXG        -0.3800
     17 H1         32.4805   74.0440   63.5660 H         1 GXG         0.0635
     18 H2         34.8918   79.9455   63.9022 H         1 GXG         0.0714
     19 H3         36.0669   78.6839   64.4066 H         1 GXG         0.0714
     20 H4         34.7880   74.2688   64.3918 H         1 GXG         0.0582
     21 H5         31.4466   75.8672   62.2585 H         1 GXG         0.0582
@<TRIPOS>BOND
     1    8    1 ar 
     2    1    9 ar 
     3    1   11 1  
     4    9    2 ar 
     5   10    2 ar 
     6    8    3 ar 
     7    3   10 ar 
     8    3   12 1  
     9    5    4 1  
    10    4   13 ar 
    11    4   14 ar 
    12    6    5 1  
    13    5   15 2  
    14    7    6 1  
    15    7    8 1  
    16    7   16 2  
    17    2   17 1  
    18    6   18 1  
    19    6   19 1  
    20    9   20 1  
    21   10   21 1  
@<TRIPOS>SUBSTRUCTURE
     1 GXG         1

