### 
### Created by X-TOOL on Mon Aug  2 16:13:00 2021
### 

@<TRIPOS>MOLECULE
6dl2_ligand
   39    42     1     0     0
SMALL
GAST_HUCK


@<TRIPOS>ATOM
      1 C1         12.1290    3.8950   -0.9380 C.2       1 GUJ         0.1369
      2 C2         12.9990    5.2640    0.5180 C.2       1 GUJ         0.1663
      3 C3         10.5870    5.5610    0.1600 C.2       1 GUJ         0.1457
      4 C4          8.2450    6.4650    0.0390 C.2       1 GUJ        -0.0019
      5 C5          6.8880    6.8520   -0.4640 C.3       1 GUJ        -0.0313
      6 C10         6.6440    3.8520    3.9120 C.ar      1 GUJ        -0.0686
      7 C11         7.0320    3.9350    5.2350 C.ar      1 GUJ        -0.0688
      8 C12         7.7410    5.0380    5.6720 C.ar      1 GUJ        -0.0686
      9 C13         8.0340    6.0710    4.7950 C.ar      1 GUJ        -0.0594
     10 C14        10.1260    6.0900    1.3860 C.2       1 GUJ        -0.0090
     11 C16        13.0420    6.1800    1.7030 C.3       1 GUJ         0.1281
     12 C15        10.8750    6.1690    2.6800 C.3       1 GUJ         0.0673
     13 S           9.3720    5.7270   -1.0630 S.3       1 GUJ        -0.0252
     14 C6          8.7770    6.5900    1.2890 C.2       1 GUJ        -0.0545
     15 O          12.2010    5.6660    2.7260 O.3       1 GUJ        -0.3549
     16 N1         13.9670    4.5160    0.0640 N.2       1 GUJ        -0.2824
     17 N          13.4090    3.6410   -0.8530 N.2       1 GUJ        -0.2846
     18 N2         11.8170    4.9320   -0.0990 N.pl3     1 GUJ        -0.1713
     19 C          11.1630    3.1600   -1.7960 C.3       1 GUJ         0.0150
     20 C7          8.0190    7.0980    2.4870 C.3       1 GUJ        -0.0067
     21 C8          7.6510    6.0000    3.4600 C.ar      1 GUJ        -0.0386
     22 C9          6.9580    4.8740    3.0280 C.ar      1 GUJ        -0.0594
     23 H1          6.3076    7.3011    0.3554 H         1 GUJ         0.0367
     24 H2          6.3661    5.9580   -0.8359 H         1 GUJ         0.0367
     25 H3          6.9939    7.5811   -1.2808 H         1 GUJ         0.0367
     26 H4          6.0927    2.9861    3.5636 H         1 GUJ         0.0599
     27 H5          6.7817    3.1391    5.9271 H         1 GUJ         0.0558
     28 H6          8.0690    5.0956    6.7036 H         1 GUJ         0.0599
     29 H7          8.5675    6.9437    5.1539 H         1 GUJ         0.0557
     30 H8         12.6914    7.1798    1.4072 H         1 GUJ         0.0801
     31 H9         14.0743    6.2491    2.0765 H         1 GUJ         0.0801
     32 H10        10.2907    5.6132    3.4280 H         1 GUJ         0.0644
     33 H11        10.9202    7.2305    2.9649 H         1 GUJ         0.0644
     34 H12        11.6943    2.3801   -2.3612 H         1 GUJ         0.0464
     35 H13        10.6878    3.8616   -2.4973 H         1 GUJ         0.0464
     36 H14        10.3921    2.6943   -1.1644 H         1 GUJ         0.0464
     37 H15         7.0948    7.5820    2.1382 H         1 GUJ         0.0503
     38 H16         8.6443    7.8360    3.0108 H         1 GUJ         0.0503
     39 H17         6.6599    4.7942    1.9888 H         1 GUJ         0.0557
@<TRIPOS>BOND
     1    1   17 2  
     2   18    1 1  
     3    1   19 1  
     4   11    2 1  
     5    2   16 2  
     6   18    2 1  
     7   10    3 2  
     8    3   13 1  
     9    3   18 1  
    10    4    5 1  
    11    4   13 1  
    12   14    4 2  
    13    7    6 ar 
    14    6   22 ar 
    15    8    7 ar 
    16    9    8 ar 
    17   21    9 ar 
    18   10   12 1  
    19   14   10 1  
    20   15   11 1  
    21   12   15 1  
    22   20   14 1  
    23   16   17 1  
    24   20   21 1  
    25   21   22 ar 
    26    5   23 1  
    27    5   24 1  
    28    5   25 1  
    29    6   26 1  
    30    7   27 1  
    31    8   28 1  
    32    9   29 1  
    33   11   30 1  
    34   11   31 1  
    35   12   32 1  
    36   12   33 1  
    37   19   34 1  
    38   19   35 1  
    39   19   36 1  
    40   20   37 1  
    41   20   38 1  
    42   22   39 1  
@<TRIPOS>SUBSTRUCTURE
     1 GUJ         1

