### 
### Created by X-TOOL on Wed Jan  1 15:39:35 2020
### 

@<TRIPOS>MOLECULE
6dl9_ligand
   21    21     1     0     0
SMALL
GAST_HUCK


@<TRIPOS>ATOM
      1 C10        32.9120   76.0900   61.5600 C.ar      1 GXD         0.0600
      2 C13        32.6410   73.9040   62.5720 C.ar      1 GXD        -0.0564
      3 C15        34.6390   75.1950   62.9430 C.ar      1 GXD         0.0600
      4 C02        37.6000   79.5010   63.6980 C.2       1 GXD         0.1273
      5 C04        36.5580   79.3020   62.6760 C.2       1 GXD         0.1887
      6 C06        35.5370   78.2530   62.9880 C.3       1 GXD         0.1051
      7 C07        35.0040   77.4590   61.8300 C.2       1 GXD         0.1517
      8 C09        34.1720   76.2470   62.1250 C.ar      1 GXD         0.0624
      9 C12        32.1580   74.9380   61.7740 C.ar      1 GXD        -0.0419
     10 C14        33.8970   74.0360   63.1530 C.ar      1 GXD        -0.0419
     11 O01        38.8510   79.4520   63.1790 O.co2     1 GXD        -0.5463
     12 O03        37.4600   78.9970   64.8340 O.co2     1 GXD        -0.5463
     13 O05        36.7230   79.8950   61.6080 O.2       1 GXD        -0.3543
     14 O08        35.2680   77.8110   60.6740 O.2       1 GXD        -0.3751
     15 CL1        32.2660   77.3170   60.5980 Cl        1 GXD        -0.0644
     16 CL2        36.1770   75.2410   63.6370 Cl        1 GXD        -0.0644
     17 H1         32.0479   73.0118   62.7372 H         1 GXD         0.0654
     18 H2         34.6834   78.7526   63.4694 H         1 GXD         0.0716
     19 H3         35.9935   77.5445   63.6948 H         1 GXD         0.0716
     20 H4         31.1814   74.8453   61.3127 H         1 GXD         0.0637
     21 H5         34.2976   73.2384   63.7681 H         1 GXD         0.0637
@<TRIPOS>BOND
     1    8    1 ar 
     2    1    9 ar 
     3    1   15 1  
     4    9    2 ar 
     5   10    2 ar 
     6    8    3 ar 
     7    3   10 ar 
     8    3   16 1  
     9    5    4 1  
    10    4   11 ar 
    11    4   12 ar 
    12    6    5 1  
    13    5   13 2  
    14    7    6 1  
    15    7    8 1  
    16    7   14 2  
    17    2   17 1  
    18    6   18 1  
    19    6   19 1  
    20    9   20 1  
    21   10   21 1  
@<TRIPOS>SUBSTRUCTURE
     1 GXD         1

