### 
### Created by X-TOOL on Wed Jan  1 15:39:36 2020
### 

@<TRIPOS>MOLECULE
6dlj_ligand
   23    23     1     0     0
SMALL
GAST_HUCK


@<TRIPOS>ATOM
      1 C10        33.2620   76.5900   61.9580 C.ar      1 GXM         0.1542
      2 C15        33.4480   74.4090   62.9520 C.ar      1 GXM        -0.0498
      3 C17        35.1290   76.1010   63.3640 C.ar      1 GXM        -0.0368
      4 C02        35.1290   78.4130   62.3950 C.2       1 GXM         0.1350
      5 C03        36.1820   78.8380   63.2920 C.2       1 GXM         0.0259
      6 C04        36.8340   80.0150   63.1320 C.2       1 GXM         0.2096
      7 C05        38.1090   80.2250   63.8800 C.2       1 GXM         0.4214
      8 C09        34.4760   77.0430   62.5690 C.ar      1 GXM         0.0632
      9 C14        32.7620   75.2870   62.1490 C.ar      1 GXM        -0.0189
     10 C16        34.6290   74.8190   63.5500 C.ar      1 GXM        -0.0513
     11 N11        32.5120   77.4800   61.0900 N.2       1 GXM         0.0465
     12 O01        35.1150   78.9160   61.2760 O.2       1 GXM        -0.3882
     13 O06        39.1520   80.2700   63.0270 O.co2     1 GXM        -0.2431
     14 O07        38.3000   79.8290   65.0310 O.co2     1 GXM        -0.2431
     15 O08        36.6730   80.9400   62.1370 O.3       1 GXM        -0.3059
     16 O12        31.5020   77.0350   60.3560 O.2       1 GXM        -0.1481
     17 O13        32.6380   78.6360   61.0020 O.2       1 GXM        -0.1481
     18 H1         33.0698   73.4065   63.1162 H         1 GXM         0.0666
     19 H2         36.0562   76.3786   63.8521 H         1 GXM         0.0682
     20 H3         36.4595   78.1908   64.1227 H         1 GXM         0.0447
     21 H4         31.8419   74.9793   61.6654 H         1 GXM         0.0702
     22 H5         35.1747   74.1233   64.1771 H         1 GXM         0.0670
     23 H6         35.8543   80.7766   61.6837 H         1 GXM         0.2610
@<TRIPOS>BOND
     1    8    1 ar 
     2    1    9 ar 
     3    1   11 1  
     4    9    2 ar 
     5   10    2 ar 
     6    8    3 ar 
     7    3   10 ar 
     8    4    5 1  
     9    4    8 1  
    10    4   12 2  
    11    5    6 2  
    12    6    7 1  
    13    6   15 1  
    14    7   13 ar 
    15    7   14 ar 
    16   11   16 2  
    17   11   17 2  
    18    2   18 1  
    19    3   19 1  
    20    5   20 1  
    21    9   21 1  
    22   10   22 1  
    23   15   23 1  
@<TRIPOS>SUBSTRUCTURE
     1 GXM         1

