### 
### Created by X-TOOL on Wed Jan  1 15:39:37 2020
### 

@<TRIPOS>MOLECULE
6dlx_ligand
   22    22     1     0     0
SMALL
GAST_HUCK


@<TRIPOS>ATOM
      1 CAA        46.8410   20.7850   47.3440 C.3       1 GXY         0.0541
      2 CAC        45.9030   20.5210   45.2700 C.ar      1 GXY         0.0996
      3 CAD        46.7220   20.7950   44.1800 C.ar      1 GXY        -0.0434
      4 CAE        46.1950   21.4800   43.0880 C.ar      1 GXY         0.0177
      5 CAF        44.8620   21.8800   43.1030 C.ar      1 GXY         0.0778
      6 CAG        44.0400   21.6050   44.1910 C.ar      1 GXY        -0.0214
      7 CAH        44.5730   20.9220   45.2750 C.ar      1 GXY         0.0603
      8 CAK        44.1620   23.9190   42.3050 C.3       1 GXY         0.0576
      9 NAI        43.8570   20.6200   46.3540 N.pl3     1 GXY        -0.3403
     10 OAB        46.3460   19.8570   46.3720 O.3       1 GXY        -0.3334
     11 OAJ        44.4160   22.5430   42.0010 O.3       1 GXY        -0.3295
     12 BR         47.2770   21.8650   41.6020 Br        1 GXY        -0.0726
     13 H1         47.1954   20.2354   48.2285 H         1 GXY         0.0568
     14 H2         46.0345   21.4726   47.6385 H         1 GXY         0.0568
     15 H3         47.6733   21.3597   46.9117 H         1 GXY         0.0568
     16 H4         47.7589   20.4790   44.1804 H         1 GXY         0.0501
     17 H5         43.0023   21.9184   44.1920 H         1 GXY         0.0414
     18 H6         43.8033   24.4339   41.4016 H         1 GXY         0.0575
     19 H7         45.0903   24.3948   42.6540 H         1 GXY         0.0575
     20 H8         43.3972   23.9854   43.0929 H         1 GXY         0.0575
     21 H9         44.2936   20.1114   47.1361 H         1 GXY         0.1695
     22 H10        42.8657   20.8946   46.4077 H         1 GXY         0.1695
@<TRIPOS>BOND
     1   10    1 1  
     2    2    3 ar 
     3    2    7 ar 
     4    2   10 1  
     5    3    4 ar 
     6    4    5 ar 
     7    4   12 1  
     8    5    6 ar 
     9    5   11 1  
    10    6    7 ar 
    11    7    9 1  
    12   11    8 1  
    13    1   13 1  
    14    1   14 1  
    15    1   15 1  
    16    3   16 1  
    17    6   17 1  
    18    8   18 1  
    19    8   19 1  
    20    8   20 1  
    21    9   21 1  
    22    9   22 1  
@<TRIPOS>SUBSTRUCTURE
     1 GXY         1

