### 
### Created by X-TOOL on Wed Jan  1 15:39:38 2020
### 

@<TRIPOS>MOLECULE
6dm8_ligand
   88    94     1     0     0
SMALL
GAST_HUCK


@<TRIPOS>ATOM
      1 C14      -199.6380   -4.3950   23.1890 C.3       1 6AK         0.0506
      2 C11      -198.5080   -3.8950   25.3720 C.2       1 6AK         0.1355
      3 C10      -197.3950   -5.6790   29.6640 C.3       1 6AK         0.0716
      4 C12      -197.6800   -2.8400   24.8100 C.2       1 6AK         0.2456
      5 C13      -199.7920   -2.0270   23.6840 C.3       1 6AK         0.0574
      6 C01      -200.2980   -5.2760   25.4680 C.ar      1 6AK         0.0667
      7 C02      -201.5150   -5.9910   25.2720 C.ar      1 6AK        -0.0057
      8 C03      -202.0710   -6.5960   26.4080 C.ar      1 6AK         0.0228
      9 CL       -203.5350   -7.4650   26.2310 Cl        1 6AK        -0.0859
     10 C04      -201.5010   -6.5370   27.6800 C.ar      1 6AK        -0.0717
     11 C05      -200.3130   -5.8300   27.8460 C.ar      1 6AK        -0.0782
     12 C06      -199.7060   -5.2000   26.7420 C.ar      1 6AK        -0.0169
     13 C07      -198.5150   -4.4330   26.6510 C.2       1 6AK        -0.0212
     14 C08      -197.7600   -3.9380   27.8500 C.3       1 6AK        -0.0267
     15 C09      -196.8390   -5.0120   28.4160 C.3       1 6AK        -0.0186
     16 O01      -196.8450   -6.9810   29.6230 O.3       1 6AK        -0.3210
     17 O02      -196.4760   -2.7630   25.0560 O.2       1 6AK        -0.3806
     18 N01      -198.3680   -1.9320   23.9730 N.am      1 6AK        -0.2223
     19 N02      -199.4590   -4.5640   24.6340 N.pl3     1 6AK        -0.2630
     20 C15      -200.2060   -3.0880   22.6900 C.3       1 6AK        -0.0014
     21 N03      -203.5990   -5.5790   22.4080 N.pl3     1 6AK        -0.2130
     22 C16      -204.5620   -4.8800   21.5870 C.3       1 6AK         0.0567
     23 C17      -203.1090   -5.1500   23.6050 C.2       1 6AK         0.0755
     24 C18      -203.5440   -3.8600   24.2030 C.3       1 6AK         0.0007
     25 C19      -202.2230   -6.1410   24.0160 C.2       1 6AK         0.0028
     26 C20      -202.2470   -7.1250   22.9960 C.2       1 6AK         0.0052
     27 C21      -201.4950   -8.4010   22.9110 C.3       1 6AK        -0.0288
     28 N04      -203.0970   -6.7700   22.0140 N.2       1 6AK        -0.2368
     29 C22      -197.6390   -9.9320   32.4390 C.ar      1 6AK         0.0295
     30 CL2      -197.9660  -11.1710   33.5990 Cl        1 6AK        -0.0937
     31 C23      -197.7520   -8.5870   32.8320 C.ar      1 6AK        -0.0474
     32 C24      -198.1480   -8.2220   34.2380 C.3       1 6AK        -0.0345
     33 C25      -197.4860   -7.5890   31.8780 C.ar      1 6AK        -0.0385
     34 C26      -197.1140   -7.9140   30.5750 C.ar      1 6AK         0.0784
     35 C27      -197.0100   -9.2610   30.1950 C.ar      1 6AK        -0.0385
     36 C28      -197.2680  -10.2920   31.1270 C.ar      1 6AK        -0.0474
     37 C29      -197.1520  -11.7430   30.7290 C.3       1 6AK        -0.0345
     38 C30      -196.1550    1.0600   21.9100 C.ar      1 6AK        -0.0458
     39 C31      -195.8960   -0.3080   21.7620 C.ar      1 6AK        -0.0203
     40 C32      -194.8240   -0.7790   20.8640 C.2       1 6AK         0.0521
     41 O03      -194.6060   -1.9370   20.5430 O.co2     1 6AK        -0.5629
     42 O04      -194.0800    0.2440   20.4170 O.co2     1 6AK        -0.5629
     43 C33      -196.6510   -1.2290   22.4590 C.ar      1 6AK        -0.0452
     44 C34      -197.6940   -0.8450   23.3430 C.ar      1 6AK         0.0631
     45 C35      -197.9760    0.5470   23.5050 C.ar      1 6AK         0.0007
     46 C36      -197.1950    1.4590   22.7800 C.ar      1 6AK         0.0567
     47 N05      -197.6420    2.7290   23.1020 N.pl3     1 6AK        -0.2743
     48 C37      -197.0690    3.9290   22.5440 C.3       1 6AK         0.0394
     49 C38      -198.6750    2.6850   23.9930 C.2       1 6AK         0.0187
     50 C39      -198.8990    1.3490   24.2570 C.2       1 6AK        -0.0668
     51 H1       -200.3113   -5.1950   22.8477 H         1 6AK         0.0593
     52 H2       -198.6508   -4.5219   22.7207 H         1 6AK         0.0593
     53 H3       -198.4939   -5.7165   29.6320 H         1 6AK         0.0615
     54 H4       -197.0725   -5.1456   30.5704 H         1 6AK         0.0615
     55 H5       -200.1195   -1.0535   23.2903 H         1 6AK         0.0589
     56 H6       -200.3127   -2.2337   24.6306 H         1 6AK         0.0589
     57 H7       -201.9731   -7.0312   28.5214 H         1 6AK         0.0503
     58 H8       -199.8546   -5.7643   28.8261 H         1 6AK         0.0492
     59 H9       -198.4795   -3.6394   28.6266 H         1 6AK         0.0381
     60 H10      -197.1550   -3.0675   27.5565 H         1 6AK         0.0381
     61 H11      -196.6858   -5.7826   27.6462 H         1 6AK         0.0309
     62 H12      -195.8739   -4.5481   28.6677 H         1 6AK         0.0309
     63 H13      -201.3029   -3.1479   22.6343 H         1 6AK         0.0315
     64 H14      -199.8006   -2.8538   21.6946 H         1 6AK         0.0315
     65 H15      -204.7667   -5.4685   20.6805 H         1 6AK         0.0591
     66 H16      -204.1570   -3.8976   21.3027 H         1 6AK         0.0591
     67 H17      -205.4950   -4.7421   22.1531 H         1 6AK         0.0591
     68 H18      -203.0290   -3.7088   25.1632 H         1 6AK         0.0453
     69 H19      -204.6311   -3.8810   24.3694 H         1 6AK         0.0453
     70 H20      -203.2936   -3.0358   23.5189 H         1 6AK         0.0453
     71 H21      -201.7579   -8.9200   21.9775 H         1 6AK         0.0379
     72 H22      -201.7544   -9.0374   23.7699 H         1 6AK         0.0379
     73 H23      -200.4152   -8.1917   22.9225 H         1 6AK         0.0379
     74 H24      -198.1781   -7.1270   34.3379 H         1 6AK         0.0390
     75 H25      -197.4130   -8.6345   34.9448 H         1 6AK         0.0390
     76 H26      -199.1422   -8.6377   34.4586 H         1 6AK         0.0390
     77 H27      -197.5720   -6.5463   32.1617 H         1 6AK         0.0424
     78 H28      -196.7296   -9.5128   29.1786 H         1 6AK         0.0424
     79 H29      -197.3921  -12.3804   31.5927 H         1 6AK         0.0390
     80 H30      -196.1249  -11.9505   30.3945 H         1 6AK         0.0390
     81 H31      -197.8545  -11.9558   29.9098 H         1 6AK         0.0390
     82 H32      -195.5712    1.7964   21.3696 H         1 6AK         0.0437
     83 H33      -196.4403   -2.2841   22.3270 H         1 6AK         0.0399
     84 H34      -197.5907    4.8079   22.9508 H         1 6AK         0.0564
     85 H35      -197.1773    3.9124   21.4495 H         1 6AK         0.0564
     86 H36      -196.0020    3.9821   22.8062 H         1 6AK         0.0564
     87 H37      -199.2141    3.5336   24.4115 H         1 6AK         0.0883
     88 H38      -199.6601    0.9621   24.9329 H         1 6AK         0.0282
@<TRIPOS>BOND
     1    1   19 1  
     2   20    1 1  
     3    4    2 1  
     4    2   13 2  
     5    2   19 1  
     6   15    3 1  
     7    3   16 1  
     8    4   17 2  
     9   18    4 am 
    10   18    5 1  
    11    5   20 1  
    12    6    7 ar 
    13    6   12 ar 
    14   19    6 1  
    15    7    8 ar 
    16    7   25 1  
    17    8    9 1  
    18    8   10 ar 
    19   11   10 ar 
    20   12   11 ar 
    21   13   12 1  
    22   13   14 1  
    23   14   15 1  
    24   16   34 1  
    25   44   18 1  
    26   21   22 1  
    27   23   21 1  
    28   28   21 1  
    29   23   24 1  
    30   25   23 2  
    31   25   26 1  
    32   26   27 1  
    33   26   28 2  
    34   29   30 1  
    35   31   29 ar 
    36   36   29 ar 
    37   31   32 1  
    38   33   31 ar 
    39   34   33 ar 
    40   34   35 ar 
    41   35   36 ar 
    42   36   37 1  
    43   39   38 ar 
    44   38   46 ar 
    45   39   40 1  
    46   43   39 ar 
    47   40   41 ar 
    48   40   42 ar 
    49   43   44 ar 
    50   44   45 ar 
    51   45   46 ar 
    52   45   50 1  
    53   46   47 1  
    54   47   48 1  
    55   47   49 1  
    56   49   50 2  
    57    1   51 1  
    58    1   52 1  
    59    3   53 1  
    60    3   54 1  
    61    5   55 1  
    62    5   56 1  
    63   10   57 1  
    64   11   58 1  
    65   14   59 1  
    66   14   60 1  
    67   15   61 1  
    68   15   62 1  
    69   20   63 1  
    70   20   64 1  
    71   22   65 1  
    72   22   66 1  
    73   22   67 1  
    74   24   68 1  
    75   24   69 1  
    76   24   70 1  
    77   27   71 1  
    78   27   72 1  
    79   27   73 1  
    80   32   74 1  
    81   32   75 1  
    82   32   76 1  
    83   33   77 1  
    84   35   78 1  
    85   37   79 1  
    86   37   80 1  
    87   37   81 1  
    88   38   82 1  
    89   43   83 1  
    90   48   84 1  
    91   48   85 1  
    92   48   86 1  
    93   49   87 1  
    94   50   88 1  
@<TRIPOS>SUBSTRUCTURE
     1 6AK         1

