### 
### Created by X-TOOL on Mon Aug  2 16:13:00 2021
### 

@<TRIPOS>MOLECULE
6dn5_ligand
  106   109     1     0     0
SMALL
GAST_HUCK


@<TRIPOS>ATOM
      1 N           5.0640   95.3500  146.6170 N.am      1 TRP        -0.1043
      2 CA          3.6590   95.4140  146.1880 C.3       1 TRP         0.2923
      3 C           3.4380   96.1140  144.8430 C.2       1 TRP         0.2608
      4 O           2.3680   96.7000  144.6280 O.2       1 TRP        -0.3388
      5 CB          2.7570   96.0300  147.2650 C.3       1 TRP         0.0274
      6 CG          3.1560   97.4090  147.6820 C.2       1 TRP        -0.0422
      7 CD1         2.6880   98.5950  147.1860 C.2       1 TRP         0.0165
      8 CD2         4.0940   97.7410  148.7100 C.ar      1 TRP        -0.0216
      9 NE1         3.2690   99.6450  147.8540 N.pl3     1 TRP        -0.2891
     10 CE2         4.1640   99.1490  148.7720 C.ar      1 TRP         0.0603
     11 CE3         4.9040   96.9760  149.5750 C.ar      1 TRP        -0.0747
     12 CZ2         5.0010   99.8140  149.6740 C.ar      1 TRP        -0.0443
     13 CZ3         5.7130   97.6350  150.4890 C.ar      1 TRP        -0.0792
     14 CH2         5.7630   99.0350  150.5270 C.ar      1 TRP        -0.0768
     15 N           4.4060   95.9930  143.9070 N.am      1 TRP        -0.2590
     16 CA          4.2650   96.5820  142.5900 C.3       1 TRP         0.1425
     17 C           3.2190   95.7850  141.7370 C.2       1 TRP         0.2058
     18 O           2.6310   94.7930  142.2010 O.2       1 TRP        -0.3942
     19 CB          5.6570   96.7930  141.9110 C.3       1 TRP         0.0408
     20 CG          6.3210   95.6310  141.1600 C.2       1 TRP         0.0393
     21 OD1         5.8880   94.4740  141.3350 O.co2     1 TRP        -0.5688
     22 OD2         7.2710   95.8870  140.4070 O.co2     1 TRP        -0.5688
     23 N           2.9390   96.2670  140.5320 N.am      1 TRP        -0.2633
     24 CA          1.9480   95.6560  139.6340 C.3       1 TRP         0.1335
     25 C           2.1680   94.1000  139.4380 C.2       1 TRP         0.2043
     26 O           1.1960   93.3570  139.2930 O.2       1 TRP        -0.3944
     27 CB          1.9350   96.4630  138.2970 C.3       1 TRP        -0.0037
     28 CG1         0.7450   96.0790  137.4080 C.3       1 TRP        -0.0491
     29 CG2         3.2890   96.3670  137.5320 C.3       1 TRP        -0.0582
     30 CD1         0.4970   97.0100  136.2340 C.3       1 TRP        -0.0648
     31 N           3.4380   93.6270  139.4920 N.am      1 TRP        -0.2616
     32 CA          3.8040   92.2230  139.2830 C.3       1 TRP         0.1476
     33 C           4.1010   91.4550  140.5580 C.2       1 TRP         0.2064
     34 O           4.7770   90.4110  140.5070 O.2       1 TRP        -0.3942
     35 CB          4.9630   92.1210  138.2800 C.3       1 TRP         0.0773
     36 CG          4.4860   92.3430  136.8580 C.2       1 TRP         0.1780
     37 OD1         3.4310   91.8280  136.4550 O.2       1 TRP        -0.3970
     38 ND2         5.2670   93.0700  136.0470 N.am      1 TRP        -0.3007
     39 N           3.5540   91.9370  141.7080 N.am      1 TRP        -0.2615
     40 CA          3.7120   91.2830  143.0110 C.3       1 TRP         0.1476
     41 C           5.2020   91.1700  143.4230 C.2       1 TRP         0.2064
     42 O           5.6620   90.1290  143.9090 O.2       1 TRP        -0.3942
     43 CB          3.0010   89.9290  143.0030 C.3       1 TRP         0.0773
     44 CG          2.7890   89.3120  144.3590 C.2       1 TRP         0.1780
     45 OD1         2.3310   89.9470  145.3140 O.2       1 TRP        -0.3970
     46 ND2         3.0720   88.0230  144.4560 N.am      1 TRP        -0.3007
     47 N           5.9550   92.2570  143.2090 N.am      1 TRP        -0.2615
     48 CA          7.3750   92.2850  143.5480 C.3       1 TRP         0.1474
     49 C           7.6470   93.5390  144.3500 C.2       1 TRP         0.2041
     50 O           7.1120   94.5880  143.9850 O.2       1 TRP        -0.3944
     51 CB          8.2150   92.3090  142.2740 C.3       1 TRP         0.0773
     52 CG          8.0750   91.0960  141.4070 C.2       1 TRP         0.1780
     53 OD1         8.3170   89.9620  141.8410 O.2       1 TRP        -0.3970
     54 ND2         7.8370   91.3280  140.1240 N.am      1 TRP        -0.3007
     55 N           8.2620   93.6370  145.5770 N.am      1 TRP        -0.2827
     56 CB          8.1830   94.7810  146.5480 C.3       1 TRP         0.0477
     57 CA          7.1510   94.5750  147.6560 C.3       1 TRP         0.0592
     58 C           5.7670   94.2900  147.1200 C.2       1 TRP         0.2058
     59 O           5.3070   93.1440  147.1210 O.2       1 TRP        -0.3967
     60 OXT         5.0600   95.1960  146.6670 O.3       1 TRP        -0.2107
     61 H1          2.7848   95.3797  148.1518 H         1 TRP         0.0388
     62 H2          1.7302   96.0716  146.8728 H         1 TRP         0.0388
     63 H3          1.9618   98.6922  146.3803 H         1 TRP         0.0795
     64 H4          3.0670  100.6421  147.6933 H         1 TRP         0.2216
     65 H5          4.8945   95.8931  149.5264 H         1 TRP         0.0540
     66 H6          5.0508  100.8965  149.7037 H         1 TRP         0.0541
     67 H7          6.3146   97.0594  151.1831 H         1 TRP         0.0510
     68 H8          6.4158   99.5205  151.2434 H         1 TRP         0.0530
     69 H9          5.2387   95.4854  144.1284 H         1 TRP         0.1891
     70 H10         3.8413   97.5871  142.7323 H         1 TRP         0.0821
     71 H11         6.3550   97.1008  142.7035 H         1 TRP         0.0479
     72 H12         5.5381   97.6134  141.1880 H         1 TRP         0.0479
     73 H13         3.4248   97.0837  140.2206 H         1 TRP         0.1883
     74 H14         0.9589   95.7755  140.1003 H         1 TRP         0.0803
     75 H15         1.8002   97.5205  138.5680 H         1 TRP         0.0345
     76 H16        -0.1598   96.0695  138.0335 H         1 TRP         0.0267
     77 H17         0.9269   95.0694  137.0109 H         1 TRP         0.0267
     78 H18         4.1114   96.6501  138.2054 H         1 TRP         0.0235
     79 H19         3.2713   97.0481  136.6684 H         1 TRP         0.0235
     80 H20         3.4402   95.3351  137.1822 H         1 TRP         0.0235
     81 H21        -0.3711   96.6534  135.6603 H         1 TRP         0.0230
     82 H22         1.3845   97.0254  135.5844 H         1 TRP         0.0230
     83 H23         0.2979   98.0255  136.6070 H         1 TRP         0.0230
     84 H24         4.1718   94.2778  139.6869 H         1 TRP         0.1885
     85 H25         2.9318   91.7352  138.8232 H         1 TRP         0.0826
     86 H26         5.4133   91.1201  138.3541 H         1 TRP         0.0551
     87 H27         5.7179   92.8820  138.5270 H         1 TRP         0.0551
     88 H28         4.9868   93.2385  135.1020 H         1 TRP         0.1814
     89 H29         6.1299   93.4439  136.3869 H         1 TRP         0.1814
     90 H30         3.0174   92.7796  141.6617 H         1 TRP         0.1885
     91 H31         3.2149   91.9133  143.7631 H         1 TRP         0.0826
     92 H32         3.6025   89.2316  142.4015 H         1 TRP         0.0551
     93 H33         2.0161   90.0639  142.5322 H         1 TRP         0.0551
     94 H34         2.9538   87.5495  145.3288 H         1 TRP         0.1814
     95 H35         3.4040   87.5224  143.6565 H         1 TRP         0.1814
     96 H36         5.5339   93.0700  142.8068 H         1 TRP         0.1885
     97 H37         7.6332   91.3965  144.1429 H         1 TRP         0.0826
     98 H38         9.2722   92.4031  142.5628 H         1 TRP         0.0551
     99 H39         7.9165   93.1879  141.6837 H         1 TRP         0.0551
    100 H40         7.7325   90.5630  139.4885 H         1 TRP         0.1814
    101 H41         7.7619   92.2681  139.7914 H         1 TRP         0.1814
    102 H42         8.8254   92.8586  145.8539 H         1 TRP         0.1853
    103 H43         7.9177   95.6917  145.9911 H         1 TRP         0.0545
    104 H44         9.1712   94.9106  147.0134 H         1 TRP         0.0545
    105 H45         7.1091   95.4858  148.2714 H         1 TRP         0.0522
    106 H46         7.4686   93.7259  148.2790 H         1 TRP         0.0522
@<TRIPOS>BOND
     1    1    2 1  
     2    1   58 am 
     3    1   60 1  
     4    2    3 1  
     5    2    5 1  
     6    2   60 1  
     7    3    4 2  
     8    3   15 am 
     9    5    6 1  
    10    6    7 2  
    11    6    8 1  
    12    7    9 1  
    13    8   10 ar 
    14    8   11 ar 
    15    9   10 1  
    16   10   12 ar 
    17   11   13 ar 
    18   12   14 ar 
    19   13   14 ar 
    20   15   16 1  
    21   16   17 1  
    22   16   19 1  
    23   17   18 2  
    24   17   23 am 
    25   19   20 1  
    26   20   21 ar 
    27   20   22 ar 
    28   23   24 1  
    29   24   25 1  
    30   24   27 1  
    31   25   26 2  
    32   25   31 am 
    33   27   28 1  
    34   27   29 1  
    35   28   30 1  
    36   31   32 1  
    37   32   33 1  
    38   32   35 1  
    39   33   34 2  
    40   33   39 am 
    41   35   36 1  
    42   36   37 2  
    43   36   38 am 
    44   39   40 1  
    45   40   41 1  
    46   40   43 1  
    47   41   42 2  
    48   41   47 am 
    49   43   44 1  
    50   44   45 2  
    51   44   46 am 
    52   47   48 1  
    53   48   49 1  
    54   48   51 1  
    55   49   50 2  
    56   49   55 am 
    57   51   52 1  
    58   52   53 2  
    59   52   54 am 
    60   55   56 1  
    61   56   57 1  
    62   57   58 1  
    63   58   59 2  
    64    5   61 1  
    65    5   62 1  
    66    7   63 1  
    67    9   64 1  
    68   11   65 1  
    69   12   66 1  
    70   13   67 1  
    71   14   68 1  
    72   15   69 1  
    73   16   70 1  
    74   19   71 1  
    75   19   72 1  
    76   23   73 1  
    77   24   74 1  
    78   27   75 1  
    79   28   76 1  
    80   28   77 1  
    81   29   78 1  
    82   29   79 1  
    83   29   80 1  
    84   30   81 1  
    85   30   82 1  
    86   30   83 1  
    87   31   84 1  
    88   32   85 1  
    89   35   86 1  
    90   35   87 1  
    91   38   88 1  
    92   38   89 1  
    93   39   90 1  
    94   40   91 1  
    95   43   92 1  
    96   43   93 1  
    97   46   94 1  
    98   46   95 1  
    99   47   96 1  
   100   48   97 1  
   101   51   98 1  
   102   51   99 1  
   103   54  100 1  
   104   54  101 1  
   105   55  102 1  
   106   56  103 1  
   107   56  104 1  
   108   57  105 1  
   109   57  106 1  
@<TRIPOS>SUBSTRUCTURE
     1 TRP         1

