### 
### Created by X-TOOL on Mon Aug  2 16:13:00 2021
### 

@<TRIPOS>MOLECULE
6dn6_ligand
   74    74     1     0     0
SMALL
GAST_HUCK


@<TRIPOS>ATOM
      1 N          13.6090   10.1110   10.0510 N.am      1 ILE        -0.2654
      2 CA         14.1240    9.5520    8.8110 C.3       1 ILE         0.1334
      3 C          13.0050    9.5590    7.7580 C.2       1 ILE         0.2043
      4 O          11.8520    9.8770    8.0670 O.2       1 ILE        -0.3944
      5 CB         14.7060    8.1180    8.9930 C.3       1 ILE        -0.0037
      6 CG1        13.5930    7.1050    9.3990 C.3       1 ILE        -0.0491
      7 CG2        15.9060    8.1260    9.9850 C.3       1 ILE        -0.0582
      8 CD1        14.0230    5.5940    9.2710 C.3       1 ILE        -0.0648
      9 N          13.3650    9.1600    6.5300 N.am      1 ILE        -0.2616
     10 CA         12.3930    9.1120    5.4130 C.3       1 ILE         0.1476
     11 C          11.7520   10.4770    5.1460 C.2       1 ILE         0.2064
     12 O          10.6310   10.5460    4.6180 O.2       1 ILE        -0.3942
     13 CB         11.3150    8.0060    5.6310 C.3       1 ILE         0.0773
     14 CG         11.8760    6.6460    5.3220 C.2       1 ILE         0.1780
     15 OD1        12.5980    6.4760    4.3300 O.2       1 ILE        -0.3970
     16 ND2        11.5210    5.6530    6.1430 N.am      1 ILE        -0.3007
     17 N          12.4870   11.5830    5.4930 N.am      1 ILE        -0.2615
     18 CA         12.0380   12.9400    5.2300 C.3       1 ILE         0.1476
     19 C          10.7380   13.2450    5.9860 C.2       1 ILE         0.2064
     20 O           9.9720   14.1160    5.5610 O.2       1 ILE        -0.3942
     21 CB         11.8850   13.2010    3.7180 C.3       1 ILE         0.0773
     22 CG         11.9270   14.6730    3.3370 C.2       1 ILE         0.1780
     23 OD1        12.5920   15.5110    3.9760 O.2       1 ILE        -0.3970
     24 ND2        11.1720   15.0370    2.3170 N.am      1 ILE        -0.3007
     25 N          10.5210   12.5570    7.1220 N.am      1 ILE        -0.2615
     26 CA          9.3200   12.7470    7.9480 C.3       1 ILE         0.1474
     27 C           9.6370   13.3280    9.3470 C.2       1 ILE         0.2040
     28 O           8.6930   13.5940   10.0780 O.2       1 ILE        -0.3944
     29 CB          8.5830   11.4170    8.1380 C.3       1 ILE         0.0773
     30 CG          8.1140   10.8300    6.8320 C.2       1 ILE         0.1780
     31 OD1         7.5360   11.5360    6.0030 O.2       1 ILE        -0.3970
     32 ND2         8.3700    9.5310    6.6420 N.am      1 ILE        -0.3007
     33 N          10.9310   13.4310    9.6870 N.am      1 ILE        -0.2848
     34 CA         11.2440   13.8450   11.1170 C.3       1 ILE         0.0330
     35 CB         12.6260   13.4230   11.5490 C.3       1 ILE        -0.0158
     36 CG         12.8780   11.9210   11.4700 C.3       1 ILE         0.0392
     37 CD         13.3130   11.4330   10.1060 C.2       1 ILE         0.1783
     38 OE1        13.4150   12.2050    9.1440 O.2       1 ILE        -0.3969
     39 H1         13.4750    9.5280   10.8524 H         1 ILE         0.1883
     40 H2         14.9387   10.2007    8.4570 H         1 ILE         0.0803
     41 H3         15.0958    7.7945    8.0166 H         1 ILE         0.0345
     42 H4         12.7201    7.2722    8.7509 H         1 ILE         0.0267
     43 H5         13.3149    7.2979   10.4456 H         1 ILE         0.0267
     44 H6         16.6557    8.8568    9.6476 H         1 ILE         0.0235
     45 H7         16.3598    7.1246   10.0196 H         1 ILE         0.0235
     46 H8         15.5503    8.4023   10.9886 H         1 ILE         0.0235
     47 H9         13.1862    4.9477    9.5745 H         1 ILE         0.0230
     48 H10        14.8888    5.4027    9.9220 H         1 ILE         0.0230
     49 H11        14.2940    5.3770    8.2272 H         1 ILE         0.0230
     50 H12        14.3129    8.8881    6.3638 H         1 ILE         0.1885
     51 H13        12.9569    8.8393    4.5088 H         1 ILE         0.0826
     52 H14        10.4585    8.2017    4.9692 H         1 ILE         0.0551
     53 H15        10.9814    8.0289    6.6789 H         1 ILE         0.0551
     54 H16        11.8643    4.7271    5.9855 H         1 ILE         0.1814
     55 H17        10.9120    5.8359    6.9148 H         1 ILE         0.1814
     56 H18        13.3685   11.4495    5.9458 H         1 ILE         0.1885
     57 H19        12.8112   13.6253    5.6076 H         1 ILE         0.0826
     58 H20        10.9198   12.7866    3.3913 H         1 ILE         0.0551
     59 H21        12.7023   12.6845    3.1933 H         1 ILE         0.0551
     60 H22        11.1585   15.9920    2.0206 H         1 ILE         0.1814
     61 H23        10.6136   14.3577    1.8408 H         1 ILE         0.1814
     62 H24        11.2047   11.8892    7.4163 H         1 ILE         0.1885
     63 H25         8.6559   13.4495    7.4232 H         1 ILE         0.0826
     64 H26         7.7087   11.5864    8.7836 H         1 ILE         0.0551
     65 H27         9.2637   10.7017    8.6228 H         1 ILE         0.0551
     66 H28         8.0835    9.0836    5.7948 H         1 ILE         0.1814
     67 H29         8.8479    9.0072    7.3472 H         1 ILE         0.1814
     68 H30        11.6592   13.2434    9.0278 H         1 ILE         0.1851
     69 H31        10.5069   13.3805   11.7885 H         1 ILE         0.0521
     70 H32        11.1696   14.9399   11.1920 H         1 ILE         0.0521
     71 H33        12.7736   13.7425   12.5912 H         1 ILE         0.0309
     72 H34        13.3583   13.9294   10.9030 H         1 ILE         0.0309
     73 H35        11.9474   11.4009   11.7411 H         1 ILE         0.0503
     74 H36        13.6653   11.6653   12.1944 H         1 ILE         0.0503
@<TRIPOS>BOND
     1    1    2 1  
     2    1   37 am 
     3    2    3 1  
     4    2    5 1  
     5    3    4 2  
     6    3    9 am 
     7    5    6 1  
     8    5    7 1  
     9    6    8 1  
    10    9   10 1  
    11   10   11 1  
    12   10   13 1  
    13   11   12 2  
    14   11   17 am 
    15   13   14 1  
    16   14   15 2  
    17   14   16 am 
    18   17   18 1  
    19   18   19 1  
    20   18   21 1  
    21   19   20 2  
    22   19   25 am 
    23   21   22 1  
    24   22   23 2  
    25   22   24 am 
    26   25   26 1  
    27   26   27 1  
    28   26   29 1  
    29   27   28 2  
    30   27   33 am 
    31   29   30 1  
    32   30   31 2  
    33   30   32 am 
    34   33   34 1  
    35   34   35 1  
    36   35   36 1  
    37   36   37 1  
    38   37   38 2  
    39    1   39 1  
    40    2   40 1  
    41    5   41 1  
    42    6   42 1  
    43    6   43 1  
    44    7   44 1  
    45    7   45 1  
    46    7   46 1  
    47    8   47 1  
    48    8   48 1  
    49    8   49 1  
    50    9   50 1  
    51   10   51 1  
    52   13   52 1  
    53   13   53 1  
    54   16   54 1  
    55   16   55 1  
    56   17   56 1  
    57   18   57 1  
    58   21   58 1  
    59   21   59 1  
    60   24   60 1  
    61   24   61 1  
    62   25   62 1  
    63   26   63 1  
    64   29   64 1  
    65   29   65 1  
    66   32   66 1  
    67   32   67 1  
    68   33   68 1  
    69   34   69 1  
    70   34   70 1  
    71   35   71 1  
    72   35   72 1  
    73   36   73 1  
    74   36   74 1  
@<TRIPOS>SUBSTRUCTURE
     1 ILE         1

