### 
### Created by X-TOOL on Wed Jan  1 15:39:38 2020
### 

@<TRIPOS>MOLECULE
6dne_ligand
  108   115     1     0     0
SMALL
GAST_HUCK


@<TRIPOS>ATOM
      1 C1        -35.6830   14.8890   -6.4770 C.2       1 H1V         0.0043
      2 N         -35.2660   11.1840   -5.3400 N.pl3     1 H1V        -0.1470
      3 C         -36.2090   15.9680   -7.3870 C.3       1 H1V        -0.0308
      4 O         -30.7580   10.8310   -2.5280 O.2       1 H1V        -0.3968
      5 C10       -31.6790   10.4190   -4.6710 C.3       1 H1V         0.0633
      6 C11       -30.6290   10.9720   -3.7340 C.2       1 H1V         0.1794
      7 C12       -28.4290   11.9210   -3.4500 C.3       1 H1V         0.0543
      8 C13       -27.6280   10.7010   -3.0020 C.3       1 H1V         0.0678
      9 C14       -25.8450    9.2520   -3.5880 C.3       1 H1V         0.0711
     10 C15       -25.4820    8.3700   -4.7770 C.3       1 H1V         0.0711
     11 C16       -24.2420    8.2690   -6.7750 C.3       1 H1V         0.0678
     12 C17       -23.0250    8.8660   -7.4720 C.3       1 H1V         0.0543
     13 C18       -20.9090    9.7400   -6.6760 C.2       1 H1V         0.1794
     14 C19       -19.6060    9.4610   -5.9640 C.3       1 H1V         0.0633
     15 C2        -34.8110   14.9130   -5.2580 C.2       1 H1V        -0.0580
     16 C20       -18.4800   10.2170   -6.6590 C.3       1 H1V         0.0994
     17 C21       -17.5790   10.0620   -8.8490 C.2       1 H1V         0.0263
     18 C22       -16.7700   11.2750   -8.5680 C.2       1 H1V         0.0320
     19 C23       -16.0070   11.4470   -7.3040 C.2       1 H1V         0.1844
     20 C24       -15.7060   13.4710   -8.8680 C.2       1 H1V         0.0043
     21 C25       -15.1970   14.8120   -9.3260 C.3       1 H1V        -0.0308
     22 C26       -16.5980   12.4460   -9.5010 C.2       1 H1V        -0.0580
     23 C27       -17.2070   12.6100  -10.8670 C.3       1 H1V        -0.0507
     24 C28       -14.9940   10.1480   -5.5610 C.2       1 H1V         0.1468
     25 C29       -13.5490   10.5690   -5.6230 C.3       1 H1V         0.0171
     26 C3        -34.2480   16.1780   -4.6700 C.3       1 H1V        -0.0507
     27 C30       -17.1880    9.9770   -5.9870 C.2       1 H1V         0.1630
     28 C31       -17.4420    9.3820  -10.1770 C.ar      1 H1V         0.0078
     29 C32       -18.5090    8.7150  -10.7680 C.ar      1 H1V        -0.0437
     30 C33       -18.3300    8.0800  -11.9990 C.ar      1 H1V        -0.0406
     31 C34       -17.0920    8.1120  -12.6320 C.ar      1 H1V         0.0470
     32 C35       -16.0300    8.7750  -12.0380 C.ar      1 H1V        -0.0406
     33 C36       -16.2050    9.4000  -10.8120 C.ar      1 H1V        -0.0437
     34 C37       -33.8070   13.1120   -3.5570 C.2       1 H1V         0.0263
     35 C38       -33.9920   13.8240   -2.2490 C.ar      1 H1V         0.0078
     36 C39       -32.9590   13.8750   -1.3230 C.ar      1 H1V        -0.0437
     37 C4        -34.6080   13.5040   -4.7530 C.2       1 H1V         0.0320
     38 C40       -33.1480   14.5260   -0.1090 C.ar      1 H1V        -0.0406
     39 C41       -34.3710   15.1180    0.1810 C.ar      1 H1V         0.0470
     40 C42       -35.4090   15.0630   -0.7400 C.ar      1 H1V        -0.0406
     41 C43       -35.2180   14.4110   -1.9520 C.ar      1 H1V        -0.0437
     42 C5        -35.3300   12.5030   -5.5790 C.2       1 H1V         0.1844
     43 C6        -36.2610   10.2940   -5.4130 C.2       1 H1V         0.1468
     44 C7        -37.7140   10.5040   -5.7460 C.3       1 H1V         0.0171
     45 C8        -34.0870   10.6630   -5.0280 C.2       1 H1V         0.1630
     46 C9        -32.8220   11.4100   -4.8700 C.3       1 H1V         0.0994
     47 N1        -35.6850    9.1110   -5.1020 N.2       1 H1V        -0.2795
     48 N2        -34.3150    9.3430   -4.8530 N.2       1 H1V        -0.2784
     49 N3        -29.5810   11.5920   -4.2710 N.am      1 H1V        -0.2846
     50 N4        -21.8270    8.7770   -6.6560 N.am      1 H1V        -0.2846
     51 N5        -18.3510    9.5940   -7.9690 N.2       1 H1V        -0.3433
     52 N6        -16.0300   10.5410   -6.3080 N.pl3     1 H1V        -0.1470
     53 N7        -15.5250    9.2460   -4.7060 N.2       1 H1V        -0.2795
     54 N8        -16.9050    9.1330   -4.9770 N.2       1 H1V        -0.2784
     55 N9        -32.9950   12.1480   -3.6290 N.2       1 H1V        -0.3433
     56 O1        -26.7040   10.3090   -4.0180 O.3       1 H1V        -0.3755
     57 O2        -24.6090    9.0730   -5.6560 O.3       1 H1V        -0.3755
     58 O3        -21.0880   10.8070   -7.2380 O.2       1 H1V        -0.3968
     59 S         -36.1540   13.2690   -6.8920 S.3       1 H1V         0.0060
     60 S1        -15.1790   12.9700   -7.2910 S.3       1 H1V         0.0060
     61 CL        -16.8520    7.3060  -14.2160 Cl        1 H1V        -0.0647
     62 CL1       -34.6020   15.9540    1.7510 Cl        1 H1V        -0.0647
     63 H1        -36.8244   15.5133   -8.1773 H         1 H1V         0.0365
     64 H2        -35.3653   16.5063   -7.8434 H         1 H1V         0.0365
     65 H3        -36.8215   16.6722   -6.8049 H         1 H1V         0.0365
     66 H4        -32.0823    9.4874   -4.2475 H         1 H1V         0.0539
     67 H5        -31.2142   10.2078   -5.6454 H         1 H1V         0.0539
     68 H6        -27.7652   12.5787   -4.0303 H         1 H1V         0.0543
     69 H7        -28.7813   12.4535   -2.5543 H         1 H1V         0.0543
     70 H8        -28.3184    9.8688   -2.8000 H         1 H1V         0.0580
     71 H9        -27.0738   10.9486   -2.0847 H         1 H1V         0.0580
     72 H10       -24.9280    9.6789   -3.1558 H         1 H1V         0.0583
     73 H11       -26.3615    8.6472   -2.8281 H         1 H1V         0.0583
     74 H12       -26.3985    8.0930   -5.3185 H         1 H1V         0.0583
     75 H13       -24.9802    7.4601   -4.4160 H         1 H1V         0.0583
     76 H14       -24.0014    7.2528   -6.4295 H         1 H1V         0.0580
     77 H15       -25.0824    8.2261   -7.4834 H         1 H1V         0.0580
     78 H16       -23.2263    9.9249   -7.6913 H         1 H1V         0.0543
     79 H17       -22.8538    8.3228   -8.4130 H         1 H1V         0.0543
     80 H18       -19.3958    8.3816   -5.9920 H         1 H1V         0.0539
     81 H19       -19.6805    9.7931   -4.9180 H         1 H1V         0.0539
     82 H20       -18.7023   11.2923   -6.7248 H         1 H1V         0.0654
     83 H21       -14.5562   15.2472   -8.5450 H         1 H1V         0.0365
     84 H22       -16.0485   15.4817   -9.5169 H         1 H1V         0.0365
     85 H23       -14.6144   14.6868  -10.2506 H         1 H1V         0.0365
     86 H24       -17.8179   11.7266  -11.1045 H         1 H1V         0.0315
     87 H25       -16.4072   12.7145  -11.6149 H         1 H1V         0.0315
     88 H26       -17.8412   13.5087  -10.8803 H         1 H1V         0.0315
     89 H27       -12.9779   10.0347   -4.8494 H         1 H1V         0.0469
     90 H28       -13.4751   11.6528   -5.4503 H         1 H1V         0.0469
     91 H29       -13.1387   10.3268   -6.6145 H         1 H1V         0.0469
     92 H30       -34.5793   17.0395   -5.2683 H         1 H1V         0.0315
     93 H31       -33.1492   16.1280   -4.6764 H         1 H1V         0.0315
     94 H32       -34.6039   16.2915   -3.6354 H         1 H1V         0.0315
     95 H33       -19.4746    8.6879  -10.2761 H         1 H1V         0.0681
     96 H34       -19.1599    7.5597  -12.4633 H         1 H1V         0.0639
     97 H35       -15.0647    8.8052  -12.5303 H         1 H1V         0.0639
     98 H36       -15.3691    9.9075  -10.3443 H         1 H1V         0.0681
     99 H37       -32.0065   13.4080   -1.5460 H         1 H1V         0.0681
    100 H38       -32.3400   14.5717    0.6122 H         1 H1V         0.0639
    101 H39       -36.3628   15.5261   -0.5146 H         1 H1V         0.0639
    102 H40       -36.0285   14.3594   -2.6700 H         1 H1V         0.0681
    103 H41       -38.2414    9.5393   -5.7108 H         1 H1V         0.0469
    104 H42       -37.8007   10.9325   -6.7554 H         1 H1V         0.0469
    105 H43       -38.1618   11.1935   -5.0152 H         1 H1V         0.0469
    106 H44       -32.6279   12.0747   -5.7247 H         1 H1V         0.0654
    107 H45       -29.5867   11.8318   -5.2418 H         1 H1V         0.1851
    108 H46       -21.6897    7.9788   -6.0694 H         1 H1V         0.1851
@<TRIPOS>BOND
     1    1    3 1  
     2    1   15 2  
     3   59    1 1  
     4    2   42 1  
     5    2   43 1  
     6   45    2 1  
     7    6    4 2  
     8    5    6 1  
     9   46    5 1  
    10    6   49 am 
    11    7    8 1  
    12   49    7 1  
    13    8   56 1  
    14    9   10 1  
    15   56    9 1  
    16   10   57 1  
    17   11   12 1  
    18   57   11 1  
    19   12   50 1  
    20   13   14 1  
    21   50   13 am 
    22   13   58 2  
    23   14   16 1  
    24   15   26 1  
    25   37   15 1  
    26   16   27 1  
    27   16   51 1  
    28   17   18 1  
    29   17   28 1  
    30   51   17 2  
    31   18   19 2  
    32   18   22 1  
    33   52   19 1  
    34   19   60 1  
    35   20   21 1  
    36   22   20 2  
    37   60   20 1  
    38   22   23 1  
    39   24   25 1  
    40   52   24 1  
    41   24   53 2  
    42   27   52 1  
    43   27   54 2  
    44   28   29 ar 
    45   28   33 ar 
    46   29   30 ar 
    47   30   31 ar 
    48   32   31 ar 
    49   31   61 1  
    50   33   32 ar 
    51   34   35 1  
    52   37   34 1  
    53   34   55 2  
    54   35   36 ar 
    55   35   41 ar 
    56   36   38 ar 
    57   42   37 2  
    58   38   39 ar 
    59   40   39 ar 
    60   39   62 1  
    61   41   40 ar 
    62   42   59 1  
    63   43   44 1  
    64   43   47 2  
    65   45   46 1  
    66   45   48 2  
    67   46   55 1  
    68   47   48 1  
    69   53   54 1  
    70    3   63 1  
    71    3   64 1  
    72    3   65 1  
    73    5   66 1  
    74    5   67 1  
    75    7   68 1  
    76    7   69 1  
    77    8   70 1  
    78    8   71 1  
    79    9   72 1  
    80    9   73 1  
    81   10   74 1  
    82   10   75 1  
    83   11   76 1  
    84   11   77 1  
    85   12   78 1  
    86   12   79 1  
    87   14   80 1  
    88   14   81 1  
    89   16   82 1  
    90   21   83 1  
    91   21   84 1  
    92   21   85 1  
    93   23   86 1  
    94   23   87 1  
    95   23   88 1  
    96   25   89 1  
    97   25   90 1  
    98   25   91 1  
    99   26   92 1  
   100   26   93 1  
   101   26   94 1  
   102   29   95 1  
   103   30   96 1  
   104   32   97 1  
   105   33   98 1  
   106   36   99 1  
   107   38  100 1  
   108   40  101 1  
   109   41  102 1  
   110   44  103 1  
   111   44  104 1  
   112   44  105 1  
   113   46  106 1  
   114   49  107 1  
   115   50  108 1  
@<TRIPOS>SUBSTRUCTURE
     1 H1V         1

