### 
### Created by X-TOOL on Wed Jan  1 15:39:37 2020
### 

@<TRIPOS>MOLECULE
6dnp_ligand
   26    26     1     0     0
SMALL
GAST_HUCK


@<TRIPOS>ATOM
      1 C10        35.9920   80.1900   63.9390 C.3       1 GZV         0.0588
      2 C13        38.1610   81.0890   64.6700 C.2       1 GZV         0.0656
      3 C01        31.1120   77.1230   61.6640 C.3       1 GZV        -0.0312
      4 C02        32.4160   77.1250   62.4270 C.ar      1 GZV        -0.0100
      5 C03        32.7520   76.0650   63.2520 C.ar      1 GZV        -0.0592
      6 C04        33.9540   76.0780   63.9410 C.ar      1 GZV        -0.0326
      7 C05        34.8130   77.1620   63.8120 C.ar      1 GZV         0.1434
      8 C07        34.4780   78.2370   62.9950 C.ar      1 GZV         0.0931
      9 C08        35.4100   79.4190   62.7990 C.2       1 GZV         0.1340
     10 C11        36.9690   81.1110   63.7570 C.3       1 GZV         0.1220
     11 C16        33.2740   78.2110   62.3030 C.ar      1 GZV         0.1514
     12 F06        35.9730   77.1670   64.4820 F         1 GZV        -0.1839
     13 F17        32.9480   79.2390   61.5170 F         1 GZV        -0.1838
     14 O09        35.7190   79.7440   61.6320 O.2       1 GZV        -0.3832
     15 O12        37.0900   81.8540   62.5760 O.3       1 GZV        -0.3754
     16 O14        39.3120   81.2360   64.1760 O.co2     1 GZV        -0.5662
     17 O15        37.9890   80.9340   65.9260 O.co2     1 GZV        -0.5662
     18 H1         36.3973   79.4452   64.6397 H         1 GZV         0.0527
     19 H2         35.1528   80.7205   64.4126 H         1 GZV         0.0527
     20 H3         30.5632   76.1941   61.8785 H         1 GZV         0.0376
     21 H4         31.3182   77.1863   60.5854 H         1 GZV         0.0376
     22 H5         30.5052   77.9870   61.9727 H         1 GZV         0.0376
     23 H6         32.0749   75.2253   63.3588 H         1 GZV         0.0575
     24 H7         34.2234   75.2442   64.5792 H         1 GZV         0.0565
     25 H8         36.4365   81.9028   64.3043 H         1 GZV         0.0788
     26 H9         37.8054   81.5065   62.0565 H         1 GZV         0.2126
@<TRIPOS>BOND
     1    9    1 1  
     2    1   10 1  
     3   10    2 1  
     4    2   16 ar 
     5    2   17 ar 
     6    4    3 1  
     7    5    4 ar 
     8    4   11 ar 
     9    6    5 ar 
    10    7    6 ar 
    11    8    7 ar 
    12    7   12 1  
    13    8    9 1  
    14    8   11 ar 
    15    9   14 2  
    16   10   15 1  
    17   11   13 1  
    18    1   18 1  
    19    1   19 1  
    20    3   20 1  
    21    3   21 1  
    22    3   22 1  
    23    5   23 1  
    24    6   24 1  
    25   10   25 1  
    26   15   26 1  
@<TRIPOS>SUBSTRUCTURE
     1 GZV         1

