### 
### Created by X-TOOL on Wed Jan  1 15:39:35 2020
### 

@<TRIPOS>MOLECULE
6do3_ligand
   86    88     1     0     0
SMALL
GAST_HUCK


@<TRIPOS>ATOM
      1 N         164.2920    5.3250   12.0320 N.4       1 PRO         0.2461
      2 CA        163.2720    5.2440   10.9720 C.3       1 PRO         0.0671
      3 C         161.9100    5.8070   11.4210 C.2       1 PRO         0.2293
      4 O         161.5250    5.6120   12.5750 O.2       1 PRO        -0.3905
      5 CB        163.1840    3.7410   10.6660 C.3       1 PRO         0.0127
      6 CG        163.8100    3.0560   11.8350 C.3       1 PRO        -0.0053
      7 CD        164.8250    4.0030   12.4060 C.3       1 PRO        -0.0313
      8 N         161.2020    6.5010   10.5110 N.am      1 PRO        -0.2471
      9 CA        159.9860    7.2910   10.7650 C.3       1 PRO         0.1341
     10 C         158.8820    6.6380   11.6240 C.2       1 PRO         0.2066
     11 O         158.2940    7.3820   12.4110 O.2       1 PRO        -0.3942
     12 CB        159.4600    7.5730    9.3500 C.3       1 PRO        -0.0104
     13 CG        160.6770    7.6300    8.5220 C.3       1 PRO        -0.0281
     14 CD        161.5970    6.5630    9.0930 C.3       1 PRO         0.0371
     15 N         158.5920    5.3200   11.4820 N.am      1 PRO        -0.2498
     16 CA        157.5160    4.7720   12.3350 C.3       1 PRO         0.1338
     17 C         157.7790    4.8340   13.8490 C.2       1 PRO         0.2041
     18 O         156.8310    4.8440   14.6390 O.2       1 PRO        -0.3944
     19 CB        157.4000    3.3050   11.8780 C.3       1 PRO        -0.0104
     20 CG        158.6420    3.0160   11.0820 C.3       1 PRO        -0.0281
     21 CD        159.0520    4.3330   10.4850 C.3       1 PRO         0.0369
     22 N         159.0330    4.9050   14.2730 N.am      1 MET        -0.2637
     23 CA        159.2620    4.8370   15.7120 C.3       1 MET         0.1317
     24 C         159.6110    6.1960   16.3110 C.2       1 MET         0.2039
     25 O         159.7800    6.3120   17.5260 O.2       1 MET        -0.3944
     26 CB        160.3410    3.8100   16.0340 C.3       1 MET        -0.0034
     27 CG        161.7000    4.1280   15.4880 C.3       1 MET        -0.0024
     28 SD        162.5010    2.5540   15.1500 S.3       1 MET        -0.1639
     29 CE        161.3360    1.9680   13.9240 C.3       1 MET        -0.0181
     30 N         159.6920    7.2180   15.4580 N.am      1 ALA        -0.2640
     31 CA        159.8160    8.5940   15.9170 C.3       1 ALA         0.1282
     32 C         158.6680    8.9640   16.8670 C.2       1 ALA         0.2034
     33 O         157.5220    8.5710   16.6510 O.2       1 ALA        -0.3944
     34 CB        159.8380    9.5390   14.7380 C.3       1 ALA        -0.0244
     35 N         158.9760    9.7140   17.9210 N.am      1 GLY        -0.2664
     36 CA        157.9420   10.2210   18.8040 C.3       1 GLY         0.1201
     37 C         157.5760    9.3080   19.9600 C.2       1 GLY         0.2000
     38 O         156.8060    9.6900   20.8350 O.2       1 GLY        -0.3947
     39 N         158.1310    8.1010   19.9710 N.am      1 GLY        -0.2724
     40 CA        157.9620    7.2140   21.1080 C.3       1 GLY         0.0833
     41 C         159.1650    7.2240   22.0370 C.2       1 GLY         0.0570
     42 O         160.1980    7.8620   21.7500 O.co2     1 GLY        -0.5669
     43 OXT       159.1320    6.5840   23.1050 O.co2     1 GLY        -0.5669
     44 H1        163.8777    5.7487   12.8474 H         1 PRO         0.2035
     45 H2        165.0530    5.8993   11.7049 H         1 PRO         0.2035
     46 H3        163.6054    5.7974   10.0818 H         1 PRO         0.1099
     47 H4        163.7334    3.5043    9.7429 H         1 PRO         0.0347
     48 H5        162.1339    3.4321   10.5572 H         1 PRO         0.0347
     49 H6        164.3010    2.1268   11.5101 H         1 PRO         0.0320
     50 H7        163.0450    2.8219   12.5899 H         1 PRO         0.0320
     51 H8        164.8922    3.8986   13.4990 H         1 PRO         0.0814
     52 H9        165.8165    3.8358   11.9600 H         1 PRO         0.0814
     53 H10       160.2724    8.2313   11.2587 H         1 PRO         0.0802
     54 H11       158.9198    8.5306    9.3173 H         1 PRO         0.0313
     55 H12       158.7947    6.7649    9.0119 H         1 PRO         0.0313
     56 H13       161.1461    8.6224    8.5934 H         1 PRO         0.0287
     57 H14       160.4389    7.4117    7.4705 H         1 PRO         0.0287
     58 H15       161.4349    5.5953    8.5958 H         1 PRO         0.0524
     59 H16       162.6522    6.8560    8.9900 H         1 PRO         0.0524
     60 H17       156.5799    5.3119   12.1297 H         1 PRO         0.0802
     61 H18       156.5056    3.1698   11.2521 H         1 PRO         0.0313
     62 H19       157.3417    2.6371   12.7501 H         1 PRO         0.0313
     63 H20       158.4287    2.2842   10.2889 H         1 PRO         0.0287
     64 H21       159.4360    2.6267   11.7362 H         1 PRO         0.0287
     65 H22       160.1432    4.3836   10.3558 H         1 PRO         0.0524
     66 H23       158.5599    4.4953    9.5147 H         1 PRO         0.0524
     67 H24       159.7933    5.0015   13.6306 H         1 MET         0.1883
     68 H25       158.3256    4.5002   16.1808 H         1 MET         0.0800
     69 H26       160.0248    2.8413   15.6198 H         1 MET         0.0320
     70 H27       160.4224    3.7320   17.1282 H         1 MET         0.0320
     71 H28       162.2817    4.6986   16.2270 H         1 MET         0.0378
     72 H29       161.6090    4.7139   14.5615 H         1 MET         0.0378
     73 H30       161.6483    0.9758   13.5662 H         1 MET         0.0340
     74 H31       161.3089    2.6709   13.0784 H         1 MET         0.0340
     75 H32       160.3348    1.8970   14.3740 H         1 MET         0.0340
     76 H33       159.6669    7.0340   14.4754 H         1 ALA         0.1883
     77 H34       160.7654    8.6933   16.4636 H         1 ALA         0.0797
     78 H35       159.9319   10.5737   15.0992 H         1 ALA         0.0277
     79 H36       158.9043    9.4336   14.1661 H         1 ALA         0.0277
     80 H37       160.6938    9.2976   14.0905 H         1 ALA         0.0277
     81 H38       159.9340    9.9318   18.1078 H         1 GLY         0.1881
     82 H39       157.0356   10.3913   18.2045 H         1 GLY         0.0763
     83 H40       158.2900   11.1770   19.2222 H         1 GLY         0.0763
     84 H41       158.6722    7.7995   19.1860 H         1 GLY         0.1873
     85 H42       157.8112    6.1895   20.7370 H         1 GLY         0.0689
     86 H43       157.0753    7.5327   21.6755 H         1 GLY         0.0689
@<TRIPOS>BOND
     1    1    2 1  
     2    1    7 1  
     3    2    3 1  
     4    2    5 1  
     5    3    4 2  
     6    3    8 am 
     7    5    6 1  
     8    6    7 1  
     9    8    9 1  
    10    8   14 1  
    11    9   10 1  
    12    9   12 1  
    13   10   11 2  
    14   10   15 am 
    15   12   13 1  
    16   13   14 1  
    17   15   16 1  
    18   15   21 1  
    19   16   17 1  
    20   16   19 1  
    21   17   18 2  
    22   17   22 am 
    23   19   20 1  
    24   20   21 1  
    25   22   23 1  
    26   23   24 1  
    27   23   26 1  
    28   24   25 2  
    29   24   30 am 
    30   26   27 1  
    31   27   28 1  
    32   28   29 1  
    33   30   31 1  
    34   31   32 1  
    35   31   34 1  
    36   32   33 2  
    37   32   35 am 
    38   35   36 1  
    39   36   37 1  
    40   37   38 2  
    41   37   39 am 
    42   39   40 1  
    43   40   41 1  
    44   41   42 ar 
    45   41   43 ar 
    46    1   44 1  
    47    1   45 1  
    48    2   46 1  
    49    5   47 1  
    50    5   48 1  
    51    6   49 1  
    52    6   50 1  
    53    7   51 1  
    54    7   52 1  
    55    9   53 1  
    56   12   54 1  
    57   12   55 1  
    58   13   56 1  
    59   13   57 1  
    60   14   58 1  
    61   14   59 1  
    62   16   60 1  
    63   19   61 1  
    64   19   62 1  
    65   20   63 1  
    66   20   64 1  
    67   21   65 1  
    68   21   66 1  
    69   22   67 1  
    70   23   68 1  
    71   26   69 1  
    72   26   70 1  
    73   27   71 1  
    74   27   72 1  
    75   29   73 1  
    76   29   74 1  
    77   29   75 1  
    78   30   76 1  
    79   31   77 1  
    80   34   78 1  
    81   34   79 1  
    82   34   80 1  
    83   35   81 1  
    84   36   82 1  
    85   36   83 1  
    86   39   84 1  
    87   40   85 1  
    88   40   86 1  
@<TRIPOS>SUBSTRUCTURE
     1 PRO         1

