### 
### Created by X-TOOL on Wed Jan  1 15:39:35 2020
### 

@<TRIPOS>MOLECULE
6do4_ligand
   60    60     1     0     0
SMALL
GAST_HUCK


@<TRIPOS>ATOM
      1 N         181.9720    4.7050   98.5200 N.4       1 GLY         0.2357
      2 CA        180.9850    3.7770   97.9810 C.3       1 GLY         0.0547
      3 C         179.9390    3.2910   98.9860 C.2       1 GLY         0.2261
      4 O         179.3140    4.0970   99.6830 O.2       1 GLY        -0.3908
      5 N         179.7250    1.9700   99.0400 N.am      1 PRO        -0.2474
      6 CA        178.6430    1.4310   99.8920 C.3       1 PRO         0.1339
      7 C         178.8860    1.6290  101.3690 C.2       1 PRO         0.2042
      8 O         177.9200    1.7320  102.1460 O.2       1 PRO        -0.3944
      9 CB        178.6280   -0.0650   99.5450 C.3       1 PRO        -0.0104
     10 CG        179.3730   -0.1910   98.2450 C.3       1 PRO        -0.0281
     11 CD        180.3330    0.9450   98.1750 C.3       1 PRO         0.0370
     12 N         180.1520    1.6720  101.7890 N.am      1 SER        -0.2616
     13 CA        180.4530    1.6570  103.2090 C.3       1 SER         0.1539
     14 C         180.6280    3.0380  103.8110 C.2       1 SER         0.2062
     15 O         180.7740    3.1310  105.0340 O.2       1 SER        -0.3943
     16 CB        181.7160    0.8510  103.4730 C.3       1 SER         0.0843
     17 OG        182.7830    1.4260  102.7620 O.3       1 SER        -0.3903
     18 N         180.6420    4.0990  103.0050 N.am      1 SER        -0.2615
     19 CA        180.8370    5.4340  103.5590 C.3       1 SER         0.1539
     20 C         179.6920    5.7960  104.4940 C.2       1 SER         0.2060
     21 O         178.5390    5.4050  104.2890 O.2       1 SER        -0.3943
     22 CB        180.9320    6.4900  102.4560 C.3       1 SER         0.0843
     23 OG        181.8340    6.0910  101.4450 O.3       1 SER        -0.3903
     24 N         180.0180    6.5550  105.5350 N.am      1 GLY        -0.2663
     25 CA        179.0190    6.9950  106.4690 C.3       1 GLY         0.1201
     26 C         178.7270    6.0120  107.5690 C.2       1 GLY         0.2000
     27 O         178.0280    6.3740  108.5180 O.2       1 GLY        -0.3947
     28 N         179.2410    4.7850  107.4740 N.am      1 GLY        -0.2724
     29 CA        179.1470    3.8260  108.5600 C.3       1 GLY         0.0833
     30 C         180.3710    3.8380  109.4630 C.2       1 GLY         0.0570
     31 O         181.4350    4.4290  109.1610 O.co2     1 GLY        -0.5669
     32 OXT       180.3060    3.2430  110.5440 O.co2     1 GLY        -0.5669
     33 H1        182.6166    4.9702   97.7919 H         1 GLY         0.2012
     34 H2        182.4771    4.2600   99.2702 H         1 GLY         0.2012
     35 H3        181.5046    5.5265   98.8705 H         1 GLY         0.2012
     36 H4        181.5196    2.8976   97.5926 H         1 GLY         0.1061
     37 H5        180.4584    4.2797   97.1564 H         1 GLY         0.1061
     38 H6        177.6844    1.9007   99.6266 H         1 PRO         0.0802
     39 H7        177.5937   -0.4213   99.4299 H         1 PRO         0.0313
     40 H8        179.1305   -0.6460  100.3324 H         1 PRO         0.0313
     41 H9        178.6692   -0.1419   97.4011 H         1 PRO         0.0287
     42 H10       179.9171   -1.1465   98.2136 H         1 PRO         0.0287
     43 H11       181.3214    0.6472   98.5549 H         1 PRO         0.0524
     44 H12       180.4322    1.3116   97.1426 H         1 PRO         0.0524
     45 H13       180.8964    1.7147  101.1227 H         1 SER         0.1884
     46 H14       179.6113    1.1685  103.7217 H         1 SER         0.0823
     47 H15       181.5676   -0.1867  103.1397 H         1 SER         0.0606
     48 H16       181.9420    0.8617  104.5495 H         1 SER         0.0606
     49 H17       183.5750    0.9267  102.9230 H         1 SER         0.2097
     50 H18       180.5187    3.9799  102.0198 H         1 SER         0.1884
     51 H19       181.7768    5.4375  104.1307 H         1 SER         0.0823
     52 H20       181.2801    7.4369  102.8944 H         1 SER         0.0606
     53 H21       179.9363    6.6358  102.0117 H         1 SER         0.0606
     54 H22       181.8739    6.7628  100.7746 H         1 SER         0.2097
     55 H23       180.9718    6.8236  105.6701 H         1 GLY         0.1881
     56 H24       178.0867    7.1797  105.9152 H         1 GLY         0.0763
     57 H25       179.3651    7.9330  106.9277 H         1 GLY         0.0763
     58 H26       179.7050    4.5175  106.6295 H         1 GLY         0.1873
     59 H27       179.0361    2.8190  108.1314 H         1 GLY         0.0689
     60 H28       178.2608    4.0663  109.1657 H         1 GLY         0.0689
@<TRIPOS>BOND
     1    1    2 1  
     2    2    3 1  
     3    3    4 2  
     4    3    5 am 
     5    5    6 1  
     6    5   11 1  
     7    6    7 1  
     8    6    9 1  
     9    7    8 2  
    10    7   12 am 
    11    9   10 1  
    12   10   11 1  
    13   12   13 1  
    14   13   14 1  
    15   13   16 1  
    16   14   15 2  
    17   14   18 am 
    18   16   17 1  
    19   18   19 1  
    20   19   20 1  
    21   19   22 1  
    22   20   21 2  
    23   20   24 am 
    24   22   23 1  
    25   24   25 1  
    26   25   26 1  
    27   26   27 2  
    28   26   28 am 
    29   28   29 1  
    30   29   30 1  
    31   30   31 ar 
    32   30   32 ar 
    33    1   33 1  
    34    1   34 1  
    35    1   35 1  
    36    2   36 1  
    37    2   37 1  
    38    6   38 1  
    39    9   39 1  
    40    9   40 1  
    41   10   41 1  
    42   10   42 1  
    43   11   43 1  
    44   11   44 1  
    45   12   45 1  
    46   13   46 1  
    47   16   47 1  
    48   16   48 1  
    49   17   49 1  
    50   18   50 1  
    51   19   51 1  
    52   22   52 1  
    53   22   53 1  
    54   23   54 1  
    55   24   55 1  
    56   25   56 1  
    57   25   57 1  
    58   28   58 1  
    59   29   59 1  
    60   29   60 1  
@<TRIPOS>SUBSTRUCTURE
     1 GLY         1

