### 
### Created by X-TOOL on Wed Jan  1 15:39:37 2020
### 

@<TRIPOS>MOLECULE
6do5_ligand
   72    71     1     0     0
SMALL
GAST_HUCK


@<TRIPOS>ATOM
      1 N         226.9250    3.7250   96.2310 N.4       1 ILE         0.2377
      2 CA        225.6480    3.6190   95.5670 C.3       1 ILE         0.0621
      3 C         224.4740    3.8690   96.5160 C.2       1 ILE         0.2262
      4 O         224.2050    5.0050   96.8910 O.2       1 ILE        -0.3907
      5 CB        225.4730    2.2670   94.8080 C.3       1 ILE        -0.0040
      6 N         223.7850    2.7950   96.8850 N.am      1 GLY        -0.2637
      7 CA        222.7240    2.8340   97.8660 C.3       1 GLY         0.1202
      8 C         223.2640    2.7790   99.2730 C.2       1 GLY         0.2007
      9 O         222.5420    2.8870  100.2140 O.2       1 GLY        -0.3947
     10 N         224.5720    2.6170   99.3610 N.am      1 LEU        -0.2640
     11 CA        225.3200    2.5050  100.5980 C.3       1 LEU         0.1312
     12 C         225.3320    3.7570  101.4190 C.2       1 LEU         0.2039
     13 O         225.3550    3.7110  102.6130 O.2       1 LEU        -0.3944
     14 CB        226.7510    2.1500  100.2890 C.3       1 LEU        -0.0101
     15 CG        227.0820    1.1030   99.2720 C.3       1 LEU        -0.0425
     16 CD1       228.5500    0.7880   99.2550 C.3       1 LEU        -0.0625
     17 CD2       226.2660   -0.1160   99.5320 C.3       1 LEU        -0.0625
     18 N         225.3570    4.8770  100.7410 N.am      1 LEU        -0.2637
     19 CA        225.3960    6.1750  101.3420 C.3       1 LEU         0.1312
     20 C         224.2500    6.5170  102.3020 C.2       1 LEU         0.2037
     21 O         223.1400    6.1810  102.0650 O.2       1 LEU        -0.3944
     22 CB        225.4330    7.1950  100.2200 C.3       1 LEU        -0.0101
     23 CG        226.3960    8.3410  100.4090 C.3       1 LEU        -0.0425
     24 CD1       227.8190    7.8550  100.4780 C.3       1 LEU        -0.0625
     25 CD2       226.2100    9.3730   99.3300 C.3       1 LEU        -0.0625
     26 N         224.5560    7.2190  103.3830 N.am      1 GLY        -0.2664
     27 CA        223.5400    7.7080  104.2840 C.3       1 GLY         0.1201
     28 C         223.0870    6.7840  105.3850 C.2       1 GLY         0.2000
     29 O         222.3430    7.1600  106.1980 O.2       1 GLY        -0.3947
     30 N         223.5950    5.5780  105.3650 N.am      1 GLY        -0.2724
     31 CA        223.5440    4.6740  106.4620 C.3       1 GLY         0.0833
     32 C         224.7980    4.6650  107.3180 C.2       1 GLY         0.0570
     33 O         225.8270    5.3030  106.9370 O.co2     1 GLY        -0.5669
     34 OXT       224.6820    3.9720  108.3580 O.co2     1 GLY        -0.5669
     35 H1        227.6640    3.5529   95.5674 H         1 ILE         0.2015
     36 H2        226.9751    3.0451   96.9735 H         1 ILE         0.2015
     37 H3        227.0279    4.6510   96.6157 H         1 ILE         0.2015
     38 H4        225.6219    4.4157   94.8090 H         1 ILE         0.1095
     39 H5        224.4856    2.2435   94.3238 H         1 ILE         0.0310
     40 H6        225.5515    1.4332   95.5212 H         1 ILE         0.0310
     41 H7        226.2584    2.1711   94.0439 H         1 ILE         0.0310
     42 H8        224.0113    1.9168   96.4637 H         1 GLY         0.1882
     43 H9        222.0582    1.9732   97.7057 H         1 GLY         0.0763
     44 H10       222.1547    3.7666   97.7388 H         1 GLY         0.0763
     45 H11       225.0878    2.5676   98.5057 H         1 LEU         0.1883
     46 H12       224.8674    1.7015  101.1976 H         1 LEU         0.0800
     47 H13       227.2032    1.8204  101.2360 H         1 LEU         0.0315
     48 H14       227.2381    3.0774   99.9533 H         1 LEU         0.0315
     49 H15       226.8113    1.4922   98.2794 H         1 LEU         0.0298
     50 H16       228.7507    0.0168   98.4968 H         1 LEU         0.0232
     51 H17       228.8572    0.4182  100.2444 H         1 LEU         0.0232
     52 H18       229.1176    1.6982   99.0113 H         1 LEU         0.0232
     53 H19       225.1990    0.1513   99.5375 H         1 LEU         0.0232
     54 H20       226.5425   -0.5410  100.5082 H         1 LEU         0.0232
     55 H21       226.4539   -0.8584   98.7423 H         1 LEU         0.0232
     56 H22       225.3483    4.8218   99.7426 H         1 LEU         0.1883
     57 H23       226.3311    6.2443  101.9171 H         1 LEU         0.0800
     58 H24       224.4227    7.6167  100.1132 H         1 LEU         0.0315
     59 H25       225.7107    6.6694   99.2945 H         1 LEU         0.0315
     60 H26       226.1627    8.8194  101.3716 H         1 LEU         0.0298
     61 H27       228.4932    8.7132  100.6157 H         1 LEU         0.0232
     62 H28       228.0744    7.3344   99.5433 H         1 LEU         0.0232
     63 H29       227.9293    7.1624  101.3254 H         1 LEU         0.0232
     64 H30       225.1601    9.7007   99.3132 H         1 LEU         0.0232
     65 H31       226.4734    8.9361   98.3554 H         1 LEU         0.0232
     66 H32       226.8604   10.2366   99.5326 H         1 LEU         0.0232
     67 H33       225.5165    7.4153  103.5800 H         1 GLY         0.1881
     68 H34       222.6560    7.9593  103.6795 H         1 GLY         0.0763
     69 H35       223.9310    8.6200  104.7586 H         1 GLY         0.0763
     70 H36       224.0470    5.2732  104.5266 H         1 GLY         0.1873
     71 H37       223.3888    3.6594  106.0664 H         1 GLY         0.0689
     72 H38       222.6925    4.9530  107.1000 H         1 GLY         0.0689
@<TRIPOS>BOND
     1    1    2 1  
     2    2    3 1  
     3    2    5 1  
     4    3    4 2  
     5    3    6 am 
     6    6    7 1  
     7    7    8 1  
     8    8    9 2  
     9    8   10 am 
    10   10   11 1  
    11   11   12 1  
    12   11   14 1  
    13   12   13 2  
    14   12   18 am 
    15   14   15 1  
    16   15   16 1  
    17   15   17 1  
    18   18   19 1  
    19   19   20 1  
    20   19   22 1  
    21   20   21 2  
    22   20   26 am 
    23   22   23 1  
    24   23   24 1  
    25   23   25 1  
    26   26   27 1  
    27   27   28 1  
    28   28   29 2  
    29   28   30 am 
    30   30   31 1  
    31   31   32 1  
    32   32   33 ar 
    33   32   34 ar 
    34    1   35 1  
    35    1   36 1  
    36    1   37 1  
    37    2   38 1  
    38    5   39 1  
    39    5   40 1  
    40    5   41 1  
    41    6   42 1  
    42    7   43 1  
    43    7   44 1  
    44   10   45 1  
    45   11   46 1  
    46   14   47 1  
    47   14   48 1  
    48   15   49 1  
    49   16   50 1  
    50   16   51 1  
    51   16   52 1  
    52   17   53 1  
    53   17   54 1  
    54   17   55 1  
    55   18   56 1  
    56   19   57 1  
    57   22   58 1  
    58   22   59 1  
    59   23   60 1  
    60   24   61 1  
    61   24   62 1  
    62   24   63 1  
    63   25   64 1  
    64   25   65 1  
    65   25   66 1  
    66   26   67 1  
    67   27   68 1  
    68   27   69 1  
    69   30   70 1  
    70   31   71 1  
    71   31   72 1  
@<TRIPOS>SUBSTRUCTURE
     1 ILE         1

