### 
### Created by X-TOOL on Mon Aug  2 16:13:00 2021
### 

@<TRIPOS>MOLECULE
6dpt_ligand
   38    40     1     0     0
SMALL
GAST_HUCK


@<TRIPOS>ATOM
      1 C10        19.3330    7.2720  -29.3150 C.ar      1 H7M        -0.0847
      2 C13        19.9600    6.4630  -26.7650 C.ar      1 H7M         0.0782
      3 C20        17.7780    9.5910  -23.0500 C.ar      1 H7M        -0.0705
      4 C21        16.8220    8.6630  -22.5830 C.ar      1 H7M        -0.0565
      5 C22        17.0810    7.2990  -22.6150 C.ar      1 H7M         0.0695
      6 C24        18.2780    6.8380  -23.1090 C.ar      1 H7M         0.1289
      7 C01        24.6870    7.8620  -28.0460 C.3       1 H7M         0.0541
      8 C03        24.9700    6.6920  -30.2070 C.2       1 H7M         0.1144
      9 C06        23.5530    5.8280  -28.8570 C.2       1 H7M         0.2104
     10 C08        20.8880    6.3140  -27.7830 C.ar      1 H7M         0.0551
     11 C09        20.5960    6.7150  -29.0600 C.ar      1 H7M        -0.0623
     12 C11        18.4090    7.4230  -28.3020 C.ar      1 H7M        -0.0845
     13 C12        18.6990    7.0180  -27.0240 C.ar      1 H7M        -0.0505
     14 C18        19.2320    7.7870  -23.5620 C.ar      1 H7M         0.1422
     15 C19        18.9820    9.1460  -23.5440 C.ar      1 H7M        -0.0432
     16 N02        24.4120    6.8190  -29.0140 N.pl3     1 H7M        -0.2088
     17 N04        24.4620    5.6240  -30.7940 N.2       1 H7M        -0.2688
     18 N05        23.5600    5.0770  -29.9370 N.2       1 H7M        -0.2577
     19 N14        20.3380    5.9910  -25.4300 N.am      1 H7M        -0.1901
     20 O16        21.6380    6.3820  -23.2930 O.2       1 H7M        -0.1465
     21 O17        21.6090    8.1740  -24.8320 O.2       1 H7M        -0.1465
     22 O25        18.6390    5.4190  -23.2030 O.3       1 H7M        -0.3302
     23 S07        22.5040    5.5500  -27.3740 S.3       1 H7M         0.0070
     24 S15        20.7850    7.1100  -24.2420 S.o2      1 H7M         0.0865
     25 CL2        15.8170    6.2010  -21.9940 Cl        1 H7M        -0.0788
     26 H1         19.0806    7.5875  -30.3209 H         1 H7M         0.0455
     27 H2         17.5633   10.6531  -23.0193 H         1 H7M         0.0524
     28 H3         15.8747    9.0194  -22.1949 H         1 H7M         0.0595
     29 H4         25.4459    8.5475  -28.4513 H         1 H7M         0.0587
     30 H5         25.0610    7.4096  -27.1157 H         1 H7M         0.0587
     31 H6         23.7629    8.4206  -27.8364 H         1 H7M         0.0587
     32 H7         25.7210    7.3559  -30.6326 H         1 H7M         0.1263
     33 H8         21.3239    6.6046  -29.8556 H         1 H7M         0.0521
     34 H9         17.4437    7.8663  -28.5182 H         1 H7M         0.0518
     35 H10        17.9681    7.1249  -26.2306 H         1 H7M         0.0459
     36 H11        19.7211    9.8482  -23.9124 H         1 H7M         0.0610
     37 H12        20.3318    5.0128  -25.2223 H         1 H7M         0.2138
     38 H13        19.4202    5.2573  -22.6872 H         1 H7M         0.2486
@<TRIPOS>BOND
     1   11    1 ar 
     2   12    1 ar 
     3    2   10 ar 
     4    2   13 ar 
     5   19    2 1  
     6    3    4 ar 
     7   15    3 ar 
     8    5    4 ar 
     9    6    5 ar 
    10    5   25 1  
    11   14    6 ar 
    12    6   22 1  
    13   16    7 1  
    14   16    8 1  
    15   17    8 2  
    16    9   16 1  
    17    9   18 2  
    18   23    9 1  
    19   10   11 ar 
    20   10   23 1  
    21   13   12 ar 
    22   14   15 ar 
    23   24   14 1  
    24   18   17 1  
    25   19   24 am 
    26   24   20 2  
    27   24   21 2  
    28    1   26 1  
    29    3   27 1  
    30    4   28 1  
    31    7   29 1  
    32    7   30 1  
    33    7   31 1  
    34    8   32 1  
    35   11   33 1  
    36   12   34 1  
    37   13   35 1  
    38   15   36 1  
    39   19   37 1  
    40   22   38 1  
@<TRIPOS>SUBSTRUCTURE
     1 H7M         1

