### 
### Created by X-TOOL on Mon Aug  2 16:13:00 2021
### 

@<TRIPOS>MOLECULE
6dpx_ligand
   33    34     1     0     0
SMALL
GAST_HUCK


@<TRIPOS>ATOM
      1 C15        19.7690    8.8190  -23.6910 C.ar      1 H7G        -0.0431
      2 C17        17.5110    8.6940  -22.8470 C.ar      1 H7G        -0.0565
      3 C20        18.8110    6.6870  -23.1520 C.ar      1 H7G         0.1289
      4 C22        21.9770    5.6110  -27.5470 C.ar      1 H7G        -0.0432
      5 C02        22.7600    4.7670  -31.0020 C.2       1 H7G         0.0460
      6 C04        23.0430    5.7290  -29.8280 C.3       1 H7G         0.0296
      7 C05        21.8760    5.9980  -28.8750 C.ar      1 H7G        -0.0463
      8 C06        20.7320    6.6380  -29.3200 C.ar      1 H7G        -0.0759
      9 C07        19.6740    6.8770  -28.4480 C.ar      1 H7G        -0.0840
     10 C08        19.7760    6.4840  -27.1160 C.ar      1 H7G        -0.0522
     11 C09        20.9260    5.8470  -26.6730 C.ar      1 H7G         0.0558
     12 C14        19.8790    7.4410  -23.6130 C.ar      1 H7G         0.1425
     13 C16        18.5890    9.4390  -23.3130 C.ar      1 H7G        -0.0705
     14 C18        17.6320    7.3100  -22.7670 C.ar      1 H7G         0.0695
     15 N10        21.0380    5.4080  -25.2860 N.am      1 H7G        -0.1901
     16 O01        23.6520    4.6050  -31.8760 O.co2     1 H7G        -0.5664
     17 O03        21.6700    4.1320  -31.1260 O.co2     1 H7G        -0.5664
     18 O12        21.9830    5.9520  -22.9120 O.2       1 H7G        -0.1463
     19 O13        22.4470    7.4660  -24.6160 O.2       1 H7G        -0.1463
     20 O21        18.9180    5.2830  -23.0810 O.3       1 H7G        -0.3302
     21 S11        21.4090    6.5810  -24.0980 S.o2      1 H7G         0.0874
     22 CL1        16.2720    6.3150  -22.1730 Cl        1 H7G        -0.0788
     23 H1         20.6041    9.4114  -24.0470 H         1 H7G         0.0610
     24 H2         16.5906    9.1840  -22.5506 H         1 H7G         0.0595
     25 H3         22.8778    5.1238  -27.1918 H         1 H7G         0.0418
     26 H4         23.3573    6.6935  -30.2534 H         1 H7G         0.0585
     27 H5         23.8670    5.3030  -29.2368 H         1 H7G         0.0585
     28 H6         20.6598    6.9550  -30.3541 H         1 H7G         0.0417
     29 H7         18.7748    7.3667  -28.8040 H         1 H7G         0.0556
     30 H8         18.9602    6.6750  -26.4282 H         1 H7G         0.0428
     31 H9         18.5050   10.5176  -23.3813 H         1 H7G         0.0524
     32 H10        20.9018    4.4490  -25.0373 H         1 H7G         0.2159
     33 H11        18.7901    5.0018  -22.1827 H         1 H7G         0.2486
@<TRIPOS>BOND
     1   12    1 ar 
     2    1   13 ar 
     3   13    2 ar 
     4   14    2 ar 
     5   12    3 ar 
     6    3   14 ar 
     7    3   20 1  
     8    4    7 ar 
     9   11    4 ar 
    10    6    5 1  
    11    5   16 ar 
    12    5   17 ar 
    13    7    6 1  
    14    7    8 ar 
    15    9    8 ar 
    16   10    9 ar 
    17   11   10 ar 
    18   15   11 1  
    19   21   12 1  
    20   14   22 1  
    21   15   21 am 
    22   21   18 2  
    23   21   19 2  
    24    1   23 1  
    25    2   24 1  
    26    4   25 1  
    27    6   26 1  
    28    6   27 1  
    29    8   28 1  
    30    9   29 1  
    31   10   30 1  
    32   13   31 1  
    33   15   32 1  
    34   20   33 1  
@<TRIPOS>SUBSTRUCTURE
     1 H7G         1

