### 
### Created by X-TOOL on Mon Aug  2 16:13:00 2021
### 

@<TRIPOS>MOLECULE
6dpy_ligand
   40    42     1     0     0
SMALL
GAST_HUCK


@<TRIPOS>ATOM
      1 C13        22.6710    6.1810  -28.8310 C.3       1 H7A         0.0712
      2 C15        20.2560    6.5800  -29.0570 C.ar      1 H7A         0.0905
      3 C17        18.0570    7.5550  -29.2330 C.ar      1 H7A        -0.0440
      4 C20        18.8550    6.8000  -27.0790 C.ar      1 H7A        -0.0335
      5 C21        20.0440    6.4130  -27.6970 C.ar      1 H7A         0.0062
      6 C22        18.9080    7.6490  -23.1890 C.2       1 H7A         0.0177
      7 C01        16.9850    9.2470  -22.4380 C.3       1 H7A        -0.0008
      8 C02        18.3760    8.9220  -22.9850 C.2       1 H7A         0.1050
      9 C04        20.4140    9.1940  -23.7750 C.2       1 H7A         0.1131
     10 C05        21.6930    9.8650  -24.2830 C.3       1 H7A        -0.0036
     11 C06        20.1970    7.8340  -23.6940 C.2       1 H7A         0.1011
     12 C11        21.1970    5.7260  -26.9110 C.3       1 H7A         0.0707
     13 C12        22.5250    6.2810  -27.3280 C.3       1 H7A         0.0025
     14 C16        19.2480    7.1550  -29.8410 C.ar      1 H7A        -0.0412
     15 C18        17.8530    7.3780  -27.8520 C.ar      1 H7A         0.1138
     16 C23        18.1840    6.3220  -22.9170 C.2       1 H7A         0.0332
     17 F19        16.6760    7.7650  -27.2600 F         1 H7A        -0.1947
     18 N10        20.8520    5.6410  -25.4760 N.am      1 H7A        -0.2400
     19 O03        19.3080    9.8310  -23.3470 O.3       1 H7A        -0.2566
     20 O08        21.6710    5.7210  -23.0340 O.2       1 H7A        -0.1565
     21 O09        22.7420    7.1570  -24.4570 O.2       1 H7A        -0.1565
     22 O14        21.5090    6.1420  -29.6280 O.3       1 H7A        -0.3241
     23 O24        17.1380    6.2950  -22.2120 O.co2     1 H7A        -0.5730
     24 O25        18.6440    5.2370  -23.3750 O.co2     1 H7A        -0.5730
     25 S07        21.4190    6.5860  -24.1780 S.o2      1 H7A         0.0485
     26 H1         23.2364    5.2608  -29.0397 H         1 H7A         0.0611
     27 H2         23.2567    7.0532  -29.1570 H         1 H7A         0.0611
     28 H3         17.2773    8.0089  -29.8338 H         1 H7A         0.0519
     29 H4         18.7140    6.6529  -26.0143 H         1 H7A         0.0514
     30 H5         16.8550   10.3383  -22.3917 H         1 H7A         0.0420
     31 H6         16.8793    8.8220  -21.4289 H         1 H7A         0.0420
     32 H7         16.2204    8.8145  -23.1000 H         1 H7A         0.0420
     33 H8         21.5785   10.9579  -24.2327 H         1 H7A         0.0402
     34 H9         21.8766    9.5631  -25.3247 H         1 H7A         0.0402
     35 H10        22.5428    9.5562  -23.6565 H         1 H7A         0.0402
     36 H11        21.2206    4.6798  -27.2499 H         1 H7A         0.0651
     37 H12        22.5922    7.3359  -27.0236 H         1 H7A         0.0329
     38 H13        23.3291    5.7076  -26.8436 H         1 H7A         0.0329
     39 H14        19.3911    7.2878  -30.9073 H         1 H7A         0.0512
     40 H15        20.1933    4.9287  -25.2336 H         1 H7A         0.1694
@<TRIPOS>BOND
     1   13    1 1  
     2    1   22 1  
     3    5    2 ar 
     4    2   14 ar 
     5    2   22 1  
     6   14    3 ar 
     7   15    3 ar 
     8    5    4 ar 
     9    4   15 ar 
    10   12    5 1  
    11    6    8 2  
    12   11    6 1  
    13    6   16 1  
    14    8    7 1  
    15   19    8 1  
    16    9   10 1  
    17   11    9 2  
    18    9   19 1  
    19   25   11 1  
    20   12   13 1  
    21   18   12 1  
    22   15   17 1  
    23   16   23 ar 
    24   16   24 ar 
    25   18   25 am 
    26   25   20 2  
    27   25   21 2  
    28    1   26 1  
    29    1   27 1  
    30    3   28 1  
    31    4   29 1  
    32    7   30 1  
    33    7   31 1  
    34    7   32 1  
    35   10   33 1  
    36   10   34 1  
    37   10   35 1  
    38   12   36 1  
    39   13   37 1  
    40   13   38 1  
    41   14   39 1  
    42   18   40 1  
@<TRIPOS>SUBSTRUCTURE
     1 H7A         1

