### 
### Created by X-TOOL on Mon Aug  2 16:13:00 2021
### 

@<TRIPOS>MOLECULE
6dpz_ligand
   43    44     1     0     0
SMALL
GAST_HUCK


@<TRIPOS>ATOM
      1 N          19.7420    6.3510  -24.9230 N.am      1 H7D        -0.2303
      2 C          17.8220    6.6190  -22.6800 C.2       1 H7D         0.0397
      3 O          16.7980    6.7660  -22.0370 O.co2     1 H7D        -0.5687
      4 C1         18.6360    7.7920  -23.1530 C.3       1 H7D         0.0314
      5 C10        22.4290    5.5360  -28.1630 C.3       1 H7D        -0.0344
      6 C11        23.2160    6.8090  -27.8810 C.3       1 H7D        -0.0344
      7 C12        22.7100    7.3100  -26.5350 C.3       1 H7D         0.0309
      8 C2         17.8300    9.0650  -22.9050 C.3       1 H7D        -0.0368
      9 C3         18.6960   10.2700  -23.2470 C.3       1 H7D        -0.0512
     10 C4         18.1250   11.1230  -24.3800 C.3       1 H7D        -0.0529
     11 C5         17.4540   10.3630  -25.5170 C.3       1 H7D        -0.0530
     12 C6         18.3590    9.3780  -26.2490 C.3       1 H7D        -0.0512
     13 C7         18.1200    7.9730  -25.6990 C.3       1 H7D        -0.0314
     14 C8         19.1490    7.6700  -24.6120 C.3       1 H7D         0.0532
     15 C9         21.6440    5.2420  -26.8900 C.3       1 H7D         0.0309
     16 N1         22.2690    6.0830  -25.8590 N.am      1 H7D        -0.2221
     17 O1         18.2530    5.4040  -22.9170 O.co2     1 H7D        -0.5687
     18 O2         21.5470    5.3420  -23.6090 O.2       1 H7D        -0.1354
     19 O3         21.6530    7.6580  -24.0380 O.2       1 H7D        -0.1354
     20 S          21.3240    6.3680  -24.5770 S.o2      1 H7D         0.1185
     21 H1         19.2417    5.5673  -25.2912 H         1 H7D         0.1690
     22 H2         19.5319    7.8416  -22.5167 H         1 H7D         0.0485
     23 H3         23.1131    4.7055  -28.3914 H         1 H7D         0.0281
     24 H4         21.7430    5.6893  -29.0091 H         1 H7D         0.0281
     25 H5         23.0295    7.5579  -28.6648 H         1 H7D         0.0281
     26 H6         24.2931    6.5918  -27.8302 H         1 H7D         0.0281
     27 H7         21.8719    8.0104  -26.6654 H         1 H7D         0.0478
     28 H8         23.5152    7.8027  -25.9704 H         1 H7D         0.0478
     29 H9         17.5312    9.1130  -21.8475 H         1 H7D         0.0286
     30 H10        16.9319    9.0633  -23.5401 H         1 H7D         0.0286
     31 H11        19.6911    9.9107  -23.5480 H         1 H7D         0.0266
     32 H12        18.7893   10.8990  -22.3494 H         1 H7D         0.0266
     33 H13        18.9511   11.7091  -24.8089 H         1 H7D         0.0265
     34 H14        17.3792   11.8044  -23.9449 H         1 H7D         0.0265
     35 H15        17.0848   11.0970  -26.2483 H         1 H7D         0.0265
     36 H16        16.6047    9.8022  -25.0996 H         1 H7D         0.0265
     37 H17        19.4110    9.6597  -26.0942 H         1 H7D         0.0266
     38 H18        18.1290    9.3962  -27.3245 H         1 H7D         0.0266
     39 H19        18.2190    7.2391  -26.5123 H         1 H7D         0.0285
     40 H20        17.1078    7.9134  -25.2725 H         1 H7D         0.0285
     41 H21        19.9482    8.4194  -24.7102 H         1 H7D         0.0533
     42 H22        21.7241    4.1780  -26.6227 H         1 H7D         0.0478
     43 H23        20.5847    5.5092  -27.0179 H         1 H7D         0.0478
@<TRIPOS>BOND
     1    1   14 1  
     2   20    1 am 
     3    2    3 ar 
     4    4    2 1  
     5    2   17 ar 
     6    4    8 1  
     7   14    4 1  
     8    5    6 1  
     9   15    5 1  
    10    7    6 1  
    11   16    7 1  
    12    8    9 1  
    13    9   10 1  
    14   11   10 1  
    15   12   11 1  
    16   13   12 1  
    17   14   13 1  
    18   16   15 1  
    19   16   20 am 
    20   20   18 2  
    21   20   19 2  
    22    1   21 1  
    23    4   22 1  
    24    5   23 1  
    25    5   24 1  
    26    6   25 1  
    27    6   26 1  
    28    7   27 1  
    29    7   28 1  
    30    8   29 1  
    31    8   30 1  
    32    9   31 1  
    33    9   32 1  
    34   10   33 1  
    35   10   34 1  
    36   11   35 1  
    37   11   36 1  
    38   12   37 1  
    39   12   38 1  
    40   13   39 1  
    41   13   40 1  
    42   14   41 1  
    43   15   42 1  
    44   15   43 1  
@<TRIPOS>SUBSTRUCTURE
     1 H7D         1

