### 
### Created by X-TOOL on Wed Jan  1 15:39:36 2020
### 

@<TRIPOS>MOLECULE
6dq4_ligand
   51    54     1     0     0
SMALL
GAST_HUCK


@<TRIPOS>ATOM
      1 O2        -21.3240   18.5740    8.1470 O.co2     1 K0I        -0.5689
      2 C1        -22.2720   19.2050    7.6100 C.2       1 K0I         0.0367
      3 O1        -23.1130   19.8040    8.3280 O.co2     1 K0I        -0.5689
      4 C2        -22.4040   19.2450    6.0890 C.3       1 K0I         0.0205
      5 C3        -23.8700   19.0260    5.7150 C.3       1 K0I         0.0399
      6 N1        -24.0600   19.1920    4.2810 N.pl3     1 K0I        -0.3032
      7 C4        -24.3460   20.4150    3.7580 C.ar      1 K0I         0.1128
      8 N3        -24.2350   20.6080    2.4570 N.ar      1 K0I        -0.2631
      9 C7        -24.5320   21.8400    1.9770 C.ar      1 K0I         0.1124
     10 C8        -24.4090   22.0600    0.5070 C.ar      1 K0I         0.0847
     11 N4        -24.2150   20.9630   -0.2630 N.ar      1 K0I        -0.2829
     12 C12       -24.1030   21.1490   -1.5970 C.ar      1 K0I         0.0148
     13 C11       -24.1840   22.4020   -2.1790 C.ar      1 K0I        -0.0307
     14 C10       -24.3810   23.4870   -1.3900 C.ar      1 K0I        -0.0380
     15 C9        -24.4950   23.3280   -0.0480 C.ar      1 K0I        -0.0195
     16 N2        -24.9300   22.8990    2.7280 N.ar      1 K0I        -0.2629
     17 C6        -25.0350   22.6730    4.0280 C.ar      1 K0I         0.1155
     18 C5        -24.7420   21.4270    4.5640 C.ar      1 K0I         0.0221
     19 N5        -25.4350   23.7220    4.8200 N.pl3     1 K0I        -0.2873
     20 C22       -25.6390   25.0490    4.2600 C.3       1 K0I         0.0402
     21 C21       -26.9250   25.1560    3.4330 C.3       1 K0I        -0.0010
     22 C20       -28.2450   25.0720    4.2080 C.ar      1 K0I        -0.0390
     23 C15       -28.3200   24.8620    5.6000 C.ar      1 K0I        -0.0390
     24 C14       -27.0170   24.7090    6.4070 C.3       1 K0I        -0.0010
     25 C13       -26.2220   23.4820    6.0070 C.3       1 K0I         0.0402
     26 C19       -29.4440   25.2070    3.4970 C.ar      1 K0I        -0.0668
     27 C18       -30.6820   25.1390    4.1180 C.ar      1 K0I        -0.0755
     28 C17       -30.7510   24.9320    5.4860 C.ar      1 K0I        -0.0755
     29 C16       -29.5770   24.7940    6.2100 C.ar      1 K0I        -0.0668
     30 H1        -21.7864   18.4512    5.6434 H         1 K0I         0.0450
     31 H2        -22.0694   20.2237    5.7146 H         1 K0I         0.0450
     32 H3        -24.4934   19.7576    6.2499 H         1 K0I         0.0540
     33 H4        -24.1694   18.0079    6.0044 H         1 K0I         0.0540
     34 H5        -23.9772   18.3766    3.6572 H         1 K0I         0.1834
     35 H6        -23.9441   20.2861   -2.2336 H         1 K0I         0.0839
     36 H7        -24.0910   22.5147   -3.2531 H         1 K0I         0.0735
     37 H8        -24.4470   24.4758   -1.8294 H         1 K0I         0.0745
     38 H9        -24.6530   24.1903    0.5896 H         1 K0I         0.0751
     39 H10       -24.8307   21.2639    5.6320 H         1 K0I         0.0560
     40 H11       -24.7839   25.2919    3.6121 H         1 K0I         0.0545
     41 H12       -25.6912   25.7741    5.0855 H         1 K0I         0.0545
     42 H13       -26.9175   24.3394    2.6961 H         1 K0I         0.0431
     43 H14       -26.9060   26.1230    2.9090 H         1 K0I         0.0431
     44 H15       -27.2712   24.6310    7.4744 H         1 K0I         0.0431
     45 H16       -26.3944   25.6008    6.2425 H         1 K0I         0.0431
     46 H17       -25.5485   23.2083    6.8325 H         1 K0I         0.0545
     47 H18       -26.9186   22.6533    5.8120 H         1 K0I         0.0545
     48 H19       -29.4029   25.3700    2.4261 H         1 K0I         0.0537
     49 H20       -31.5904   25.2472    3.5364 H         1 K0I         0.0541
     50 H21       -31.7121   24.8786    5.9846 H         1 K0I         0.0541
     51 H22       -29.6347   24.6286    7.2798 H         1 K0I         0.0537
@<TRIPOS>BOND
     1    1    2 ar 
     2    2    3 ar 
     3    2    4 1  
     4    4    5 1  
     5    5    6 1  
     6    6    7 1  
     7    7    8 ar 
     8    7   18 ar 
     9    8    9 ar 
    10    9   10 1  
    11    9   16 ar 
    12   10   11 ar 
    13   10   15 ar 
    14   11   12 ar 
    15   12   13 ar 
    16   13   14 ar 
    17   14   15 ar 
    18   16   17 ar 
    19   17   18 ar 
    20   17   19 1  
    21   19   20 1  
    22   19   25 1  
    23   20   21 1  
    24   21   22 1  
    25   22   23 ar 
    26   22   26 ar 
    27   23   24 1  
    28   23   29 ar 
    29   24   25 1  
    30   26   27 ar 
    31   27   28 ar 
    32   28   29 ar 
    33    4   30 1  
    34    4   31 1  
    35    5   32 1  
    36    5   33 1  
    37    6   34 1  
    38   12   35 1  
    39   13   36 1  
    40   14   37 1  
    41   15   38 1  
    42   18   39 1  
    43   20   40 1  
    44   20   41 1  
    45   21   42 1  
    46   21   43 1  
    47   24   44 1  
    48   24   45 1  
    49   25   46 1  
    50   25   47 1  
    51   26   48 1  
    52   27   49 1  
    53   28   50 1  
    54   29   51 1  
@<TRIPOS>SUBSTRUCTURE
     1 K0I         1

