### 
### Created by X-TOOL on Wed Jan  1 15:39:38 2020
### 

@<TRIPOS>MOLECULE
6dq5_ligand
   52    54     1     0     0
SMALL
GAST_HUCK


@<TRIPOS>ATOM
      1 C13       -28.4280   23.7260    5.9020 C.3       1 H6G         0.0350
      2 C15       -29.1550   22.3540    3.9270 C.2       1 H6G         0.1978
      3 C17       -28.8810   20.8740    1.9840 C.2       1 H6G        -0.0786
      4 C20       -26.2990   24.7180    4.2180 C.3       1 H6G         0.0517
      5 C22       -24.8970   21.5400    2.0340 C.ar      1 H6G         0.1124
      6 C24       -25.6310   22.7340   -0.0630 C.ar      1 H6G        -0.0195
      7 C26       -25.0370   21.8900   -2.1970 C.ar      1 H6G        -0.0307
      8 C02       -22.5520   19.0670    7.9130 C.2       1 H6G         0.0367
      9 C04       -22.5710   18.8890    6.3970 C.3       1 H6G         0.0205
     10 C05       -23.9970   18.8090    5.8610 C.3       1 H6G         0.0399
     11 C07       -24.4430   20.2560    3.8640 C.ar      1 H6G         0.1128
     12 C08       -24.7950   21.3130    4.6960 C.ar      1 H6G         0.0221
     13 C09       -25.2160   22.4960    4.0980 C.ar      1 H6G         0.1153
     14 C11       -25.9230   23.3550    6.3020 C.3       1 H6G         0.0334
     15 C12       -27.3530   22.9020    6.5990 C.3       1 H6G        -0.0120
     16 C16       -29.1440   22.0850    2.4260 C.2       1 H6G         0.0083
     17 C19       -27.6610   24.3600    3.6190 C.3       1 H6G         0.0535
     18 C23       -24.9530   21.6730    0.5150 C.ar      1 H6G         0.0847
     19 C25       -25.6830   22.8590   -1.4440 C.ar      1 H6G        -0.0380
     20 C27       -24.3760   20.8520   -1.5620 C.ar      1 H6G         0.0148
     21 N06       -23.9950   18.9960    4.4250 N.pl3     1 H6G        -0.3032
     22 N10       -25.5950   23.6450    4.9110 N.pl3     1 H6G        -0.2889
     23 N14       -28.4230   23.4780    4.4760 N.am      1 H6G        -0.2717
     24 N21       -25.2420   22.5710    2.7780 N.ar      1 H6G        -0.2629
     25 N28       -24.3540   20.7770   -0.2460 N.ar      1 H6G        -0.2829
     26 N29       -24.4980   20.3980    2.5540 N.ar      1 H6G        -0.2631
     27 O01       -23.4450   19.7550    8.4740 O.co2     1 H6G        -0.5689
     28 O03       -21.6450   18.5270    8.5960 O.co2     1 H6G        -0.5689
     29 O18       -29.7670   21.6430    4.6500 O.2       1 H6G        -0.3875
     30 H1        -28.2373   24.7941    6.0827 H         1 H6G         0.0522
     31 H2        -29.4122   23.4548    6.3115 H         1 H6G         0.0522
     32 H3        -28.8716   20.6753    0.9133 H         1 H6G         0.0687
     33 H4        -28.6727   20.0704    2.6888 H         1 H6G         0.0687
     34 H5        -26.4537   25.5361    4.9369 H         1 H6G         0.0544
     35 H6        -25.6539   25.0672    3.3984 H         1 H6G         0.0544
     36 H7        -26.1221   23.4684    0.5652 H         1 H6G         0.0751
     37 H8        -25.0495   21.9450   -3.2795 H         1 H6G         0.0735
     38 H9        -22.0399   17.9608    6.1394 H         1 H6G         0.0450
     39 H10       -22.0613   19.7448    5.9302 H         1 H6G         0.0450
     40 H11       -24.6076   19.5945    6.3302 H         1 H6G         0.0540
     41 H12       -24.4216   17.8228    6.0997 H         1 H6G         0.0540
     42 H13       -24.7430   21.2182    5.7746 H         1 H6G         0.0560
     43 H14       -25.2452   22.5588    6.6435 H         1 H6G         0.0524
     44 H15       -25.7371   24.2696    6.8842 H         1 H6G         0.0524
     45 H16       -27.4572   21.8557    6.2760 H         1 H6G         0.0304
     46 H17       -27.5172   22.9688    7.6846 H         1 H6G         0.0304
     47 H18       -29.3527   22.8908    1.7238 H         1 H6G         0.0692
     48 H19       -27.5020   23.8622    2.6511 H         1 H6G         0.0541
     49 H20       -28.2343   25.2861    3.4653 H         1 H6G         0.0541
     50 H21       -26.2080   23.6818   -1.9157 H         1 H6G         0.0745
     51 H22       -23.8724   20.0948   -2.1520 H         1 H6G         0.0839
     52 H23       -23.6768   18.2376    3.8049 H         1 H6G         0.1834
@<TRIPOS>BOND
     1   15    1 1  
     2    1   23 1  
     3    2   16 1  
     4   23    2 am 
     5    2   29 2  
     6   16    3 2  
     7    4   17 1  
     8   22    4 1  
     9    5   18 1  
    10   24    5 ar 
    11    5   26 ar 
    12   18    6 ar 
    13    6   19 ar 
    14   19    7 ar 
    15    7   20 ar 
    16    9    8 1  
    17    8   27 ar 
    18    8   28 ar 
    19   10    9 1  
    20   21   10 1  
    21   12   11 ar 
    22   11   21 1  
    23   11   26 ar 
    24   13   12 ar 
    25   22   13 1  
    26   13   24 ar 
    27   14   15 1  
    28   14   22 1  
    29   17   23 1  
    30   18   25 ar 
    31   20   25 ar 
    32    1   30 1  
    33    1   31 1  
    34    3   32 1  
    35    3   33 1  
    36    4   34 1  
    37    4   35 1  
    38    6   36 1  
    39    7   37 1  
    40    9   38 1  
    41    9   39 1  
    42   10   40 1  
    43   10   41 1  
    44   12   42 1  
    45   14   43 1  
    46   14   44 1  
    47   15   45 1  
    48   15   46 1  
    49   16   47 1  
    50   17   48 1  
    51   17   49 1  
    52   19   50 1  
    53   20   51 1  
    54   21   52 1  
@<TRIPOS>SUBSTRUCTURE
     1 H6G         1

