### 
### Created by X-TOOL on Wed Jan  1 15:39:36 2020
### 

@<TRIPOS>MOLECULE
6dq6_ligand
   53    55     1     0     0
SMALL
GAST_HUCK


@<TRIPOS>ATOM
      1 C13       -28.3510   24.0040    5.9350 C.3       1 H6J         0.0315
      2 C17       -28.4340   21.5990    2.6360 C.2       1 H6J         0.0651
      3 C20       -27.5240   24.7660    3.7640 C.3       1 H6J         0.0500
      4 C21       -26.1250   25.0230    4.4940 C.3       1 H6J         0.0485
      5 C24       -25.0680   21.7780    0.4530 C.ar      1 H6J         0.0847
      6 C26       -25.8520   22.9010   -1.6120 C.ar      1 H6J        -0.0380
      7 C28       -24.4660   20.9120   -1.6840 C.ar      1 H6J         0.0148
      8 C02       -22.5070   19.1070    7.9630 C.2       1 H6J         0.0367
      9 C04       -22.5570   19.0050    6.4280 C.3       1 H6J         0.0205
     10 C05       -23.9580   18.6050    5.8740 C.3       1 H6J         0.0399
     11 C07       -24.5250   20.2220    3.8990 C.ar      1 H6J         0.1128
     12 C08       -24.7740   21.3310    4.7870 C.ar      1 H6J         0.0221
     13 C09       -25.1280   22.5970    4.1990 C.ar      1 H6J         0.1152
     14 C11       -25.8380   23.4810    6.4940 C.3       1 H6J         0.0330
     15 C12       -27.3220   23.0520    6.6170 C.3       1 H6J        -0.0153
     16 C18       -28.7560   21.2170    1.3650 C.2       1 H6J        -0.0793
     17 C23       -24.9680   21.6320    2.0310 C.ar      1 H6J         0.1124
     18 C25       -25.7960   22.8190   -0.1920 C.ar      1 H6J        -0.0195
     19 C27       -25.1710   21.9250   -2.3800 C.ar      1 H6J        -0.0307
     20 N06       -24.1700   18.9170    4.4100 N.pl3     1 H6J        -0.3032
     21 N10       -25.3900   23.7990    5.0890 N.pl3     1 H6J        -0.2893
     22 N14       -28.4870   23.8300    4.4540 N.am      1 H6J        -0.2326
     23 N22       -25.2120   22.7310    2.8230 N.ar      1 H6J        -0.2629
     24 N29       -24.4280   20.8570   -0.3220 N.ar      1 H6J        -0.2829
     25 N30       -24.6280   20.3970    2.5340 N.ar      1 H6J        -0.2631
     26 O01       -23.4690   19.7100    8.5850 O.co2     1 H6J        -0.5689
     27 O03       -21.5350   18.6020    8.6490 O.co2     1 H6J        -0.5689
     28 O16       -30.4950   23.2610    2.9050 O.2       1 H6J        -0.1507
     29 O19       -30.1210   21.8130    4.6690 O.2       1 H6J        -0.1507
     30 S15       -29.4530   22.6490    3.6990 S.o2      1 H6J         0.0633
     31 H1        -28.0385   25.0405    6.1298 H         1 H6J         0.0479
     32 H2        -29.3358   23.8259    6.3916 H         1 H6J         0.0479
     33 H3        -27.4882   21.2430    3.0418 H         1 H6J         0.0832
     34 H4        -27.3092   24.3491    2.7690 H         1 H6J         0.0498
     35 H5        -28.0259   25.7385    3.6535 H         1 H6J         0.0498
     36 H6        -26.3088   25.7284    5.3178 H         1 H6J         0.0540
     37 H7        -25.4506   25.4858    3.7585 H         1 H6J         0.0540
     38 H8        -26.4061   23.6964   -2.0971 H         1 H6J         0.0745
     39 H9        -23.9390   20.1551   -2.2535 H         1 H6J         0.0839
     40 H10       -21.8268   18.2481    6.1059 H         1 H6J         0.0450
     41 H11       -22.2823   19.9827    6.0054 H         1 H6J         0.0450
     42 H12       -24.7223   19.1436    6.4534 H         1 H6J         0.0540
     43 H13       -24.0862   17.5217    6.0157 H         1 H6J         0.0540
     44 H14       -24.6972   21.2153    5.8621 H         1 H6J         0.0560
     45 H15       -25.2113   22.6620    6.8767 H         1 H6J         0.0524
     46 H16       -25.6877   24.3777    7.1131 H         1 H6J         0.0524
     47 H17       -27.4265   22.0564    6.1611 H         1 H6J         0.0301
     48 H18       -27.5709   22.9934    7.6869 H         1 H6J         0.0301
     49 H19       -28.0771   20.5807    0.7992 H         1 H6J         0.0548
     50 H20       -29.6917   21.5487    0.9173 H         1 H6J         0.0548
     51 H21       -26.3145   23.5589    0.4069 H         1 H6J         0.0751
     52 H22       -25.1886   21.9521   -3.4635 H         1 H6J         0.0735
     53 H23       -24.0540   18.1499    3.7325 H         1 H6J         0.1834
@<TRIPOS>BOND
     1    1   15 1  
     2   22    1 1  
     3    2   16 2  
     4   30    2 1  
     5    3    4 1  
     6   22    3 1  
     7    4   21 1  
     8   17    5 1  
     9    5   18 ar 
    10    5   24 ar 
    11   18    6 ar 
    12    6   19 ar 
    13    7   19 ar 
    14   24    7 ar 
    15    9    8 1  
    16    8   26 ar 
    17    8   27 ar 
    18   10    9 1  
    19   20   10 1  
    20   12   11 ar 
    21   11   20 1  
    22   11   25 ar 
    23   13   12 ar 
    24   21   13 1  
    25   13   23 ar 
    26   15   14 1  
    27   21   14 1  
    28   23   17 ar 
    29   17   25 ar 
    30   22   30 am 
    31   30   28 2  
    32   30   29 2  
    33    1   31 1  
    34    1   32 1  
    35    2   33 1  
    36    3   34 1  
    37    3   35 1  
    38    4   36 1  
    39    4   37 1  
    40    6   38 1  
    41    7   39 1  
    42    9   40 1  
    43    9   41 1  
    44   10   42 1  
    45   10   43 1  
    46   12   44 1  
    47   14   45 1  
    48   14   46 1  
    49   15   47 1  
    50   15   48 1  
    51   16   49 1  
    52   16   50 1  
    53   18   51 1  
    54   19   52 1  
    55   20   53 1  
@<TRIPOS>SUBSTRUCTURE
     1 H6J         1

