### 
### Created by X-TOOL on Wed Jan  1 15:39:36 2020
### 

@<TRIPOS>MOLECULE
6dq8_ligand
   52    55     1     0     0
SMALL
GAST_HUCK


@<TRIPOS>ATOM
      1 C02       -27.8170   23.1480    5.1950 C.ar      1 H6S         0.0465
      2 C03       -29.1540   23.1470    5.5390 C.ar      1 H6S        -0.0539
      3 C04       -30.0980   22.5870    4.7060 C.ar      1 H6S        -0.0678
      4 C05       -29.6990   22.0220    3.5150 C.ar      1 H6S        -0.0677
      5 C06       -28.3650   22.0200    3.1630 C.ar      1 H6S        -0.0544
      6 C07       -27.3920   22.5840    3.9830 C.ar      1 H6S         0.0157
      7 C08       -25.9480   22.5290    3.5210 C.3       1 H6S         0.1446
      8 C10       -25.5840   24.8670    3.1270 C.3       1 H6S         0.0592
      9 C11       -24.3930   25.7790    3.0950 C.3       1 H6S         0.0143
     10 C12       -23.0870   25.0470    2.8890 C.3       1 H6S        -0.0188
     11 C14       -22.7090   23.9280    0.7180 C.3       1 H6S        -0.0428
     12 C15       -21.2600   25.6520    1.4850 C.3       1 H6S        -0.0317
     13 C16       -21.0660   26.3450    2.8090 C.3       1 H6S        -0.0074
     14 C17       -21.9440   25.5730    3.7580 C.3       1 H6S        -0.0048
     15 C18       -25.2250   21.3360    4.0940 C.2       1 H6S         0.0664
     16 C20       -24.8430   20.2090    3.4230 C.2       1 H6S        -0.0414
     17 C21       -24.1890   19.2280    4.1850 C.ar      1 H6S         0.0331
     18 C22       -24.0320   19.5620    5.5300 C.ar      1 H6S         0.0739
     19 C23       -23.3630   18.6050    6.4020 C.ar      1 H6S         0.0366
     20 C24       -23.1440   18.8660    7.8500 C.2       1 H6S         0.0680
     21 C27       -22.9240   17.4200    5.8350 C.ar      1 H6S        -0.0331
     22 C28       -23.1310   17.1790    4.4790 C.ar      1 H6S        -0.0038
     23 N13       -22.6410   25.1720    1.4780 N.4       1 H6S         0.2353
     24 N29       -23.7470   18.0570    3.6620 N.ar      1 H6S        -0.3142
     25 O09       -25.2340   23.7160    3.8800 O.3       1 H6S        -0.3466
     26 O25       -22.3930   18.1650    8.5220 O.co2     1 H6S        -0.5592
     27 O26       -23.7660   19.8790    8.4190 O.co2     1 H6S        -0.5592
     28 S19       -24.7560   21.1840    5.7870 S.3       1 H6S        -0.0092
     29 CL        -26.7070   23.8760    6.3070 Cl        1 H6S        -0.0764
     30 H1        -29.4653   23.5927    6.4768 H         1 H6S         0.0606
     31 H2        -31.1453   22.5911    4.9856 H         1 H6S         0.0563
     32 H3        -30.4341   21.5783    2.8533 H         1 H6S         0.0602
     33 H4        -28.0671   21.5677    2.2240 H         1 H6S         0.0564
     34 H5        -25.9479   22.4416    2.4245 H         1 H6S         0.0986
     35 H6        -25.8577   24.5741    2.1027 H         1 H6S         0.0567
     36 H7        -26.4340   25.3793    3.6014 H         1 H6S         0.0567
     37 H8        -24.3425   26.3215    4.0506 H         1 H6S         0.0342
     38 H9        -24.5247   26.4970    2.2721 H         1 H6S         0.0342
     39 H10       -23.2514   23.9857    3.1270 H         1 H6S         0.0852
     40 H11       -22.3631   24.1074   -0.3107 H         1 H6S         0.0778
     41 H12       -23.7479   23.5670    0.6977 H         1 H6S         0.0778
     42 H13       -22.0673   23.1720    1.1940 H         1 H6S         0.0778
     43 H14       -20.5617   24.8074    1.3901 H         1 H6S         0.0814
     44 H15       -21.0968   26.3576    0.6571 H         1 H6S         0.0814
     45 H16       -21.3841   27.3964    2.7501 H         1 H6S         0.0319
     46 H17       -20.0133   26.2975    3.1244 H         1 H6S         0.0319
     47 H18       -21.3866   24.7402    4.2115 H         1 H6S         0.0322
     48 H19       -22.3303   26.2305    4.5507 H         1 H6S         0.0322
     49 H20       -25.0347   20.0792    2.3589 H         1 H6S         0.0310
     50 H21       -22.4196   16.6805    6.4464 H         1 H6S         0.0649
     51 H22       -22.7806   16.2422    4.0611 H         1 H6S         0.0765
     52 H23       -23.2280   25.8511    1.0194 H         1 H6S         0.2033
@<TRIPOS>BOND
     1    1    2 ar 
     2    6    1 ar 
     3    1   29 1  
     4    2    3 ar 
     5    4    3 ar 
     6    5    4 ar 
     7    6    5 ar 
     8    7    6 1  
     9    7   15 1  
    10   25    7 1  
    11    9    8 1  
    12    8   25 1  
    13   10    9 1  
    14   10   14 1  
    15   23   10 1  
    16   23   11 1  
    17   12   13 1  
    18   12   23 1  
    19   13   14 1  
    20   15   16 2  
    21   15   28 1  
    22   16   17 1  
    23   17   18 ar 
    24   17   24 ar 
    25   18   19 ar 
    26   18   28 1  
    27   19   20 1  
    28   19   21 ar 
    29   20   26 ar 
    30   20   27 ar 
    31   21   22 ar 
    32   22   24 ar 
    33    2   30 1  
    34    3   31 1  
    35    4   32 1  
    36    5   33 1  
    37    7   34 1  
    38    8   35 1  
    39    8   36 1  
    40    9   37 1  
    41    9   38 1  
    42   10   39 1  
    43   11   40 1  
    44   11   41 1  
    45   11   42 1  
    46   12   43 1  
    47   12   44 1  
    48   13   45 1  
    49   13   46 1  
    50   14   47 1  
    51   14   48 1  
    52   16   49 1  
    53   21   50 1  
    54   22   51 1  
    55   23   52 1  
@<TRIPOS>SUBSTRUCTURE
     1 H6S         1

