### 
### Created by X-TOOL on Wed Jan  1 15:39:35 2020
### 

@<TRIPOS>MOLECULE
6dqa_ligand
   54    57     1     0     0
SMALL
GAST_HUCK


@<TRIPOS>ATOM
      1 C02       -23.2700   17.9390    7.8260 C.2       1 H6V         0.0680
      2 C04       -23.4180   17.6060    6.3400 C.ar      1 H6V         0.0366
      3 C05       -24.0010   18.5300    5.4970 C.ar      1 H6V         0.0739
      4 C06       -24.1290   18.2310    4.1390 C.ar      1 H6V         0.0331
      5 C07       -24.7510   19.2860    3.3780 C.2       1 H6V        -0.0415
      6 C08       -25.0680   20.3720    4.1810 C.2       1 H6V         0.0661
      7 C09       -25.7190   21.6530    3.6920 C.3       1 H6V         0.1414
      8 C10       -26.9230   21.9020    4.5690 C.ar      1 H6V        -0.0103
      9 C11       -26.7940   22.6400    5.7430 C.ar      1 H6V        -0.0683
     10 C12       -27.9060   22.8590    6.5260 C.ar      1 H6V        -0.0795
     11 C13       -29.1420   22.3500    6.1480 C.ar      1 H6V        -0.0512
     12 C14       -29.2580   21.6270    4.9680 C.ar      1 H6V         0.0288
     13 C20       -28.1470   21.3930    4.1850 C.ar      1 H6V        -0.0387
     14 C22       -24.8170   23.6850    2.9960 C.3       1 H6V         0.0939
     15 C23       -23.6220   24.5920    3.2700 C.3       1 H6V        -0.0074
     16 C25       -23.4280   25.0740    0.9410 C.3       1 H6V        -0.0318
     17 C26       -22.6740   24.8210   -0.3620 C.3       1 H6V        -0.0123
     18 C27       -22.3530   23.3780   -0.5410 C.3       1 H6V        -0.0434
     19 C28       -21.6140   22.8410    0.6330 C.3       1 H6V        -0.0123
     20 C29       -22.3780   23.0810    1.9310 C.3       1 H6V        -0.0318
     21 C32       -23.1680   16.1670    4.4130 C.ar      1 H6V        -0.0038
     22 C33       -22.9940   16.4030    5.7810 C.ar      1 H6V        -0.0331
     23 N15       -30.5370   21.0800    4.5510 N.pl3     1 H6V        -0.3382
     24 N24       -22.7270   24.5150    2.1320 N.4       1 H6V         0.2369
     25 N31       -23.7310   17.0680    3.6330 N.ar      1 H6V        -0.3142
     26 O01       -22.5160   17.2640    8.5690 O.co2     1 H6V        -0.5592
     27 O03       -23.9040   18.9160    8.3020 O.co2     1 H6V        -0.5592
     28 O21       -24.7970   22.6670    3.9530 O.3       1 H6V        -0.3419
     29 S30       -24.6410   20.0780    5.8090 S.3       1 H6V        -0.0092
     30 H1        -24.9472   19.2366    2.3080 H         1 H6V         0.0310
     31 H2        -25.9904   21.6022    2.6272 H         1 H6V         0.0982
     32 H3        -25.8294   23.0376    6.0373 H         1 H6V         0.0454
     33 H4        -27.8161   23.4316    7.4420 H         1 H6V         0.0567
     34 H5        -30.0128   22.5165    6.7718 H         1 H6V         0.0462
     35 H6        -28.2346   20.8128    3.2735 H         1 H6V         0.0457
     36 H7        -24.7384   23.2540    1.9870 H         1 H6V         0.0618
     37 H8        -25.7515   24.2594    3.0776 H         1 H6V         0.0618
     38 H9        -23.0999   24.2565    4.1782 H         1 H6V         0.0837
     39 H10       -23.9642   25.6286    3.4056 H         1 H6V         0.0837
     40 H11       -24.4221   24.6087    0.8679 H         1 H6V         0.0814
     41 H12       -23.5404   26.1598    1.0769 H         1 H6V         0.0814
     42 H13       -21.7362   25.3958   -0.3487 H         1 H6V         0.0317
     43 H14       -23.2968   25.1549   -1.2050 H         1 H6V         0.0317
     44 H15       -21.7324   23.2576   -1.4412 H         1 H6V         0.0269
     45 H16       -23.2898   22.8146   -0.6634 H         1 H6V         0.0269
     46 H17       -20.6349   23.3383    0.6972 H         1 H6V         0.0317
     47 H18       -21.4677   21.7590    0.4991 H         1 H6V         0.0317
     48 H19       -21.7543   22.7485    2.7739 H         1 H6V         0.0814
     49 H20       -23.3068   22.4921    1.9075 H         1 H6V         0.0814
     50 H21       -22.8342   15.2275    3.9875 H         1 H6V         0.0765
     51 H22       -22.5290   15.6492    6.4060 H         1 H6V         0.0649
     52 H23       -31.3781   21.2439    5.1224 H         1 H6V         0.1718
     53 H24       -30.6030   20.5281    3.6838 H         1 H6V         0.1718
     54 H25       -21.8893   25.0467    2.3099 H         1 H6V         0.2034
@<TRIPOS>BOND
     1    2    1 1  
     2    1   26 ar 
     3    1   27 ar 
     4    3    2 ar 
     5    2   22 ar 
     6    3    4 ar 
     7   29    3 1  
     8    5    4 1  
     9    4   25 ar 
    10    6    5 2  
    11    7    6 1  
    12    6   29 1  
    13    7    8 1  
    14   28    7 1  
    15    8    9 ar 
    16    8   13 ar 
    17    9   10 ar 
    18   10   11 ar 
    19   12   11 ar 
    20   13   12 ar 
    21   12   23 1  
    22   15   14 1  
    23   14   28 1  
    24   24   15 1  
    25   16   17 1  
    26   16   24 1  
    27   17   18 1  
    28   18   19 1  
    29   19   20 1  
    30   20   24 1  
    31   22   21 ar 
    32   21   25 ar 
    33    5   30 1  
    34    7   31 1  
    35    9   32 1  
    36   10   33 1  
    37   11   34 1  
    38   13   35 1  
    39   14   36 1  
    40   14   37 1  
    41   15   38 1  
    42   15   39 1  
    43   16   40 1  
    44   16   41 1  
    45   17   42 1  
    46   17   43 1  
    47   18   44 1  
    48   18   45 1  
    49   19   46 1  
    50   19   47 1  
    51   20   48 1  
    52   20   49 1  
    53   21   50 1  
    54   22   51 1  
    55   23   52 1  
    56   23   53 1  
    57   24   54 1  
@<TRIPOS>SUBSTRUCTURE
     1 H6V         1

