### 
### Created by X-TOOL on Mon Jan  6 15:52:12 2020
### 

@<TRIPOS>MOLECULE
6dqb_ligand
   55    57     1     0     0
SMALL
GAST_HUCK


@<TRIPOS>ATOM
      1 C02       -23.3750   17.9770    7.8540 C.2       1 HZM         0.0680
      2 C04       -23.5420   17.5940    6.3870 C.ar      1 HZM         0.0366
      3 C05       -24.1150   18.5100    5.5150 C.ar      1 HZM         0.0739
      4 C06       -24.2510   18.1510    4.1740 C.ar      1 HZM         0.0331
      5 C07       -24.8580   19.1840    3.3710 C.2       1 HZM        -0.0415
      6 C08       -25.1890   20.3470    4.0790 C.2       1 HZM         0.0660
      7 C09       -25.8330   21.5860    3.4640 C.3       1 HZM         0.1403
      8 C10       -26.5600   22.4050    4.5250 C.ar      1 HZM        -0.0122
      9 C11       -25.8390   23.2680    5.3340 C.ar      1 HZM        -0.0704
     10 C12       -26.4950   24.0200    6.2950 C.ar      1 HZM        -0.0812
     11 C13       -27.8680   23.9160    6.4430 C.ar      1 HZM        -0.0477
     12 C14       -28.5960   23.0540    5.6360 C.ar      1 HZM         0.0599
     13 C16       -30.9080   21.9580    5.2530 C.2       1 HZM         0.2037
     14 C17       -32.4140   22.0300    5.5140 C.3       1 HZM         0.0480
     15 C18       -32.9380   20.7890    6.2350 C.3       1 HZM         0.0048
     16 C19       -34.2450   21.0700    6.9800 C.3       1 HZM        -0.0303
     17 C21       -35.2500   22.3280    8.7320 C.3       1 HZM        -0.0433
     18 C22       -33.0350   21.5150    8.9650 C.3       1 HZM        -0.0433
     19 C24       -27.9380   22.3070    4.6670 C.ar      1 HZM        -0.0353
     20 C26       -26.2290   21.2380    1.1830 C.3       1 HZM         0.0429
     21 C36       -23.3140   16.0670    4.5220 C.ar      1 HZM        -0.0038
     22 C37       -23.1350   16.3530    5.8820 C.ar      1 HZM        -0.0331
     23 N15       -30.0450   22.9880    5.8170 N.am      1 HZM        -0.2354
     24 N20       -34.0100   22.0450    8.0320 N.4       1 HZM         0.2310
     25 N35       -23.8600   16.9600    3.7160 N.ar      1 HZM        -0.3142
     26 O01       -23.9650   18.9950    8.2990 O.co2     1 HZM        -0.5592
     27 O03       -22.6400   17.2880    8.6000 O.co2     1 HZM        -0.5592
     28 O23       -30.4760   21.0660    4.6040 O.2       1 HZM        -0.3849
     29 O25       -26.7470   21.1900    2.4850 O.3       1 HZM        -0.3504
     30 S34       -24.7360   20.0950    5.6950 S.3       1 HZM        -0.0092
     31 H1        -25.0435   19.0697    2.3040 H         1 HZM         0.0310
     32 H2        -25.0504   22.2072    3.0040 H         1 HZM         0.0981
     33 H3        -24.7650   23.3546    5.2155 H         1 HZM         0.0437
     34 H4        -25.9320   24.6917    6.9329 H         1 HZM         0.0562
     35 H5        -28.3763   24.5111    7.1931 H         1 HZM         0.0451
     36 H6        -32.9358   22.1258    4.5504 H         1 HZM         0.0509
     37 H7        -32.6236   22.9141    6.1340 H         1 HZM         0.0509
     38 H8        -32.1814   20.4526    6.9591 H         1 HZM         0.0341
     39 H9        -33.1148   19.9955    5.4940 H         1 HZM         0.0341
     40 H10       -34.6206   20.1364    7.4242 H         1 HZM         0.0816
     41 H11       -34.9901   21.4661    6.2744 H         1 HZM         0.0816
     42 H12       -35.0627   23.0662    9.5257 H         1 HZM         0.0777
     43 H13       -35.6391   21.4009    9.1780 H         1 HZM         0.0777
     44 H14       -35.9877   22.7314    8.0227 H         1 HZM         0.0777
     45 H15       -32.0965   21.3013    8.4326 H         1 HZM         0.0777
     46 H16       -33.4220   20.5876    9.4124 H         1 HZM         0.0777
     47 H17       -32.8467   22.2539    9.7578 H         1 HZM         0.0777
     48 H18       -28.5021   21.6454    4.0196 H         1 HZM         0.0444
     49 H19       -27.0008   20.9143    0.4692 H         1 HZM         0.0529
     50 H20       -25.3585   20.5696    1.1098 H         1 HZM         0.0529
     51 H21       -25.9214   22.2677    0.9485 H         1 HZM         0.0529
     52 H22       -23.0023   15.1062    4.1285 H         1 HZM         0.0765
     53 H23       -22.6842   15.6181    6.5391 H         1 HZM         0.0649
     54 H24       -30.4759   23.7023    6.3685 H         1 HZM         0.2255
     55 H25       -33.6559   22.8965    7.6250 H         1 HZM         0.2028
@<TRIPOS>BOND
     1    2    1 1  
     2    1   26 ar 
     3    1   27 ar 
     4    3    2 ar 
     5    2   22 ar 
     6    3    4 ar 
     7   30    3 1  
     8    5    4 1  
     9    4   25 ar 
    10    6    5 2  
    11    7    6 1  
    12    6   30 1  
    13    8    7 1  
    14    7   29 1  
    15    8    9 ar 
    16   19    8 ar 
    17   10    9 ar 
    18   11   10 ar 
    19   12   11 ar 
    20   12   19 ar 
    21   23   12 1  
    22   13   14 1  
    23   23   13 am 
    24   13   28 2  
    25   14   15 1  
    26   15   16 1  
    27   16   24 1  
    28   24   17 1  
    29   24   18 1  
    30   29   20 1  
    31   22   21 ar 
    32   21   25 ar 
    33    5   31 1  
    34    7   32 1  
    35    9   33 1  
    36   10   34 1  
    37   11   35 1  
    38   14   36 1  
    39   14   37 1  
    40   15   38 1  
    41   15   39 1  
    42   16   40 1  
    43   16   41 1  
    44   17   42 1  
    45   17   43 1  
    46   17   44 1  
    47   18   45 1  
    48   18   46 1  
    49   18   47 1  
    50   19   48 1  
    51   20   49 1  
    52   20   50 1  
    53   20   51 1  
    54   21   52 1  
    55   22   53 1  
    56   23   54 1  
    57   24   55 1  
@<TRIPOS>SUBSTRUCTURE
     1 HZM         1

