### 
### Created by X-TOOL on Mon Aug  2 16:13:01 2021
### 

@<TRIPOS>MOLECULE
6drg_ligand
   80    82     1     0     0
SMALL
GAST_HUCK


@<TRIPOS>ATOM
      1 C26         1.6410   -6.6840    0.3880 C.3       1 MOL         0.0676
      2 C1          0.8010    4.8790    2.4770 C.3       1 MOL        -0.0301
      3 C10         1.7200    4.0590   -2.0170 C.3       1 MOL        -0.0327
      4 C11         3.0990    3.3700   -2.0650 C.3       1 MOL        -0.0510
      5 C12         4.1350    4.0890   -1.1870 C.3       1 MOL        -0.0501
      6 C13         4.0520    3.6770    0.3010 C.3       1 MOL        -0.0410
      7 C14         4.5190    4.7940    1.2630 C.3       1 MOL        -0.0502
      8 C15         4.3750    4.4130    2.7620 C.3       1 MOL        -0.0528
      9 C16         4.3060    2.8910    3.0200 C.3       1 MOL        -0.0530
     10 C17         5.2220    2.1420    2.0410 C.3       1 MOL        -0.0528
     11 C18         4.8080    2.3450    0.5700 C.3       1 MOL        -0.0502
     12 C19         1.7950    0.1990   -0.5090 C.3       1 MOL        -0.0020
     13 C2         -0.5370    4.5630    1.7600 C.3       1 MOL         0.0424
     14 C20         1.5690   -1.2020    0.0180 C.ar      1 MOL        -0.0478
     15 C21         2.5760   -2.1490   -0.1460 C.ar      1 MOL        -0.0660
     16 C22         2.3910   -3.4370    0.3330 C.ar      1 MOL        -0.0564
     17 C23         1.2060   -3.7770    0.9760 C.ar      1 MOL         0.0082
     18 C24         0.2070   -2.8280    1.1690 C.ar      1 MOL        -0.0564
     19 C25         0.3900   -1.5350    0.6960 C.ar      1 MOL        -0.0660
     20 C27         1.4890   -6.2290   -1.0920 C.2       1 MOL         0.0624
     21 C28         0.7960   -7.9560    0.5390 C.3       1 MOL        -0.0441
     22 C29         3.1200   -7.0050    0.7180 C.3       1 MOL        -0.0441
     23 C3         -1.5450    3.9060    2.7370 C.3       1 MOL        -0.0301
     24 C4         -1.8760    4.8010    3.9440 C.3       1 MOL        -0.0510
     25 C55        -0.6700    5.6360    4.4320 C.3       1 MOL        -0.0529
     26 C6          0.6900    5.0510    4.0080 C.3       1 MOL        -0.0510
     27 C7         -0.0520    2.5860    0.3020 C.2       1 MOL         0.2603
     28 C8          0.5850    0.7980   -1.2630 C.3       1 MOL         0.0429
     29 C9          0.4970    3.1280   -2.0950 C.3       1 MOL         0.0344
     30 N2          0.3460    2.2160   -0.9490 N.am      1 MOL        -0.2577
     31 N1         -0.3570    3.8900    0.4700 N.am      1 MOL        -0.2700
     32 O2          0.5540   -5.4560   -1.4020 O.co2     1 MOL        -0.5465
     33 O1         -0.1290    1.7790    1.2300 O.2       1 MOL        -0.4006
     34 O3          2.2770   -6.7170   -1.9310 O.co2     1 MOL        -0.5465
     35 S1          0.9210   -5.4300    1.5290 S.3       1 MOL        -0.0972
     36 H1          1.2029    5.8124    2.0560 H         1 MOL         0.0287
     37 H2          1.5006    4.0545    2.2751 H         1 MOL         0.0287
     38 H3          1.6642    4.7594   -2.8634 H         1 MOL         0.0284
     39 H4          1.6565    4.6193   -1.0726 H         1 MOL         0.0284
     40 H5          3.4574    3.3656   -3.1050 H         1 MOL         0.0266
     41 H6          2.9907    2.3345   -1.7100 H         1 MOL         0.0266
     42 H7          3.9657    5.1734   -1.2609 H         1 MOL         0.0268
     43 H8          5.1406    3.8484   -1.5622 H         1 MOL         0.0268
     44 H9          2.9896    3.4939    0.5196 H         1 MOL         0.0301
     45 H10         3.9162    5.6941    1.0720 H         1 MOL         0.0268
     46 H11         5.5776    5.0114    1.0581 H         1 MOL         0.0268
     47 H12         3.4527    4.8714    3.1483 H         1 MOL         0.0265
     48 H13         5.2412    4.8171    3.3063 H         1 MOL         0.0265
     49 H14         3.2703    2.5465    2.8836 H         1 MOL         0.0265
     50 H15         4.6290    2.6827    4.0506 H         1 MOL         0.0265
     51 H16         5.1826    1.0675    2.2732 H         1 MOL         0.0265
     52 H17         6.2512    2.5078    2.1712 H         1 MOL         0.0265
     53 H18         5.7169    2.3325   -0.0494 H         1 MOL         0.0268
     54 H19         4.1532    1.5110    0.2773 H         1 MOL         0.0268
     55 H20         2.6521    0.1739   -1.1980 H         1 MOL         0.0432
     56 H21         2.0286    0.8542    0.3432 H         1 MOL         0.0432
     57 H22        -0.9768    5.5388    1.5065 H         1 MOL         0.0553
     58 H23         3.4999   -1.8809   -0.6456 H         1 MOL         0.0540
     59 H24         3.1707   -4.1793    0.2061 H         1 MOL         0.0548
     60 H25        -0.7079   -3.0959    1.6850 H         1 MOL         0.0548
     61 H26        -0.3778   -0.7857    0.8513 H         1 MOL         0.0540
     62 H27         0.8677   -8.3232    1.5734 H         1 MOL         0.0236
     63 H28         1.1686   -8.7277   -0.1506 H         1 MOL         0.0236
     64 H29        -0.2540   -7.7289    0.3025 H         1 MOL         0.0236
     65 H30         3.7260   -6.0934    0.6098 H         1 MOL         0.0236
     66 H31         3.4910   -7.7760    0.0267 H         1 MOL         0.0236
     67 H32         3.1934   -7.3735    1.7518 H         1 MOL         0.0236
     68 H33        -1.1135    2.9639    3.1061 H         1 MOL         0.0287
     69 H34        -2.4761    3.6939    2.1911 H         1 MOL         0.0287
     70 H35        -2.2155    4.1606    4.7714 H         1 MOL         0.0266
     71 H36        -2.6847    5.4894    3.6575 H         1 MOL         0.0266
     72 H37        -0.7013    5.6850    5.5304 H         1 MOL         0.0265
     73 H38        -0.7577    6.6509    4.0170 H         1 MOL         0.0265
     74 H39         1.4878    5.7283    4.3469 H         1 MOL         0.0266
     75 H40         0.8165    4.0678    4.4848 H         1 MOL         0.0266
     76 H41        -0.3137    0.2244   -0.9922 H         1 MOL         0.0540
     77 H42         0.7670    0.7059   -2.3439 H         1 MOL         0.0540
     78 H43         0.5863    2.5202   -3.0075 H         1 MOL         0.0519
     79 H44        -0.4062    3.7527   -2.1574 H         1 MOL         0.0519
     80 H45        -0.4697    4.4438   -0.3550 H         1 MOL         0.1848
@<TRIPOS>BOND
     1    1   20 1  
     2    1   21 1  
     3    1   22 1  
     4   35    1 1  
     5   13    2 1  
     6    2   26 1  
     7    3    4 1  
     8   29    3 1  
     9    4    5 1  
    10    5    6 1  
    11    6    7 1  
    12    6   11 1  
    13    7    8 1  
    14    8    9 1  
    15   10    9 1  
    16   11   10 1  
    17   12   14 1  
    18   28   12 1  
    19   13   23 1  
    20   31   13 1  
    21   14   15 ar 
    22   14   19 ar 
    23   15   16 ar 
    24   16   17 ar 
    25   18   17 ar 
    26   17   35 1  
    27   19   18 ar 
    28   20   32 ar 
    29   20   34 ar 
    30   23   24 1  
    31   24   25 1  
    32   26   25 1  
    33   30   27 am 
    34   27   31 am 
    35   27   33 2  
    36   30   28 1  
    37   29   30 1  
    38    2   36 1  
    39    2   37 1  
    40    3   38 1  
    41    3   39 1  
    42    4   40 1  
    43    4   41 1  
    44    5   42 1  
    45    5   43 1  
    46    6   44 1  
    47    7   45 1  
    48    7   46 1  
    49    8   47 1  
    50    8   48 1  
    51    9   49 1  
    52    9   50 1  
    53   10   51 1  
    54   10   52 1  
    55   11   53 1  
    56   11   54 1  
    57   12   55 1  
    58   12   56 1  
    59   13   57 1  
    60   15   58 1  
    61   16   59 1  
    62   18   60 1  
    63   19   61 1  
    64   21   62 1  
    65   21   63 1  
    66   21   64 1  
    67   22   65 1  
    68   22   66 1  
    69   22   67 1  
    70   23   68 1  
    71   23   69 1  
    72   24   70 1  
    73   24   71 1  
    74   25   72 1  
    75   25   73 1  
    76   26   74 1  
    77   26   75 1  
    78   28   76 1  
    79   28   77 1  
    80   29   78 1  
    81   29   79 1  
    82   31   80 1  
@<TRIPOS>SUBSTRUCTURE
     1 MOL         1

