### 
### Created by X-TOOL on Wed Jan  1 15:39:38 2020
### 

@<TRIPOS>MOLECULE
6drx_ligand
   52    55     1     0     0
SMALL
GAST_HUCK


@<TRIPOS>ATOM
      1 CAA       -16.3470  -19.7510    9.1640 C.3       1 H8G        -0.0449
      2 CAB       -17.5280  -18.8220   13.5210 C.3       1 H8G        -0.0449
      3 CAC       -20.7450  -18.4740    5.4270 C.3       1 H8G        -0.0414
      4 CAE       -21.1780  -17.1350    9.1920 C.2       1 H8G        -0.0489
      5 CAF       -23.7220  -13.7830    9.8170 C.ar      1 H8G        -0.0800
      6 CAG       -22.9480  -14.9290    9.6700 C.ar      1 H8G        -0.0765
      7 CAH       -23.9960  -12.9980    8.7010 C.ar      1 H8G        -0.0478
      8 CAI       -22.8980  -13.6630    5.4900 C.2       1 H8G         0.0160
      9 CAJ       -16.5840  -18.7340   10.2420 C.3       1 H8G         0.0314
     10 CAK       -17.1800  -19.7920   12.3940 C.3       1 H8G         0.0314
     11 CAL       -21.5930  -15.7920    5.8150 C.3       1 H8G         0.0137
     12 CAM       -20.8660  -18.9520    7.7010 C.3       1 H8G         0.0008
     13 CAP       -18.9830  -19.1390   10.7960 C.2       1 H8G         0.2623
     14 CAQ       -21.6970  -16.3780    8.1410 C.2       1 H8G        -0.0054
     15 CAR       -22.3740  -14.6880    6.1380 C.2       1 H8G        -0.0406
     16 CAS       -22.4750  -15.2580    8.4050 C.ar      1 H8G        -0.0389
     17 CAT       -23.5230  -13.3440    7.4980 C.ar      1 H8G         0.0570
     18 CAU       -22.7800  -14.4600    7.3920 C.ar      1 H8G        -0.0183
     19 CAV       -20.7420  -18.4560    9.1290 C.3       1 H8G         0.1043
     20 CAW       -21.7390  -16.9100    6.8540 C.3       1 H8G         0.0076
     21 NAN       -19.3540  -18.5480    9.5170 N.am      1 H8G        -0.2549
     22 NAO       -23.5840  -12.8510    6.2640 N.pl3     1 H8G        -0.2903
     23 NAX       -20.6730  -17.9060    6.6920 N.4       1 H8G         0.2482
     24 NAY       -17.5730  -19.2250   11.1550 N.am      1 H8G        -0.2599
     25 OAD       -19.8560  -19.5580   11.5620 O.2       1 H8G        -0.4005
     26 H1        -15.5876  -19.3729    8.4638 H         1 H8G         0.0249
     27 H2        -17.2859  -19.9361    8.6217 H         1 H8G         0.0249
     28 H3        -15.9937  -20.6893    9.6164 H         1 H8G         0.0249
     29 H4        -17.2254  -19.2565   14.4852 H         1 H8G         0.0249
     30 H5        -18.6127  -18.6391   13.5256 H         1 H8G         0.0249
     31 H6        -16.9966  -17.8718   13.3641 H         1 H8G         0.0249
     32 H7        -19.9435  -19.2188    5.3134 H         1 H8G         0.0778
     33 H8        -20.6269  -17.6892    4.6654 H         1 H8G         0.0778
     34 H9        -21.7216  -18.9641    5.3001 H         1 H8G         0.0778
     35 H10       -21.1066  -16.6423   10.1606 H         1 H8G         0.0554
     36 H11       -24.1079  -13.5040   10.7908 H         1 H8G         0.0524
     37 H12       -22.7180  -15.5537   10.5255 H         1 H8G         0.0481
     38 H13       -24.5959  -12.1013    8.8068 H         1 H8G         0.0512
     39 H14       -22.7740  -13.5059    4.4195 H         1 H8G         0.0787
     40 H15       -16.9371  -17.7957    9.7893 H         1 H8G         0.0516
     41 H16       -15.6449  -18.5490   10.7840 H         1 H8G         0.0516
     42 H17       -17.7115  -20.7425   12.5490 H         1 H8G         0.0516
     43 H18       -16.0954  -19.9751   12.3876 H         1 H8G         0.0516
     44 H19       -20.5385  -15.4823    5.7697 H         1 H8G         0.0422
     45 H20       -21.9053  -16.1750    4.8323 H         1 H8G         0.0422
     46 H21       -21.8705  -19.3802    7.5687 H         1 H8G         0.0863
     47 H22       -20.1097  -19.7341    7.5387 H         1 H8G         0.0863
     48 H23       -21.3558  -19.0777    9.7973 H         1 H8G         0.0760
     49 H24       -22.7104  -17.4044    6.7057 H         1 H8G         0.0986
     50 H25       -18.6429  -18.2038    8.9039 H         1 H8G         0.1879
     51 H26       -24.0757  -11.9949    5.9703 H         1 H8G         0.2215
     52 H27       -19.7736  -17.4683    6.8167 H         1 H8G         0.2048
@<TRIPOS>BOND
     1    9    1 1  
     2   10    2 1  
     3   23    3 1  
     4    4   14 2  
     5   19    4 1  
     6    6    5 ar 
     7    5    7 ar 
     8   16    6 ar 
     9   17    7 ar 
    10   15    8 2  
    11    8   22 1  
    12   24    9 1  
    13   24   10 1  
    14   11   15 1  
    15   20   11 1  
    16   19   12 1  
    17   12   23 1  
    18   21   13 am 
    19   13   24 am 
    20   13   25 2  
    21   14   16 1  
    22   14   20 1  
    23   18   15 1  
    24   16   18 ar 
    25   18   17 ar 
    26   17   22 1  
    27   19   21 1  
    28   20   23 1  
    29    1   26 1  
    30    1   27 1  
    31    1   28 1  
    32    2   29 1  
    33    2   30 1  
    34    2   31 1  
    35    3   32 1  
    36    3   33 1  
    37    3   34 1  
    38    4   35 1  
    39    5   36 1  
    40    6   37 1  
    41    7   38 1  
    42    8   39 1  
    43    9   40 1  
    44    9   41 1  
    45   10   42 1  
    46   10   43 1  
    47   11   44 1  
    48   11   45 1  
    49   12   46 1  
    50   12   47 1  
    51   19   48 1  
    52   20   49 1  
    53   21   50 1  
    54   22   51 1  
    55   23   52 1  
@<TRIPOS>SUBSTRUCTURE
     1 H8G         1

