### 
### Created by X-TOOL on Wed Jan  1 15:39:38 2020
### 

@<TRIPOS>MOLECULE
6dry_ligand
   51    54     1     0     0
SMALL
GAST_HUCK


@<TRIPOS>ATOM
      1 C4        -26.3900  -13.0290    8.2180 C.ar      1 H8D        -0.0476
      2 C14       -22.6980  -18.0230    9.9270 C.3       1 H8D         0.1097
      3 C5        -26.1560  -13.5930    9.4750 C.ar      1 H8D        -0.0797
      4 C6        -24.6320  -15.1450    8.4390 C.ar      1 H8D        -0.0383
      5 C11       -23.7440  -16.9370    7.3970 C.3       1 H8D         0.0081
      6 C7        -24.3300  -14.9860    6.2170 C.2       1 H8D        -0.0405
      7 C8        -24.8240  -14.1890    5.2690 C.2       1 H8D         0.0161
      8 C9        -23.7530  -16.2210    8.5980 C.2       1 H8D        -0.0048
      9 C10       -23.4570  -16.8560    9.8110 C.2       1 H8D        -0.0524
     10 C12       -22.7910  -18.7890    6.3110 C.3       1 H8D        -0.0413
     11 C13       -22.9570  -18.7900    8.6420 C.3       1 H8D        -0.0031
     12 N1        -25.6810  -13.3120    5.8280 N.pl3     1 H8D        -0.2902
     13 N2        -22.7030  -17.9750    7.4550 N.4       1 H8D         0.2485
     14 C3        -24.9200  -14.5420    7.2950 C.ar      1 H8D        -0.0180
     15 N3        -21.8220  -19.6440   11.5680 N.am      1 H8D        -0.2797
     16 C1        -25.7580  -13.5260    7.1520 C.ar      1 H8D         0.0572
     17 C15       -23.4390  -16.0420    6.2000 C.3       1 H8D         0.0139
     18 C16       -22.9060  -18.9080   11.1470 C.2       1 H8D         0.1946
     19 C19       -21.8960  -20.3880   12.7960 C.3       1 H8D         0.0649
     20 C2        -25.2610  -14.6700    9.5900 C.ar      1 H8D        -0.0762
     21 C20       -21.6250  -21.8590   12.5640 C.3       1 H8D        -0.0306
     22 C21       -22.8570  -22.5260   11.9570 C.3       1 H8D        -0.0631
     23 C22       -20.8880  -19.8600   13.7840 C.3       1 H8D         0.0671
     24 O1        -24.1120  -18.9690   11.7610 O.2       1 H8D        -0.3934
     25 O2        -21.3720  -18.6540   14.3400 O.3       1 H8D        -0.3927
     26 H1        -27.0769  -12.1974    8.1096 H         1 H8D         0.0514
     27 H2        -21.6406  -17.7208    9.9492 H         1 H8D         0.0737
     28 H3        -26.6598  -13.2036   10.3523 H         1 H8D         0.0524
     29 H4        -24.7287  -17.4064    7.2557 H         1 H8D         0.0989
     30 H5        -24.5743  -14.2389    4.2102 H         1 H8D         0.0788
     31 H6        -23.8448  -16.4097   10.7255 H         1 H8D         0.0551
     32 H7        -22.0132  -19.5657    6.3529 H         1 H8D         0.0778
     33 H8        -22.6463  -18.1734    5.4109 H         1 H8D         0.0778
     34 H9        -23.7823  -19.2644    6.2746 H         1 H8D         0.0778
     35 H10       -24.0071  -19.1172    8.6296 H         1 H8D         0.0868
     36 H11       -22.2982  -19.6705    8.6154 H         1 H8D         0.0868
     37 H12       -26.2004  -12.5849    5.3157 H         1 H8D         0.2215
     38 H13       -21.7896  -17.5521    7.5084 H         1 H8D         0.2049
     39 H14       -20.9850  -19.6613   11.0211 H         1 H8D         0.1856
     40 H15       -23.5557  -16.6136    5.2674 H         1 H8D         0.0423
     41 H16       -22.4091  -15.6623    6.2709 H         1 H8D         0.0423
     42 H17       -22.9063  -20.2736   13.2158 H         1 H8D         0.0578
     43 H18       -25.0631  -15.1231   10.5547 H         1 H8D         0.0483
     44 H19       -21.3848  -22.3411   13.5231 H         1 H8D         0.0285
     45 H20       -20.7745  -21.9688   11.8752 H         1 H8D         0.0285
     46 H21       -22.6517  -23.5940   11.7917 H         1 H8D         0.0230
     47 H22       -23.0982  -22.0462   10.9970 H         1 H8D         0.0230
     48 H23       -23.7086  -22.4185   12.6449 H         1 H8D         0.0230
     49 H24       -19.9333  -19.6718   13.2710 H         1 H8D         0.0580
     50 H25       -20.7349  -20.5990   14.5843 H         1 H8D         0.0580
     51 H26       -20.7392  -18.3177   14.9637 H         1 H8D         0.2095
@<TRIPOS>BOND
     1    3    1 ar 
     2    1   16 ar 
     3    9    2 1  
     4    2   11 1  
     5    2   18 1  
     6   20    3 ar 
     7    8    4 1  
     8    4   14 ar 
     9    4   20 ar 
    10    8    5 1  
    11    5   13 1  
    12    5   17 1  
    13    6    7 2  
    14   14    6 1  
    15   17    6 1  
    16    7   12 1  
    17    8    9 2  
    18   13   10 1  
    19   11   13 1  
    20   12   16 1  
    21   14   16 ar 
    22   18   15 am 
    23   15   19 1  
    24   18   24 2  
    25   19   21 1  
    26   19   23 1  
    27   21   22 1  
    28   23   25 1  
    29    1   26 1  
    30    2   27 1  
    31    3   28 1  
    32    5   29 1  
    33    7   30 1  
    34    9   31 1  
    35   10   32 1  
    36   10   33 1  
    37   10   34 1  
    38   11   35 1  
    39   11   36 1  
    40   12   37 1  
    41   13   38 1  
    42   15   39 1  
    43   17   40 1  
    44   17   41 1  
    45   19   42 1  
    46   20   43 1  
    47   21   44 1  
    48   21   45 1  
    49   22   46 1  
    50   22   47 1  
    51   22   48 1  
    52   23   49 1  
    53   23   50 1  
    54   25   51 1  
@<TRIPOS>SUBSTRUCTURE
     1 H8D         1

