### 
### Created by X-TOOL on Wed Jan  1 15:39:38 2020
### 

@<TRIPOS>MOLECULE
6drz_ligand
   54    57     1     0     0
SMALL
GAST_HUCK


@<TRIPOS>ATOM
      1 CAA        22.9590   22.3970   12.4670 C.3       1 H8J        -0.0631
      2 CAB        22.5300   18.9300    6.2670 C.3       1 H8J        -0.0413
      3 CAC        26.3890   12.3850    5.1620 C.3       1 H8J         0.0372
      4 CAF        22.9430   16.7060    9.6720 C.2       1 H8J        -0.0524
      5 CAG        25.8190   13.4990    9.4990 C.ar      1 H8J        -0.0797
      6 CAH        24.9980   14.6180    9.6640 C.ar      1 H8J        -0.0762
      7 CAI        26.1210   12.9910    8.2390 C.ar      1 H8J        -0.0474
      8 CAJ        24.9340   14.3540    5.2700 C.2       1 H8J         0.0186
      9 CAK        21.6050   21.7800   12.6440 C.3       1 H8J        -0.0306
     10 CAL        20.8060   19.8420   13.9550 C.3       1 H8J         0.0671
     11 CAM        23.5650   16.2890    6.1210 C.3       1 H8J         0.0139
     12 CAN        22.4230   18.7360    8.6160 C.3       1 H8J        -0.0031
     13 CAP        22.4040   18.6390   11.1090 C.2       1 H8J         0.1946
     14 CAQ        23.6520   16.3550    8.5170 C.2       1 H8J        -0.0048
     15 CAR        24.3860   15.1650    6.1570 C.2       1 H8J        -0.0403
     16 CAS        24.4840   15.2190    8.5140 C.ar      1 H8J        -0.0383
     17 CAT        25.6120   13.5920    7.1660 C.ar      1 H8J         0.0594
     18 CAU        24.8160   14.6780    7.3340 C.ar      1 H8J        -0.0179
     19 CAV        22.1330   17.8490    9.8110 C.3       1 H8J         0.1097
     20 CAW        21.7420   20.2780   12.8460 C.3       1 H8J         0.0649
     21 CAX        23.6620   17.1600    7.3750 C.3       1 H8J         0.0081
     22 NAO        21.4440   19.5730   11.6330 N.am      1 H8J        -0.2797
     23 NAY        22.4650   17.9970    7.3630 N.4       1 H8J         0.2485
     24 NAZ        25.6610   13.4210    5.8490 N.pl3     1 H8J        -0.2789
     25 OAD        23.4580   18.4720   11.6940 O.2       1 H8J        -0.3934
     26 OAE        21.3030   18.6340   14.5450 O.3       1 H8J        -0.3927
     27 H1         22.8513   23.4820   12.3217 H         1 H8J         0.0230
     28 H2         23.4506   21.9563   11.5872 H         1 H8J         0.0230
     29 H3         23.5690   22.2058   13.3622 H         1 H8J         0.0230
     30 H4         21.6257   19.5564    6.2646 H         1 H8J         0.0778
     31 H5         22.5956   18.3772    5.3183 H         1 H8J         0.0778
     32 H6         23.4182   19.5688    6.3814 H         1 H8J         0.0778
     33 H7         26.2445   12.4932    4.0769 H         1 H8J         0.0559
     34 H8         26.0187   11.4008    5.4848 H         1 H8J         0.0559
     35 H9         27.4597   12.4699    5.3996 H         1 H8J         0.0559
     36 H10        23.0246   16.0420   10.5313 H         1 H8J         0.0551
     37 H11        26.2317   13.0137   10.3761 H         1 H8J         0.0524
     38 H12        24.7686   15.0053   10.6501 H         1 H8J         0.0483
     39 H13        26.7594   12.1213    8.1333 H         1 H8J         0.0514
     40 H14        24.8010   14.4456    4.1930 H         1 H8J         0.0790
     41 H15        20.9963   21.9734   11.7484 H         1 H8J         0.0285
     42 H16        21.1146   22.2229   13.5234 H         1 H8J         0.0285
     43 H17        19.8029   19.6631   13.5405 H         1 H8J         0.0580
     44 H18        20.7512   20.6297   14.7208 H         1 H8J         0.0580
     45 H19        22.5229   15.9548    6.0097 H         1 H8J         0.0423
     46 H20        23.8492   16.8993    5.2511 H         1 H8J         0.0423
     47 H21        23.3966   19.2246    8.7688 H         1 H8J         0.0868
     48 H22        21.6357   19.5011    8.5467 H         1 H8J         0.0868
     49 H23        21.0764   17.5431    9.8022 H         1 H8J         0.0737
     50 H24        22.7771   20.0501   13.1404 H         1 H8J         0.0578
     51 H25        24.5733   17.7757    7.3546 H         1 H8J         0.0989
     52 H26        20.5785   19.7291   11.1570 H         1 H8J         0.1856
     53 H27        21.6428   17.4211    7.2718 H         1 H8J         0.2049
     54 H28        20.7177   18.3586   15.2408 H         1 H8J         0.2095
@<TRIPOS>BOND
     1    9    1 1  
     2   23    2 1  
     3   24    3 1  
     4    4   14 2  
     5   19    4 1  
     6    6    5 ar 
     7    5    7 ar 
     8   16    6 ar 
     9   17    7 ar 
    10   15    8 2  
    11    8   24 1  
    12   20    9 1  
    13   20   10 1  
    14   10   26 1  
    15   11   15 1  
    16   21   11 1  
    17   19   12 1  
    18   12   23 1  
    19   13   19 1  
    20   22   13 am 
    21   13   25 2  
    22   14   16 1  
    23   14   21 1  
    24   18   15 1  
    25   16   18 ar 
    26   18   17 ar 
    27   17   24 1  
    28   20   22 1  
    29   21   23 1  
    30    1   27 1  
    31    1   28 1  
    32    1   29 1  
    33    2   30 1  
    34    2   31 1  
    35    2   32 1  
    36    3   33 1  
    37    3   34 1  
    38    3   35 1  
    39    4   36 1  
    40    5   37 1  
    41    6   38 1  
    42    7   39 1  
    43    8   40 1  
    44    9   41 1  
    45    9   42 1  
    46   10   43 1  
    47   10   44 1  
    48   11   45 1  
    49   11   46 1  
    50   12   47 1  
    51   12   48 1  
    52   19   49 1  
    53   20   50 1  
    54   21   51 1  
    55   22   52 1  
    56   23   53 1  
    57   26   54 1  
@<TRIPOS>SUBSTRUCTURE
     1 H8J         1

