### 
### Created by X-TOOL on Wed Jan  1 15:39:38 2020
### 

@<TRIPOS>MOLECULE
6ds0_ligand
   50    53     1     0     0
SMALL
GAST_HUCK


@<TRIPOS>ATOM
      1 CAA        16.4200   24.1540   11.2300 C.3       1 H8M         0.0553
      2 CAB        19.3880   23.3400   13.4390 C.3       1 H8M         0.0570
      3 CAC        24.4410   12.1310    7.8540 C.3       1 H8M        -0.0385
      4 CAE        17.9090   20.5100    9.6010 C.ar      1 H8M        -0.0790
      5 CAF        17.4630   21.8410    9.7260 C.ar      1 H8M        -0.0476
      6 CAG        23.7280   13.3650    9.9740 C.ar      1 H8M        -0.0774
      7 CAH        23.0590   14.4900   10.5780 C.ar      1 H8M        -0.0528
      8 CAI        23.1390   14.3000    7.7520 C.ar      1 H8M        -0.0800
      9 CAJ        20.9610   18.6540    6.6380 C.3       1 H8M        -0.0297
     10 CAK        21.4030   17.1700    6.5520 C.3       1 H8M        -0.0019
     11 CAL        19.5200   18.6020   10.1580 C.3       1 H8M         0.0287
     12 CAQ        23.7630   13.2760    8.5290 C.ar      1 H8M        -0.0673
     13 CAR        19.0320   20.0730   10.3140 C.ar      1 H8M        -0.0410
     14 CAS        19.7180   20.9730   11.1520 C.ar      1 H8M         0.0610
     15 CAT        18.1420   22.7320   10.5630 C.ar      1 H8M         0.1130
     16 CAU        21.7360   16.6380    7.8920 C.2       1 H8M        -0.0402
     17 CAV        19.2690   22.3030   11.2760 C.ar      1 H8M         0.1275
     18 CAW        21.3440   17.3070    9.0770 C.2       1 H8M         0.0868
     19 CAX        22.4790   15.4400    9.7850 C.ar      1 H8M         0.0503
     20 CAY        22.5080   15.3620    8.3860 C.ar      1 H8M        -0.0389
     21 CAZ        20.5890   18.5830    9.0790 C.3       1 H8M         0.0376
     22 NAM        19.9770   18.7950    7.7660 N.4       1 H8M         0.2445
     23 NAN        21.8140   16.5550   10.0260 N.pl3     1 H8M        -0.2799
     24 OAO        17.6980   24.0400   10.6790 O.3       1 H8M        -0.3294
     25 OAP        19.9580   23.2130   12.1250 O.3       1 H8M        -0.3257
     26 CLAD       21.1100   20.4470   12.0360 Cl        1 H8M        -0.0885
     27 H1         16.1397   25.2160   11.2892 H         1 H8M         0.0570
     28 H2         16.4155   23.7168   12.2394 H         1 H8M         0.0570
     29 H3         15.6981   23.6191   10.5955 H         1 H8M         0.0570
     30 H4         19.9781   24.0586   14.0267 H         1 H8M         0.0573
     31 H5         19.3987   22.3606   13.9396 H         1 H8M         0.0573
     32 H6         18.3513   23.6981   13.3559 H         1 H8M         0.0573
     33 H7         24.8576   11.4525    8.6130 H         1 H8M         0.0368
     34 H8         25.2529   12.5101    7.2159 H         1 H8M         0.0368
     35 H9         23.7124   11.5863    7.2356 H         1 H8M         0.0368
     36 H10        17.3808   19.8222    8.9506 H         1 H8M         0.0437
     37 H11        16.5926   22.1745    9.1727 H         1 H8M         0.0495
     38 H12        24.1944   12.6028   10.5876 H         1 H8M         0.0458
     39 H13        23.0161   14.5821   11.6572 H         1 H8M         0.0520
     40 H14        23.1582   14.2478    6.6694 H         1 H8M         0.0432
     41 H15        20.4867   18.9551    5.6923 H         1 H8M         0.0826
     42 H16        21.8370   19.2915    6.8282 H         1 H8M         0.0826
     43 H17        22.2893   17.0954    5.9048 H         1 H8M         0.0371
     44 H18        20.5839   16.5749    6.1220 H         1 H8M         0.0371
     45 H19        18.6788   17.9573    9.8635 H         1 H8M         0.0484
     46 H20        19.9411   18.2439   11.1090 H         1 H8M         0.0484
     47 H21        21.2946   19.4034    9.2766 H         1 H8M         0.1055
     48 H22        19.2420   18.1169    7.6395 H         1 H8M         0.2034
     49 H23        19.5859   19.7236    7.7387 H         1 H8M         0.2034
     50 H24        21.6621   16.8394   11.0043 H         1 H8M         0.2204
@<TRIPOS>BOND
     1   24    1 1  
     2   25    2 1  
     3   12    3 1  
     4    4    5 ar 
     5   13    4 ar 
     6    5   15 ar 
     7    6    7 ar 
     8   12    6 ar 
     9    7   19 ar 
    10    8   12 ar 
    11   20    8 ar 
    12   10    9 1  
    13    9   22 1  
    14   16   10 1  
    15   11   13 1  
    16   21   11 1  
    17   13   14 ar 
    18   14   17 ar 
    19   14   26 1  
    20   17   15 ar 
    21   15   24 1  
    22   18   16 2  
    23   16   20 1  
    24   17   25 1  
    25   18   21 1  
    26   18   23 1  
    27   19   20 ar 
    28   19   23 1  
    29   21   22 1  
    30    1   27 1  
    31    1   28 1  
    32    1   29 1  
    33    2   30 1  
    34    2   31 1  
    35    2   32 1  
    36    3   33 1  
    37    3   34 1  
    38    3   35 1  
    39    4   36 1  
    40    5   37 1  
    41    6   38 1  
    42    7   39 1  
    43    8   40 1  
    44    9   41 1  
    45    9   42 1  
    46   10   43 1  
    47   10   44 1  
    48   11   45 1  
    49   11   46 1  
    50   21   47 1  
    51   22   48 1  
    52   22   49 1  
    53   23   50 1  
@<TRIPOS>SUBSTRUCTURE
     1 H8M         1

