### 
### Created by X-TOOL on Mon Aug  2 16:13:01 2021
### 

@<TRIPOS>MOLECULE
6dsp_ligand
   20    20     1     0     0
SMALL
GAST_HUCK


@<TRIPOS>ATOM
      1 O3         29.1620   67.4290   99.8080 O.3       1 PAV        -0.3607
      2 C4         28.9840   66.8510   98.4990 C.3       1 PAV         0.2222
      3 C11        29.8360   65.5790   98.2880 C.3       1 PAV        -0.0053
      4 O5         29.6560   67.8640   97.5630 O.3       1 PAV        -0.3418
      5 C6         29.0850   67.7110   96.3370 C.3       1 PAV         0.0823
      6 C7         27.8760   66.7710   96.4970 C.3       1 PAV         0.1371
      7 O12        26.7500   67.2810   95.7900 O.3       1 PAV        -0.3840
      8 C8         27.7100   66.7370   98.0200 C.3       1 PAV         0.2488
      9 O1         27.1430   65.5210   98.4250 O.3       1 PAV        -0.3588
     10 O13        26.9350   67.8340   98.4490 O.3       1 PAV        -0.3588
     11 H1         28.7424   68.2809   99.8365 H         1 PAV         0.2129
     12 H2         29.4445   64.7668   98.9181 H         1 PAV         0.0283
     13 H3         30.8801   65.7869   98.5648 H         1 PAV         0.0283
     14 H4         29.7898   65.2779   97.2310 H         1 PAV         0.0283
     15 H5         29.8114   67.2712   95.6378 H         1 PAV         0.0588
     16 H6         28.7523   68.6871   95.9543 H         1 PAV         0.0588
     17 H7         28.1028   65.7645   96.1156 H         1 PAV         0.0672
     18 H8         26.0145   66.6898   95.8993 H         1 PAV         0.2101
     19 H9         26.2724   65.4395   98.0535 H         1 PAV         0.2130
     20 H10        26.0630   67.7688   98.0777 H         1 PAV         0.2130
@<TRIPOS>BOND
     1    1    2 1  
     2    2    3 1  
     3    2    4 1  
     4    2    8 1  
     5    4    5 1  
     6    5    6 1  
     7    6    7 1  
     8    6    8 1  
     9    8    9 1  
    10    8   10 1  
    11    1   11 1  
    12    3   12 1  
    13    3   13 1  
    14    3   14 1  
    15    5   15 1  
    16    5   16 1  
    17    6   17 1  
    18    7   18 1  
    19    9   19 1  
    20   10   20 1  
@<TRIPOS>SUBSTRUCTURE
     1 PAV         1

