### 
### Created by X-TOOL on Mon Aug  2 16:13:02 2021
### 

@<TRIPOS>MOLECULE
6dtw_ligand
   45    48     1     0     0
SMALL
GAST_HUCK


@<TRIPOS>ATOM
      1 N19       192.4760  -28.5470  147.7350 N.1       1 H9Y        -0.3514
      2 C16       192.9560  -27.7870  147.0130 C.1       1 H9Y         0.0653
      3 C00       199.1220  -26.0300  140.2990 C.ar      1 H9Y        -0.0068
      4 C01       200.2570  -25.4390  140.8940 C.ar      1 H9Y         0.1127
      5 C02       200.2810  -25.1930  142.2860 C.ar      1 H9Y        -0.0471
      6 C03       199.1710  -25.5370  143.0860 C.ar      1 H9Y        -0.0378
      7 C04       198.0300  -26.1310  142.4900 C.ar      1 H9Y         0.1421
      8 C05       197.9930  -26.3830  141.0960 C.ar      1 H9Y         0.1237
      9 C0C       195.9750  -25.5580  143.6180 C.2       1 H9Y         0.1436
     10 C0D       196.6910  -27.1770  139.2050 C.3       1 H9Y         0.0958
     11 C0E       195.5240  -28.1590  138.9560 C.3       1 H9Y         0.0934
     12 C0K       196.7850  -30.3240  138.7920 C.2       1 H9Y         0.3306
     13 C0N       196.2750  -32.1410  140.3400 C.2       1 H9Y         0.1822
     14 C0O       195.2590  -31.2850  140.9620 C.2       1 H9Y         0.0061
     15 C0P       195.0590  -30.0280  140.4840 C.2       1 H9Y         0.0564
     16 C0V       194.9980  -25.9700  144.5750 C.2       1 H9Y         0.1150
     17 C0X       193.9700  -23.7310  144.3900 C.2       1 H9Y         0.0907
     18 C0Y       194.8770  -23.3110  143.4840 C.2       1 H9Y         0.1449
     19 C0Z       195.9080  -24.2410  143.0830 C.2       1 H9Y        -0.0028
     20 C10       194.7050  -27.1350  145.3320 C.2       1 H9Y        -0.0452
     21 C11       193.1710  -25.5440  145.8350 C.2       1 H9Y         0.0645
     22 C14       193.5530  -26.8260  146.1090 C.2       1 H9Y         0.0672
     23 F07       201.3180  -25.1110  140.1240 F         1 H9Y        -0.1950
     24 F13       194.8560  -22.0840  142.9550 F         1 H9Y        -0.1948
     25 N0H       195.8260  -29.5400  139.3920 N.am      1 H9Y        -0.1868
     26 N0M       196.9430  -31.5720  139.3080 N.am      1 H9Y        -0.1866
     27 N0W       194.0420  -25.0120  144.9040 N.pl3     1 H9Y        -0.2325
     28 O0A       196.9430  -26.4710  143.2590 O.3       1 H9Y        -0.2612
     29 O0B       196.8410  -26.9660  140.6060 O.3       1 H9Y        -0.3188
     30 O0Q       197.4790  -29.9590  137.8460 O.2       1 H9Y        -0.3815
     31 O0S       196.5250  -33.2880  140.7030 O.2       1 H9Y        -0.4124
     32 H1        199.1081  -26.2166  139.2313 H         1 H9Y         0.0499
     33 H2        201.1545  -24.7389  142.7398 H         1 H9Y         0.0485
     34 H3        199.1905  -25.3477  144.1532 H         1 H9Y         0.0512
     35 H4        196.4758  -26.2183  138.7105 H         1 H9Y         0.0637
     36 H5        197.6204  -27.6001  138.7960 H         1 H9Y         0.0637
     37 H6        195.3013  -28.1726  137.8789 H         1 H9Y         0.0643
     38 H7        194.6421  -27.8023  139.5083 H         1 H9Y         0.0643
     39 H8        194.6695  -31.6535  141.8002 H         1 H9Y         0.0258
     40 H9        194.3047  -29.3899  140.9419 H         1 H9Y         0.1177
     41 H10       193.1785  -23.0585  144.7175 H         1 H9Y         0.0953
     42 H11       196.6523  -23.9260  142.3531 H         1 H9Y         0.0445
     43 H12       195.2521  -28.0765  145.3205 H         1 H9Y         0.0253
     44 H13       192.3207  -25.0267  146.2771 H         1 H9Y         0.0865
     45 H14       197.6395  -32.1411  138.8710 H         1 H9Y         0.2259
@<TRIPOS>BOND
     1    2    1 3  
     2   22    2 1  
     3    3    4 ar 
     4    8    3 ar 
     5    5    4 ar 
     6    4   23 1  
     7    6    5 ar 
     8    7    6 ar 
     9    7    8 ar 
    10   28    7 1  
    11    8   29 1  
    12   16    9 1  
    13    9   19 2  
    14    9   28 1  
    15   10   11 1  
    16   29   10 1  
    17   11   25 1  
    18   25   12 am 
    19   12   26 am 
    20   12   30 2  
    21   14   13 1  
    22   26   13 am 
    23   13   31 2  
    24   15   14 2  
    25   25   15 1  
    26   20   16 2  
    27   16   27 1  
    28   17   18 2  
    29   27   17 1  
    30   19   18 1  
    31   18   24 1  
    32   20   22 1  
    33   22   21 2  
    34   21   27 1  
    35    3   32 1  
    36    5   33 1  
    37    6   34 1  
    38   10   35 1  
    39   10   36 1  
    40   11   37 1  
    41   11   38 1  
    42   14   39 1  
    43   15   40 1  
    44   17   41 1  
    45   19   42 1  
    46   20   43 1  
    47   21   44 1  
    48   26   45 1  
@<TRIPOS>SUBSTRUCTURE
     1 H9Y         1

