### 
### Created by X-TOOL on Mon Aug  2 16:13:03 2021
### 

@<TRIPOS>MOLECULE
6dtx_ligand
   45    48     1     0     0
SMALL
GAST_HUCK


@<TRIPOS>ATOM
      1 N19       272.6780  -24.6340   29.4030 N.1       1 H9Y        -0.3514
      2 C16       272.1210  -24.1520   28.5140 C.1       1 H9Y         0.0653
      3 C00       268.5650  -24.7810   20.0330 C.ar      1 H9Y        -0.0068
      4 C01       269.3700  -24.1530   19.0530 C.ar      1 H9Y         0.1127
      5 C02       270.5900  -23.5470   19.4250 C.ar      1 H9Y        -0.0471
      6 C03       271.0100  -23.5600   20.7720 C.ar      1 H9Y        -0.0378
      7 C04       270.2080  -24.1910   21.7560 C.ar      1 H9Y         0.1421
      8 C05       268.9760  -24.8030   21.4010 C.ar      1 H9Y         0.1237
      9 C0C       270.1950  -23.2010   23.9310 C.2       1 H9Y         0.1436
     10 C0D       267.0040  -26.0200   22.1650 C.3       1 H9Y         0.0958
     11 C0E       266.7400  -27.1300   23.2100 C.3       1 H9Y         0.0934
     12 C0K       267.3340  -29.1550   21.8270 C.2       1 H9Y         0.3306
     13 C0N       268.9420  -30.7770   22.6880 C.2       1 H9Y         0.1822
     14 C0O       269.0720  -29.9550   23.8990 C.2       1 H9Y         0.0061
     15 C0P       268.3510  -28.8070   24.0110 C.2       1 H9Y         0.0564
     16 C0V       270.6160  -23.2530   25.2970 C.2       1 H9Y         0.1150
     17 C0X       269.3490  -21.1720   25.7000 C.2       1 H9Y         0.0907
     18 C0Y       268.9310  -21.0920   24.4180 C.2       1 H9Y         0.1449
     19 C0Z       269.3600  -22.1290   23.5060 C.2       1 H9Y        -0.0028
     20 C10       271.4130  -24.1050   26.1050 C.2       1 H9Y        -0.0452
     21 C11       270.6490  -22.4040   27.3910 C.2       1 H9Y         0.0645
     22 C14       271.4110  -23.5370   27.4110 C.2       1 H9Y         0.0672
     23 F07       268.9700  -24.1350   17.7610 F         1 H9Y        -0.1950
     24 F13       268.1460  -20.1040   23.9690 F         1 H9Y        -0.1948
     25 N0H       267.4740  -28.3960   22.9710 N.am      1 H9Y        -0.1868
     26 N0M       268.0770  -30.2910   21.7650 N.am      1 H9Y        -0.1866
     27 N0W       270.1590  -22.2160   26.1100 N.pl3     1 H9Y        -0.2325
     28 O0A       270.6110  -24.1980   23.0690 O.3       1 H9Y        -0.2612
     29 O0B       268.2570  -25.3930   22.4270 O.3       1 H9Y        -0.3188
     30 O0Q       266.5950  -28.8620   20.8900 O.2       1 H9Y        -0.3815
     31 O0S       269.5510  -31.8270   22.4970 O.2       1 H9Y        -0.4124
     32 H1        267.6306  -25.2483   19.7438 H         1 H9Y         0.0499
     33 H2        271.2068  -23.0696   18.6722 H         1 H9Y         0.0485
     34 H3        271.9444  -23.0883   21.0539 H         1 H9Y         0.0512
     35 H4        266.2021  -25.2691   22.2205 H         1 H9Y         0.0637
     36 H5        267.0219  -26.4637   21.1586 H         1 H9Y         0.0637
     37 H6        265.6629  -27.3532   23.2075 H         1 H9Y         0.0643
     38 H7        267.0327  -26.7461   24.1984 H         1 H9Y         0.0643
     39 H8        269.7410  -30.2628   24.7013 H         1 H9Y         0.0258
     40 H9        268.4469  -28.1962   24.9074 H         1 H9Y         0.1177
     41 H10       269.0463  -20.4093   26.4159 H         1 H9Y         0.0953
     42 H11       269.0360  -22.0889   22.4671 H         1 H9Y         0.0445
     43 H12       271.9246  -25.0130   25.7891 H         1 H9Y         0.0253
     44 H13       270.4579  -21.7542   28.2438 H         1 H9Y         0.0865
     45 H14       267.9723  -30.8370   20.9338 H         1 H9Y         0.2259
@<TRIPOS>BOND
     1    2    1 3  
     2   22    2 1  
     3    3    4 ar 
     4    8    3 ar 
     5    5    4 ar 
     6    4   23 1  
     7    6    5 ar 
     8    7    6 ar 
     9    7    8 ar 
    10   28    7 1  
    11    8   29 1  
    12   16    9 1  
    13    9   19 2  
    14    9   28 1  
    15   10   11 1  
    16   29   10 1  
    17   11   25 1  
    18   25   12 am 
    19   12   26 am 
    20   12   30 2  
    21   14   13 1  
    22   26   13 am 
    23   13   31 2  
    24   15   14 2  
    25   25   15 1  
    26   20   16 2  
    27   16   27 1  
    28   17   18 2  
    29   27   17 1  
    30   19   18 1  
    31   18   24 1  
    32   20   22 1  
    33   22   21 2  
    34   21   27 1  
    35    3   32 1  
    36    5   33 1  
    37    6   34 1  
    38   10   35 1  
    39   10   36 1  
    40   11   37 1  
    41   11   38 1  
    42   14   39 1  
    43   15   40 1  
    44   17   41 1  
    45   19   42 1  
    46   20   43 1  
    47   21   44 1  
    48   26   45 1  
@<TRIPOS>SUBSTRUCTURE
     1 H9Y         1

