### 
### Created by X-TOOL on Wed Jan  1 15:39:35 2020
### 

@<TRIPOS>MOLECULE
6dub_ligand
   79    79     1     0     0
SMALL
GAST_HUCK


@<TRIPOS>ATOM
      1 O          20.7710    7.4100  200.4680 O.2       1 5JP        -0.3904
      2 C          19.5840    7.2080  200.7620 C.2       1 5JP         0.2315
      3 CA         18.4620    7.8490  199.9700 C.3       1 5JP         0.0886
      4 CB         17.8070    6.8100  199.0470 C.3       1 5JP         0.1041
      5 OG         18.7380    6.2880  198.1300 O.3       1 5JP        -0.3870
      6 N          19.0010    8.9500  199.2330 N.4       1 5JP         0.2396
      7 N          19.2330    6.3270  201.6840 N.am      1 PRO        -0.2471
      8 CA         20.2640    5.4620  202.2560 C.3       1 PRO         0.1339
      9 C          20.9430    4.6340  201.1950 C.2       1 PRO         0.2041
     10 O          20.3380    4.3740  200.1450 O.2       1 PRO        -0.3944
     11 CB         19.4800    4.5770  203.2510 C.3       1 PRO        -0.0104
     12 CG         18.2270    5.3070  203.4860 C.3       1 PRO        -0.0281
     13 CD         17.8940    6.0260  202.2150 C.3       1 PRO         0.0371
     14 N          22.1140    4.1250  201.5420 N.am      1 LYS        -0.2637
     15 CA         22.8960    3.2750  200.6310 C.3       1 LYS         0.1310
     16 C          23.5510    2.1350  201.4120 C.2       1 LYS         0.2039
     17 O          23.8050    2.2480  202.5840 O.2       1 LYS        -0.3944
     18 CB         23.9610    4.1010  199.8970 C.3       1 LYS        -0.0122
     19 CG         23.4200    5.1520  198.9050 C.3       1 LYS        -0.0440
     20 CD         22.6900    4.5440  197.7210 C.3       1 LYS        -0.0124
     21 CE         22.1260    5.6100  196.7940 C.3       1 LYS        -0.0354
     22 NZ         23.1810    6.3670  196.0890 N.4       1 LYS         0.2185
     23 N          23.8120    1.0410  200.7230 N.am      1 ARG        -0.2637
     24 CA         24.6840    0.0050  201.2720 C.3       1 ARG         0.1309
     25 C          26.0880    0.2850  200.8800 C.2       1 ARG         0.2014
     26 O          26.3380    0.9330  199.8250 O.2       1 ARG        -0.3945
     27 CB         24.1830   -1.3590  200.9320 C.3       1 ARG        -0.0092
     28 CG         23.0110   -1.6890  201.8360 C.3       1 ARG        -0.0156
     29 CD         22.2290   -2.8410  201.2390 C.3       1 ARG         0.0627
     30 NE         22.9580   -4.1020  201.1800 N.pl3     1 ARG        -0.2723
     31 CZ         22.4900   -5.1900  200.5820 C.cat     1 ARG         0.2882
     32 NH1        21.3350   -5.1570  199.9200 N.pl3     1 ARG        -0.2849
     33 NH2        23.2180   -6.2950  200.5840 N.pl3     1 ARG        -0.2849
     34 N          26.9740   -0.2100  201.7250 N.am      1 ILE        -0.2881
     35 CA         28.3810    0.1180  201.7370 C.3       1 ILE         0.0196
     36 H1         17.6990    8.2275  200.6661 H         1 5JP         0.1122
     37 H2         16.9864    7.2887  198.4925 H         1 5JP         0.0640
     38 H3         17.4059    5.9884  199.6586 H         1 5JP         0.0640
     39 H4         18.3083    5.6497  197.5728 H         1 5JP         0.2099
     40 H5         19.4207    9.6080  199.8709 H         1 5JP         0.2016
     41 H6         18.2622    9.4044  198.7194 H         1 5JP         0.2016
     42 H7         19.7000    8.6135  198.5894 H         1 5JP         0.2016
     43 H8         21.0218    6.0597  202.7837 H         1 PRO         0.0802
     44 H9         20.0412    4.4562  204.1893 H         1 PRO         0.0313
     45 H10        19.2774    3.5877  202.8150 H         1 PRO         0.0313
     46 H11        18.3585    6.0292  204.3052 H         1 PRO         0.0287
     47 H12        17.4222    4.6028  203.7436 H         1 PRO         0.0287
     48 H13        17.3251    5.3828  201.5275 H         1 PRO         0.0524
     49 H14        17.3245    6.9462  202.4121 H         1 PRO         0.0524
     50 H15        22.4786    4.3243  202.4516 H         1 LYS         0.1883
     51 H16        22.2141    2.8426  199.8839 H         1 LYS         0.0800
     52 H17        24.6028    3.4052  199.3368 H         1 LYS         0.0312
     53 H18        24.5625    4.6268  200.6531 H         1 LYS         0.0312
     54 H19        24.2672    5.7426  198.5263 H         1 LYS         0.0269
     55 H20        22.7235    5.8125  199.4422 H         1 LYS         0.0269
     56 H21        21.8622    3.9232  198.0942 H         1 LYS         0.0317
     57 H22        23.3929    3.9157  197.1543 H         1 LYS         0.0317
     58 H23        21.5263    6.3136  197.3901 H         1 LYS         0.0813
     59 H24        21.4832    5.1223  196.0464 H         1 LYS         0.0813
     60 H25        22.7559    7.0576  195.4903 H         1 LYS         0.1994
     61 H26        23.7336    5.7341  195.5322 H         1 LYS         0.1994
     62 H27        23.7731    6.8258  196.7635 H         1 LYS         0.1994
     63 H28        23.4091    0.9194  199.8159 H         1 ARG         0.1883
     64 H29        24.6415    0.0844  202.3683 H         1 ARG         0.0800
     65 H30        24.9855   -2.0959  201.0834 H         1 ARG         0.0313
     66 H31        23.8574   -1.3820  199.8815 H         1 ARG         0.0313
     67 H32        22.3574   -0.8089  201.9268 H         1 ARG         0.0301
     68 H33        23.3830   -1.9738  202.8312 H         1 ARG         0.0301
     69 H34        21.9382   -2.5644  200.2148 H         1 ARG         0.0689
     70 H35        21.3258   -2.9948  201.8477 H         1 ARG         0.0689
     71 H36        23.8851   -4.1509  201.6260 H         1 ARG         0.2642
     72 H37        20.9809   -6.0075  199.4594 H         1 ARG         0.2615
     73 H38        20.7957   -4.2810  199.8686 H         1 ARG         0.2615
     74 H39        24.1116   -6.3221  201.0956 H         1 ARG         0.2615
     75 H40        22.8911   -7.1280  200.0740 H         1 ARG         0.2615
     76 H41        26.6459   -0.8617  202.4089 H         1 ILE         0.1848
     77 H42        28.8802   -0.4382  202.5441 H         1 ILE         0.0484
     78 H43        28.5043    1.1980  201.9053 H         1 ILE         0.0484
     79 H44        28.8297   -0.1562  200.7708 H         1 ILE         0.0484
@<TRIPOS>BOND
     1    1    2 2  
     2    2    3 1  
     3    2    7 am 
     4    3    4 1  
     5    3    6 1  
     6    4    5 1  
     7    7    8 1  
     8    7   13 1  
     9    8    9 1  
    10    8   11 1  
    11    9   10 2  
    12    9   14 am 
    13   11   12 1  
    14   12   13 1  
    15   14   15 1  
    16   15   16 1  
    17   15   18 1  
    18   16   17 2  
    19   16   23 am 
    20   18   19 1  
    21   19   20 1  
    22   20   21 1  
    23   21   22 1  
    24   23   24 1  
    25   24   25 1  
    26   24   27 1  
    27   25   26 2  
    28   25   34 am 
    29   27   28 1  
    30   28   29 1  
    31   29   30 1  
    32   30   31 ar 
    33   31   32 ar 
    34   31   33 ar 
    35   34   35 1  
    36    3   36 1  
    37    4   37 1  
    38    4   38 1  
    39    5   39 1  
    40    6   40 1  
    41    6   41 1  
    42    6   42 1  
    43    8   43 1  
    44   11   44 1  
    45   11   45 1  
    46   12   46 1  
    47   12   47 1  
    48   13   48 1  
    49   13   49 1  
    50   14   50 1  
    51   15   51 1  
    52   18   52 1  
    53   18   53 1  
    54   19   54 1  
    55   19   55 1  
    56   20   56 1  
    57   20   57 1  
    58   21   58 1  
    59   21   59 1  
    60   22   60 1  
    61   22   61 1  
    62   22   62 1  
    63   23   63 1  
    64   24   64 1  
    65   27   65 1  
    66   27   66 1  
    67   28   67 1  
    68   28   68 1  
    69   29   69 1  
    70   29   70 1  
    71   30   71 1  
    72   32   72 1  
    73   32   73 1  
    74   33   74 1  
    75   33   75 1  
    76   34   76 1  
    77   35   77 1  
    78   35   78 1  
    79   35   79 1  
@<TRIPOS>SUBSTRUCTURE
     1 5JP         1

