### 
### Created by X-TOOL on Wed Jan  1 15:39:36 2020
### 

@<TRIPOS>MOLECULE
6duf_ligand
   71    75     1     0     0
SMALL
GAST_HUCK


@<TRIPOS>ATOM
      1 C01        53.5340  -27.8420   37.8720 C.3       1 K5C        -0.0314
      2 C02        52.0160  -27.5400   37.9960 C.ar      1 K5C        -0.0059
      3 C03        51.0470  -28.4260   38.4980 C.ar      1 K5C        -0.0546
      4 C04        49.6600  -28.1080   38.5890 C.ar      1 K5C        -0.0229
      5 C05        48.6210  -28.9980   39.1530 C.2       1 K5C        -0.0274
      6 C06        48.7890  -30.1110   39.8740 C.2       1 K5C         0.0463
      7 C07        47.6630  -30.7520   40.3530 C.1       1 K5C         0.0608
      8 C09        49.2880  -26.8240   38.1820 C.ar      1 K5C        -0.0546
      9 C10        50.1870  -25.9000   37.6800 C.ar      1 K5C        -0.0059
     10 C11        49.6970  -24.5200   37.2360 C.3       1 K5C        -0.0314
     11 C12        51.5470  -26.2660   37.5770 C.ar      1 K5C         0.1373
     12 C14        52.8320  -25.3390   35.8730 C.ar      1 K5C         0.2060
     13 C16        52.9460  -26.3730   33.8410 C.ar      1 K5C         0.1594
     14 C18        51.7200  -28.4590   33.5080 C.3       1 K5C         0.0500
     15 C19        52.3850  -29.5000   34.3760 C.3       1 K5C         0.0108
     16 C20        51.4860  -30.7160   34.5980 C.3       1 K5C        -0.0283
     17 C22        49.9990  -32.2530   33.7100 C.3       1 K5C         0.0020
     18 C23        50.7150  -33.5030   34.1750 C.ar      1 K5C         0.0015
     19 C24        52.0270  -33.8450   33.7330 C.ar      1 K5C        -0.0534
     20 C25        52.6500  -35.0000   34.1910 C.ar      1 K5C        -0.0418
     21 C26        52.0830  -35.9030   35.1020 C.ar      1 K5C         0.1009
     22 C31        50.8210  -35.5230   35.4870 C.ar      1 K5C        -0.0418
     23 C32        50.1640  -34.3820   35.0270 C.ar      1 K5C        -0.0534
     24 C33        50.0600  -30.1320   32.6200 C.3       1 K5C        -0.0283
     25 C34        51.0260  -29.0200   32.2490 C.3       1 K5C         0.0108
     26 C36        54.0380  -24.3790   34.1340 C.ar      1 K5C         0.0297
     27 C37        54.8520  -23.2370   33.7900 C.2       1 K5C        -0.0435
     28 C38        55.0020  -22.3800   34.8400 C.2       1 K5C         0.0065
     29 C40        53.6050  -24.3280   35.4440 C.ar      1 K5C         0.1085
     30 N08        46.7070  -31.2920   40.7880 N.1       1 K5C        -0.3604
     31 N15        52.4710  -26.3980   35.1270 N.ar      1 K5C        -0.2380
     32 N17        52.6280  -27.4420   32.9560 N.pl3     1 K5C        -0.2933
     33 N21        50.8750  -31.1950   33.2470 N.4       1 K5C         0.2473
     34 N28        53.4570  -38.1210   34.3230 N.am      1 K5C        -0.2617
     35 N35        53.7200  -25.4130   33.2980 N.ar      1 K5C        -0.2915
     36 O13        52.3860  -25.3170   37.1150 O.3       1 K5C        -0.2342
     37 O29        54.0190  -37.0590   36.5060 O.2       1 K5C        -0.1514
     38 O30        51.9090  -38.1760   36.3040 O.2       1 K5C        -0.1514
     39 S27        52.8880  -37.3720   35.6830 S.o2      1 K5C         0.0628
     40 S39        54.1680  -22.9150   36.2310 S.3       1 K5C        -0.0267
     41 H1         53.7360  -28.8607   38.2345 H         1 K5C         0.0372
     42 H2         54.1022  -27.1188   38.4753 H         1 K5C         0.0372
     43 H3         53.8392  -27.7606   36.8183 H         1 K5C         0.0372
     44 H4         51.3718  -29.4040   38.8342 H         1 K5C         0.0549
     45 H5         47.5895  -28.7099   38.9558 H         1 K5C         0.0884
     46 H6         49.7850  -30.5012   40.0779 H         1 K5C         0.0713
     47 H7         48.2455  -26.5384   38.2635 H         1 K5C         0.0549
     48 H8         48.6122  -24.4453   37.4019 H         1 K5C         0.0372
     49 H9         49.9149  -24.3800   36.1669 H         1 K5C         0.0372
     50 H10        50.2116  -23.7428   37.8200 H         1 K5C         0.0372
     51 H11        50.9680  -27.9599   34.1367 H         1 K5C         0.0561
     52 H12        52.6225  -29.0506   35.3515 H         1 K5C         0.0339
     53 H13        53.3142  -29.8292   33.8879 H         1 K5C         0.0339
     54 H14        50.6729  -30.4444   35.2872 H         1 K5C         0.0815
     55 H15        52.0808  -31.5312   35.0358 H         1 K5C         0.0815
     56 H16        49.4055  -31.8643   34.5506 H         1 K5C         0.0980
     57 H17        49.3274  -32.5291   32.8837 H         1 K5C         0.0980
     58 H18        52.5434  -33.1980   33.0331 H         1 K5C         0.0559
     59 H19        53.6441  -35.2182   33.8178 H         1 K5C         0.0619
     60 H20        50.2991  -36.1535   36.1977 H         1 K5C         0.0619
     61 H21        49.1549  -34.1950   35.3760 H         1 K5C         0.0559
     62 H22        49.5582  -30.5172   31.7201 H         1 K5C         0.0815
     63 H23        49.3060  -29.7610   33.3298 H         1 K5C         0.0815
     64 H24        51.7885  -29.4178   31.5631 H         1 K5C         0.0339
     65 H25        50.4714  -28.2109   31.7513 H         1 K5C         0.0339
     66 H26        55.2942  -23.0787   32.8075 H         1 K5C         0.0449
     67 H27        55.5855  -21.4616   34.7966 H         1 K5C         0.0897
     68 H28        53.0060  -27.4990   31.9996 H         1 K5C         0.1843
     69 H29        51.5791  -31.5257   32.6060 H         1 K5C         0.2048
     70 H30        53.9556  -38.9845   34.3992 H         1 K5C         0.1634
     71 H31        53.3025  -37.7105   33.4243 H         1 K5C         0.1634
@<TRIPOS>BOND
     1    2    1 1  
     2    2    3 ar 
     3   11    2 ar 
     4    3    4 ar 
     5    4    5 1  
     6    8    4 ar 
     7    5    6 2  
     8    6    7 1  
     9    7   30 3  
    10    9    8 ar 
    11    9   10 1  
    12   11    9 ar 
    13   36   11 1  
    14   29   12 ar 
    15   12   31 ar 
    16   12   36 1  
    17   31   13 ar 
    18   13   32 1  
    19   13   35 ar 
    20   14   15 1  
    21   14   25 1  
    22   32   14 1  
    23   15   16 1  
    24   16   33 1  
    25   17   18 1  
    26   33   17 1  
    27   18   19 ar 
    28   18   23 ar 
    29   19   20 ar 
    30   20   21 ar 
    31   22   21 ar 
    32   21   39 1  
    33   23   22 ar 
    34   25   24 1  
    35   24   33 1  
    36   26   27 1  
    37   26   29 ar 
    38   26   35 ar 
    39   27   28 2  
    40   28   40 1  
    41   29   40 1  
    42   39   34 am 
    43   39   37 2  
    44   39   38 2  
    45    1   41 1  
    46    1   42 1  
    47    1   43 1  
    48    3   44 1  
    49    5   45 1  
    50    6   46 1  
    51    8   47 1  
    52   10   48 1  
    53   10   49 1  
    54   10   50 1  
    55   14   51 1  
    56   15   52 1  
    57   15   53 1  
    58   16   54 1  
    59   16   55 1  
    60   17   56 1  
    61   17   57 1  
    62   19   58 1  
    63   20   59 1  
    64   22   60 1  
    65   23   61 1  
    66   24   62 1  
    67   24   63 1  
    68   25   64 1  
    69   25   65 1  
    70   27   66 1  
    71   28   67 1  
    72   32   68 1  
    73   33   69 1  
    74   34   70 1  
    75   34   71 1  
@<TRIPOS>SUBSTRUCTURE
     1 K5C         1

