### 
### Created by X-TOOL on Wed Jan  1 15:39:36 2020
### 

@<TRIPOS>MOLECULE
6dug_ligand
   71    75     1     0     0
SMALL
GAST_HUCK


@<TRIPOS>ATOM
      1 C01        53.1820  -27.5150   38.3350 C.3       1 K5C        -0.0314
      2 C02        51.7390  -27.0830   38.5920 C.ar      1 K5C        -0.0059
      3 C03        50.7910  -27.8790   39.2770 C.ar      1 K5C        -0.0546
      4 C04        49.4510  -27.5010   39.5240 C.ar      1 K5C        -0.0229
      5 C05        48.4500  -28.3300   40.2720 C.2       1 K5C        -0.0274
      6 C06        47.5940  -27.9460   41.2410 C.2       1 K5C         0.0463
      7 C07        46.7760  -28.8990   41.8210 C.1       1 K5C         0.0608
      8 C09        49.0880  -26.2400   39.0450 C.ar      1 K5C        -0.0546
      9 C10        49.9710  -25.3950   38.3520 C.ar      1 K5C        -0.0059
     10 C11        49.4910  -24.0570   37.8630 C.3       1 K5C        -0.0314
     11 C12        51.2960  -25.8150   38.1100 C.ar      1 K5C         0.1373
     12 C14        52.5830  -25.1070   36.1690 C.ar      1 K5C         0.2060
     13 C16        52.5610  -26.4050   34.2500 C.ar      1 K5C         0.1594
     14 C18        51.0580  -28.4160   34.0830 C.3       1 K5C         0.0500
     15 C19        51.6000  -29.4020   35.0710 C.3       1 K5C         0.0108
     16 C20        50.6700  -30.5170   35.3510 C.3       1 K5C        -0.0283
     17 C22        49.3740  -32.1990   34.6260 C.3       1 K5C         0.0020
     18 C23        50.1280  -33.4150   35.0630 C.ar      1 K5C         0.0015
     19 C24        51.3840  -33.7010   34.4730 C.ar      1 K5C        -0.0534
     20 C25        52.1190  -34.8250   34.8560 C.ar      1 K5C        -0.0418
     21 C26        51.6980  -35.7630   35.8260 C.ar      1 K5C         0.1009
     22 C31        50.4520  -35.4300   36.3690 C.ar      1 K5C        -0.0418
     23 C32        49.6860  -34.3150   36.0140 C.ar      1 K5C        -0.0534
     24 C33        49.4690  -30.2310   33.2120 C.3       1 K5C        -0.0283
     25 C34        50.3170  -29.0230   32.8620 C.3       1 K5C         0.0108
     26 C36        53.9120  -24.5390   34.2700 C.ar      1 K5C         0.0297
     27 C37        54.8670  -23.5650   33.7560 C.2       1 K5C        -0.0435
     28 C38        55.1490  -22.5850   34.6490 C.2       1 K5C         0.0065
     29 C40        53.4980  -24.2360   35.5850 C.ar      1 K5C         0.1085
     30 N08        46.0890  -29.7110   42.3350 N.1       1 K5C        -0.3604
     31 N15        52.0890  -26.2070   35.5340 N.ar      1 K5C        -0.2380
     32 N17        52.1130  -27.5390   33.4870 N.pl3     1 K5C        -0.2933
     33 N21        50.2460  -31.1600   34.0640 N.4       1 K5C         0.2473
     34 N28        52.9010  -38.0720   34.9160 N.am      1 K5C        -0.2617
     35 N35        53.4610  -25.6150   33.5880 N.ar      1 K5C        -0.2915
     36 O13        52.1230  -24.8990   37.4380 O.3       1 K5C        -0.2342
     37 O29        53.9290  -36.8010   36.7750 O.2       1 K5C        -0.1514
     38 O30        51.8970  -37.9740   37.1930 O.2       1 K5C        -0.1514
     39 S27        52.6460  -37.1760   36.2840 S.o2      1 K5C         0.0628
     40 S39        54.2800  -22.7990   36.1180 S.3       1 K5C        -0.0267
     41 H1         53.3501  -28.5104   38.7720 H         1 K5C         0.0372
     42 H2         53.8693  -26.7910   38.7970 H         1 K5C         0.0372
     43 H3         53.3654  -27.5547   37.2511 H         1 K5C         0.0372
     44 H4         51.1151  -28.8482   39.6384 H         1 K5C         0.0549
     45 H5         48.4087  -29.3826   39.9960 H         1 K5C         0.0884
     46 H6         47.5477  -26.9060   41.5606 H         1 K5C         0.0713
     47 H7         48.0744  -25.8962   39.2165 H         1 K5C         0.0549
     48 H8         48.4382  -23.9179   38.1499 H         1 K5C         0.0372
     49 H9         49.5814  -24.0129   36.7676 H         1 K5C         0.0372
     50 H10        50.1021  -23.2611   38.3137 H         1 K5C         0.0372
     51 H11        50.3463  -27.7833   34.6336 H         1 K5C         0.0561
     52 H12        51.8072  -28.8745   36.0137 H         1 K5C         0.0339
     53 H13        52.5358  -29.8194   34.6710 H         1 K5C         0.0339
     54 H14        49.7837  -30.1304   35.8754 H         1 K5C         0.0815
     55 H15        51.1739  -31.2629   35.9832 H         1 K5C         0.0815
     56 H16        48.8457  -31.7816   35.4959 H         1 K5C         0.0980
     57 H17        48.6422  -32.4956   33.8602 H         1 K5C         0.0980
     58 H18        51.7804  -33.0374   33.7130 H         1 K5C         0.0559
     59 H19        53.0774  -34.9893   34.3769 H         1 K5C         0.0619
     60 H20        50.0472  -36.0906   37.1272 H         1 K5C         0.0619
     61 H21        48.7275  -34.1537   36.4939 H         1 K5C         0.0559
     62 H22        49.1696  -30.7471   32.2879 H         1 K5C         0.0815
     63 H23        48.5711  -29.9017   33.7555 H         1 K5C         0.0815
     64 H24        51.0656  -29.3269   32.1155 H         1 K5C         0.0339
     65 H25        49.6627  -28.2505   32.4317 H         1 K5C         0.0339
     66 H26        55.3068  -23.6189   32.7612 H         1 K5C         0.0449
     67 H27        55.8396  -21.7645   34.4600 H         1 K5C         0.0897
     68 H28        52.5072  -27.7413   32.5572 H         1 K5C         0.1843
     69 H29        51.0232  -31.5389   33.5458 H         1 K5C         0.2048
     70 H30        53.4245  -38.9226   34.9658 H         1 K5C         0.1634
     71 H31        52.5316  -37.7628   34.0397 H         1 K5C         0.1634
@<TRIPOS>BOND
     1    2    1 1  
     2    2    3 ar 
     3   11    2 ar 
     4    3    4 ar 
     5    4    5 1  
     6    8    4 ar 
     7    5    6 2  
     8    6    7 1  
     9    7   30 3  
    10    9    8 ar 
    11    9   10 1  
    12   11    9 ar 
    13   36   11 1  
    14   29   12 ar 
    15   12   31 ar 
    16   12   36 1  
    17   31   13 ar 
    18   13   32 1  
    19   13   35 ar 
    20   14   15 1  
    21   14   25 1  
    22   32   14 1  
    23   15   16 1  
    24   16   33 1  
    25   17   18 1  
    26   33   17 1  
    27   18   19 ar 
    28   18   23 ar 
    29   19   20 ar 
    30   20   21 ar 
    31   22   21 ar 
    32   21   39 1  
    33   23   22 ar 
    34   25   24 1  
    35   24   33 1  
    36   26   27 1  
    37   26   29 ar 
    38   26   35 ar 
    39   27   28 2  
    40   28   40 1  
    41   29   40 1  
    42   39   34 am 
    43   39   37 2  
    44   39   38 2  
    45    1   41 1  
    46    1   42 1  
    47    1   43 1  
    48    3   44 1  
    49    5   45 1  
    50    6   46 1  
    51    8   47 1  
    52   10   48 1  
    53   10   49 1  
    54   10   50 1  
    55   14   51 1  
    56   15   52 1  
    57   15   53 1  
    58   16   54 1  
    59   16   55 1  
    60   17   56 1  
    61   17   57 1  
    62   19   58 1  
    63   20   59 1  
    64   22   60 1  
    65   23   61 1  
    66   24   62 1  
    67   24   63 1  
    68   25   64 1  
    69   25   65 1  
    70   27   66 1  
    71   28   67 1  
    72   32   68 1  
    73   33   69 1  
    74   34   70 1  
    75   34   71 1  
@<TRIPOS>SUBSTRUCTURE
     1 K5C         1

