### 
### Created by X-TOOL on Wed Jan  1 15:39:36 2020
### 

@<TRIPOS>MOLECULE
6duh_ligand
   71    75     1     0     0
SMALL
GAST_HUCK


@<TRIPOS>ATOM
      1 C01        52.9200  -27.7500   38.4750 C.3       1 K5C        -0.0314
      2 C02        51.4310  -27.4520   38.6900 C.ar      1 K5C        -0.0059
      3 C03        50.5260  -28.3320   39.3290 C.ar      1 K5C        -0.0546
      4 C04        49.1490  -28.0520   39.5220 C.ar      1 K5C        -0.0229
      5 C05        48.1690  -28.9390   40.2210 C.2       1 K5C        -0.0274
      6 C06        47.4520  -28.6090   41.3170 C.2       1 K5C         0.0463
      7 C07        46.5820  -29.5170   41.8910 C.1       1 K5C         0.0608
      8 C09        48.7070  -26.8140   39.0460 C.ar      1 K5C        -0.0546
      9 C10        49.5440  -25.8940   38.3990 C.ar      1 K5C        -0.0059
     10 C11        48.9730  -24.5860   37.9050 C.3       1 K5C        -0.0314
     11 C12        50.9070  -26.2190   38.2040 C.ar      1 K5C         0.1373
     12 C14        52.1420  -25.3440   36.3160 C.ar      1 K5C         0.2060
     13 C16        52.1550  -26.4730   34.3140 C.ar      1 K5C         0.1594
     14 C18        50.7400  -28.5500   33.9330 C.3       1 K5C         0.0500
     15 C19        51.2530  -29.4790   34.9900 C.3       1 K5C         0.0108
     16 C20        50.3300  -30.6110   35.2510 C.3       1 K5C        -0.0283
     17 C22        49.0990  -32.3580   34.4810 C.3       1 K5C         0.0020
     18 C23        49.8170  -33.5780   34.9850 C.ar      1 K5C         0.0015
     19 C24        51.1780  -33.7660   34.6300 C.ar      1 K5C        -0.0534
     20 C25        51.8950  -34.8740   35.0750 C.ar      1 K5C        -0.0418
     21 C26        51.3600  -35.8940   35.8890 C.ar      1 K5C         0.1009
     22 C31        50.0120  -35.6630   36.2050 C.ar      1 K5C        -0.0418
     23 C32        49.2550  -34.5640   35.7780 C.ar      1 K5C        -0.0534
     24 C33        49.3660  -30.4610   32.9560 C.3       1 K5C        -0.0283
     25 C34        50.2430  -29.2520   32.6520 C.3       1 K5C         0.0108
     26 C36        53.4170  -24.5480   34.4610 C.ar      1 K5C         0.0297
     27 C37        54.3180  -23.4790   34.0250 C.2       1 K5C        -0.0435
     28 C38        54.5530  -22.5730   35.0000 C.2       1 K5C         0.0065
     29 C40        53.0030  -24.3860   35.7940 C.ar      1 K5C         0.1085
     30 N08        45.8390  -30.2770   42.4080 N.1       1 K5C        -0.3604
     31 N15        51.6940  -26.4050   35.6160 N.ar      1 K5C        -0.2380
     32 N17        51.7550  -27.5590   33.4550 N.pl3     1 K5C        -0.2933
     33 N21        50.0290  -31.3360   33.9590 N.4       1 K5C         0.2473
     34 N28        52.6910  -38.1540   35.0740 N.am      1 K5C        -0.2617
     35 N35        53.0020  -25.5840   33.7020 N.ar      1 K5C        -0.2915
     36 O13        51.6990  -25.2510   37.5910 O.3       1 K5C        -0.2342
     37 O29        53.5270  -36.8820   37.0260 O.2       1 K5C        -0.1514
     38 O30        51.4970  -38.1030   37.2710 O.2       1 K5C        -0.1514
     39 S27        52.2990  -37.2860   36.4260 S.o2      1 K5C         0.0628
     40 S39        53.7060  -22.9820   36.4410 S.3       1 K5C        -0.0267
     41 H1         53.1630  -28.7329   38.9050 H         1 K5C         0.0372
     42 H2         53.5242  -26.9744   38.9684 H         1 K5C         0.0372
     43 H3         53.1408  -27.7566   37.3974 H         1 K5C         0.0372
     44 H4         50.9085  -29.2785   39.6935 H         1 K5C         0.0549
     45 H5         48.0206  -29.9370   39.8111 H         1 K5C         0.0884
     46 H6         47.5604  -27.6171   41.7531 H         1 K5C         0.0713
     47 H7         47.6642  -26.5521   39.1842 H         1 K5C         0.0549
     48 H8         47.9037  -24.5340   38.1577 H         1 K5C         0.0372
     49 H9         49.0954  -24.5213   36.8138 H         1 K5C         0.0372
     50 H10        49.5039  -23.7500   38.3838 H         1 K5C         0.0372
     51 H11        49.8971  -28.0007   34.3777 H         1 K5C         0.0561
     52 H12        51.3874  -28.9117   35.9228 H         1 K5C         0.0339
     53 H13        52.2226  -29.8831   34.6636 H         1 K5C         0.0339
     54 H14        49.3932  -30.2265   35.6805 H         1 K5C         0.0815
     55 H15        50.7994  -31.3087   35.9602 H         1 K5C         0.0815
     56 H16        48.5210  -31.9206   35.3084 H         1 K5C         0.0980
     57 H17        48.4145  -32.6585   33.6741 H         1 K5C         0.0980
     58 H18        51.6691  -33.0330   34.0002 H         1 K5C         0.0559
     59 H19        52.9335  -34.9580   34.7758 H         1 K5C         0.0619
     60 H20        49.5156  -36.3955   36.8312 H         1 K5C         0.0619
     61 H21        48.2148  -34.4846   36.0726 H         1 K5C         0.0559
     62 H22        49.1991  -31.0310   32.0302 H         1 K5C         0.0815
     63 H23        48.3999  -30.1182   33.3548 H         1 K5C         0.0815
     64 H24        51.1152  -29.5854   32.0706 H         1 K5C         0.0339
     65 H25        49.6598  -28.5327   32.0584 H         1 K5C         0.0339
     66 H26        54.7502  -23.4206   33.0271 H         1 K5C         0.0449
     67 H27        55.1937  -21.6995   34.8884 H         1 K5C         0.0897
     68 H28        52.1662  -27.6529   32.5153 H         1 K5C         0.1843
     69 H29        50.8567  -31.7451   33.5545 H         1 K5C         0.2048
     70 H30        53.2292  -38.9927   35.1569 H         1 K5C         0.1634
     71 H31        52.3899  -37.8401   34.1736 H         1 K5C         0.1634
@<TRIPOS>BOND
     1    2    1 1  
     2    2    3 ar 
     3   11    2 ar 
     4    3    4 ar 
     5    4    5 1  
     6    8    4 ar 
     7    5    6 2  
     8    6    7 1  
     9    7   30 3  
    10    9    8 ar 
    11    9   10 1  
    12   11    9 ar 
    13   36   11 1  
    14   29   12 ar 
    15   12   31 ar 
    16   12   36 1  
    17   31   13 ar 
    18   13   32 1  
    19   13   35 ar 
    20   14   15 1  
    21   14   25 1  
    22   32   14 1  
    23   15   16 1  
    24   16   33 1  
    25   17   18 1  
    26   33   17 1  
    27   18   19 ar 
    28   18   23 ar 
    29   19   20 ar 
    30   20   21 ar 
    31   22   21 ar 
    32   21   39 1  
    33   23   22 ar 
    34   25   24 1  
    35   24   33 1  
    36   26   27 1  
    37   26   29 ar 
    38   26   35 ar 
    39   27   28 2  
    40   28   40 1  
    41   29   40 1  
    42   39   34 am 
    43   39   37 2  
    44   39   38 2  
    45    1   41 1  
    46    1   42 1  
    47    1   43 1  
    48    3   44 1  
    49    5   45 1  
    50    6   46 1  
    51    8   47 1  
    52   10   48 1  
    53   10   49 1  
    54   10   50 1  
    55   14   51 1  
    56   15   52 1  
    57   15   53 1  
    58   16   54 1  
    59   16   55 1  
    60   17   56 1  
    61   17   57 1  
    62   19   58 1  
    63   20   59 1  
    64   22   60 1  
    65   23   61 1  
    66   24   62 1  
    67   24   63 1  
    68   25   64 1  
    69   25   65 1  
    70   27   66 1  
    71   28   67 1  
    72   32   68 1  
    73   33   69 1  
    74   34   70 1  
    75   34   71 1  
@<TRIPOS>SUBSTRUCTURE
     1 K5C         1

