### 
### Created by X-TOOL on Mon Aug  2 16:11:59 2021
### 

@<TRIPOS>MOLECULE
6duk_ligand
   66    71     1     0     0
SMALL
GAST_HUCK


@<TRIPOS>ATOM
      1 C02        39.0510   89.5250  -63.8770 C.2       1 JBJ         0.2507
      2 C04        38.0000   89.6760  -65.9390 C.2       1 JBJ         0.2059
      3 C06        37.3000   89.8450  -68.0670 C.2       1 JBJ        -0.0467
      4 C07        38.4570   89.2010  -68.3370 C.2       1 JBJ        -0.0079
      5 C09        38.9260   89.7070  -62.3780 C.3       1 JBJ         0.1738
      6 C11        40.2930   91.7310  -61.7960 C.2       1 JBJ         0.2084
      7 C12        41.5020   92.0920  -61.3490 C.ar      1 JBJ         0.0532
      8 C13        42.0170   93.3060  -61.0600 C.ar      1 JBJ        -0.0429
      9 C14        43.3330   93.4440  -60.6020 C.ar      1 JBJ        -0.0266
     10 C15        43.8860   94.6890  -60.2540 C.ar      1 JBJ        -0.0330
     11 C16        43.0560   95.8100  -60.1170 C.ar      1 JBJ        -0.0660
     12 C17        43.5750   97.0430  -59.7290 C.ar      1 JBJ        -0.0432
     13 C18        44.9340   97.1950  -59.4560 C.ar      1 JBJ         0.0417
     14 C20        46.8450   98.6360  -59.2170 C.3       1 JBJ         0.0672
     15 C21        47.2550   99.8470  -58.3660 C.3       1 JBJ        -0.0134
     16 C23        45.0550  100.8130  -58.6670 C.3       1 JBJ        -0.0134
     17 C24        44.6450   99.5750  -59.5050 C.3       1 JBJ         0.0672
     18 C25        45.7600   96.0730  -59.5450 C.ar      1 JBJ        -0.0432
     19 C26        45.2330   94.8320  -59.9310 C.ar      1 JBJ        -0.0660
     20 C27        44.0730   92.2840  -60.4200 C.ar      1 JBJ        -0.0588
     21 C28        43.4890   91.0540  -60.7330 C.ar      1 JBJ        -0.0532
     22 C29        42.2320   90.9620  -61.1800 C.ar      1 JBJ        -0.0008
     23 C30        41.4670   89.8370  -61.5320 C.3       1 JBJ         0.0746
     24 C32        38.5710   88.4740  -61.7250 C.ar      1 JBJ         0.0295
     25 C33        38.2320   87.3460  -62.4820 C.ar      1 JBJ        -0.0306
     26 C34        37.8400   86.1600  -61.8460 C.ar      1 JBJ         0.1143
     27 C36        37.7870   86.0640  -60.4600 C.ar      1 JBJ        -0.0437
     28 C37        38.1170   87.1740  -59.7050 C.ar      1 JBJ        -0.0409
     29 C38        38.4990   88.3590  -60.3340 C.ar      1 JBJ         0.0899
     30 F35        37.5080   85.0520  -62.5770 F         1 JBJ        -0.1946
     31 N03        37.9540   89.8370  -64.6040 N.am      1 JBJ        -0.1909
     32 N05        37.0420   90.0950  -66.7670 N.2       1 JBJ        -0.3233
     33 N10        40.1780   90.3850  -61.9150 N.am      1 JBJ        -0.2299
     34 N19        45.4000   98.3940  -59.0280 N.pl3     1 JBJ        -0.2981
     35 N22        46.5110  101.0460  -58.7710 N.4       1 JBJ         0.2298
     36 O01        40.1120   89.1120  -64.3430 O.2       1 JBJ        -0.3749
     37 O31        39.3970   92.5450  -62.0380 O.2       1 JBJ        -0.3877
     38 O39        38.8030   89.4650  -59.5910 O.3       1 JBJ        -0.3390
     39 S08        39.2300   88.9260  -66.9050 S.3       1 JBJ         0.0111
     40 H1         36.6130   90.1459  -68.8566 H         1 JBJ         0.0497
     41 H2         38.8157   88.9143  -69.3245 H         1 JBJ         0.0573
     42 H3         38.0956   90.4027  -62.1872 H         1 JBJ         0.0947
     43 H4         41.4011   94.1893  -61.1847 H         1 JBJ         0.0644
     44 H5         41.9945   95.7161  -60.3159 H         1 JBJ         0.0587
     45 H6         42.9130   97.8966  -59.6380 H         1 JBJ         0.0519
     46 H7         47.4137   97.7499  -58.8987 H         1 JBJ         0.0568
     47 H8         47.0504   98.8420  -60.2778 H         1 JBJ         0.0568
     48 H9         48.3319  100.0303  -58.4952 H         1 JBJ         0.0833
     49 H10        47.0439   99.6321  -57.3080 H         1 JBJ         0.0833
     50 H11        44.7897  100.6416  -57.6133 H         1 JBJ         0.0833
     51 H12        44.5187  101.6976  -59.0409 H         1 JBJ         0.0833
     52 H13        44.8754   99.7555  -60.5653 H         1 JBJ         0.0568
     53 H14        43.5662   99.3933  -59.3899 H         1 JBJ         0.0568
     54 H15        46.8155   96.1616  -59.3143 H         1 JBJ         0.0519
     55 H16        45.8862   93.9682  -59.9788 H         1 JBJ         0.0587
     56 H17        45.0875   92.3316  -60.0412 H         1 JBJ         0.0627
     57 H18        44.0716   90.1482  -60.6100 H         1 JBJ         0.0568
     58 H19        41.3613   89.1543  -60.6760 H         1 JBJ         0.0702
     59 H20        41.9280   89.3003  -62.3743 H         1 JBJ         0.0702
     60 H21        38.2729   87.3901  -63.5643 H         1 JBJ         0.0519
     61 H22        37.4928   85.1372  -59.9809 H         1 JBJ         0.0521
     62 H23        38.0789   87.1235  -58.6228 H         1 JBJ         0.0513
     63 H24        37.1267   90.1799  -64.1590 H         1 JBJ         0.2413
     64 H25        46.7429  101.2735  -59.7252 H         1 JBJ         0.2015
     65 H26        46.7675  101.8139  -58.1705 H         1 JBJ         0.2015
     66 H27        38.0468   89.7149  -59.0731 H         1 JBJ         0.2444
@<TRIPOS>BOND
     1    5    1 1  
     2    1   31 am 
     3    1   36 2  
     4   31    2 1  
     5    2   32 2  
     6    2   39 1  
     7    4    3 2  
     8   32    3 1  
     9   39    4 1  
    10    5   24 1  
    11   33    5 1  
    12    7    6 1  
    13    6   33 am 
    14    6   37 2  
    15    8    7 ar 
    16    7   22 ar 
    17    9    8 ar 
    18   10    9 1  
    19    9   20 ar 
    20   11   10 ar 
    21   10   19 ar 
    22   12   11 ar 
    23   13   12 ar 
    24   13   18 ar 
    25   34   13 1  
    26   15   14 1  
    27   14   34 1  
    28   35   15 1  
    29   16   17 1  
    30   16   35 1  
    31   17   34 1  
    32   18   19 ar 
    33   20   21 ar 
    34   21   22 ar 
    35   22   23 1  
    36   23   33 1  
    37   24   25 ar 
    38   24   29 ar 
    39   25   26 ar 
    40   26   27 ar 
    41   26   30 1  
    42   27   28 ar 
    43   28   29 ar 
    44   29   38 1  
    45    3   40 1  
    46    4   41 1  
    47    5   42 1  
    48    8   43 1  
    49   11   44 1  
    50   12   45 1  
    51   14   46 1  
    52   14   47 1  
    53   15   48 1  
    54   15   49 1  
    55   16   50 1  
    56   16   51 1  
    57   17   52 1  
    58   17   53 1  
    59   18   54 1  
    60   19   55 1  
    61   20   56 1  
    62   21   57 1  
    63   23   58 1  
    64   23   59 1  
    65   25   60 1  
    66   27   61 1  
    67   28   62 1  
    68   31   63 1  
    69   35   64 1  
    70   35   65 1  
    71   38   66 1  
@<TRIPOS>SUBSTRUCTURE
     1 JBJ         1

