### 
### Created by X-TOOL on Wed Jan  1 15:39:35 2020
### 

@<TRIPOS>MOLECULE
6dvl_ligand
   63    65     1     0     0
SMALL
GAST_HUCK


@<TRIPOS>ATOM
      1 C01       -10.5840    6.0180  -46.0430 C.3       1 HBG        -0.0318
      2 C02       -11.3330    5.9400  -44.7170 C.ar      1 HBG        -0.0474
      3 C03       -10.6660    5.7060  -43.5080 C.ar      1 HBG        -0.0554
      4 C04       -11.3440    5.6310  -42.2780 C.ar      1 HBG        -0.0474
      5 C05       -10.5930    5.3810  -41.0040 C.3       1 HBG        -0.0318
      6 C06       -12.7370    5.8020  -42.2800 C.ar      1 HBG        -0.0478
      7 C07       -13.4670    6.0430  -43.4620 C.ar      1 HBG         0.0370
      8 C08       -14.9950    6.2190  -43.4080 C.2       1 HBG         0.2083
      9 C11       -17.4180    5.4950  -43.8870 C.3       1 HBG         0.1244
     10 C12       -18.1020    6.6260  -44.7140 C.2       1 HBG         0.1991
     11 C15       -17.9680    8.2770  -46.6970 C.3       1 HBG         0.0421
     12 C16       -18.4280    7.7570  -48.0560 C.3       1 HBG        -0.0299
     13 C17       -19.0630    8.8370  -48.8850 C.3       1 HBG        -0.0510
     14 C18       -18.0670    9.9220  -49.2580 C.3       1 HBG        -0.0529
     15 C19       -17.1250   10.3730  -48.1000 C.3       1 HBG        -0.0510
     16 C20       -16.8710    9.3600  -46.9450 C.3       1 HBG        -0.0299
     17 C21       -15.3850    4.0800  -44.6450 C.3       1 HBG         0.0716
     18 C22       -15.5160    2.7590  -43.9120 C.ar      1 HBG        -0.0160
     19 C23       -15.8930    2.7060  -42.5690 C.ar      1 HBG        -0.0526
     20 C24       -16.0280    1.4990  -41.8700 C.ar      1 HBG        -0.0485
     21 C25       -15.7890    0.2450  -42.4820 C.ar      1 HBG         0.0444
     22 C26       -15.9430   -1.0350  -41.6930 C.2       1 HBG         0.2227
     23 C30       -15.4120    0.3200  -43.8200 C.ar      1 HBG        -0.0485
     24 C31       -15.2770    1.5200  -44.5160 C.ar      1 HBG        -0.0526
     25 C32       -12.7250    6.1050  -44.6590 C.ar      1 HBG        -0.0478
     26 N10       -15.9420    5.2740  -43.9730 N.am      1 HBG        -0.2416
     27 N14       -17.4740    7.2010  -45.8230 N.am      1 HBG        -0.2822
     28 N28       -16.5560   -1.0290  -40.4160 N.am      1 HBG        -0.1643
     29 O09       -15.4740    7.1890  -42.8500 O.2       1 HBG        -0.3842
     30 O13       -19.2080    7.0110  -44.3690 O.2       1 HBG        -0.3948
     31 O27       -15.5430   -2.1010  -42.1310 O.2       1 HBG        -0.3881
     32 O29       -16.6870   -2.1900  -39.7190 O.3       1 HBG        -0.2721
     33 H1         -9.5094    5.8622  -45.8668 H         1 HBG         0.0390
     34 H2        -10.7415    7.0082  -46.4954 H         1 HBG         0.0390
     35 H3        -10.9606    5.2399  -46.7232 H         1 HBG         0.0390
     36 H4         -9.5896    5.5782  -43.5206 H         1 HBG         0.0530
     37 H5        -11.2989    5.3582  -40.1607 H         1 HBG         0.0390
     38 H6         -9.8597    6.1857  -40.8466 H         1 HBG         0.0390
     39 H7        -10.0696    4.4158  -41.0702 H         1 HBG         0.0390
     40 H8        -13.2712    5.7468  -41.3384 H         1 HBG         0.0550
     41 H9        -17.8953    4.5514  -44.1899 H         1 HBG         0.0767
     42 H10       -17.6444    5.6976  -42.8298 H         1 HBG         0.0767
     43 H11       -18.8249    8.7509  -46.1959 H         1 HBG         0.0556
     44 H12       -19.1612    6.9522  -47.8989 H         1 HBG         0.0287
     45 H13       -17.5572    7.3591  -48.5976 H         1 HBG         0.0287
     46 H14       -19.8844    9.2901  -48.3106 H         1 HBG         0.0266
     47 H15       -19.4634    8.3894  -49.8066 H         1 HBG         0.0266
     48 H16       -18.6318   10.8012  -49.6014 H         1 HBG         0.0265
     49 H17       -17.4414    9.5440  -50.0800 H         1 HBG         0.0265
     50 H18       -17.5614   11.2788  -47.6539 H         1 HBG         0.0266
     51 H19       -16.1491   10.6170  -48.5450 H         1 HBG         0.0266
     52 H20       -15.9301    8.8346  -47.1656 H         1 HBG         0.0287
     53 H21       -16.7592    9.9378  -46.0157 H         1 HBG         0.0287
     54 H22       -15.8954    3.9750  -45.6137 H         1 HBG         0.0697
     55 H23       -14.3133    4.2624  -44.8130 H         1 HBG         0.0697
     56 H24       -16.0891    3.6351  -42.0462 H         1 HBG         0.0570
     57 H25       -16.3248    1.5264  -40.8278 H         1 HBG         0.0651
     58 H26       -15.2127   -0.6048  -44.3491 H         1 HBG         0.0651
     59 H27       -14.9776    1.4924  -45.5575 H         1 HBG         0.0570
     60 H28       -13.2586    6.2901  -45.5843 H         1 HBG         0.0550
     61 H29       -16.5726    6.8336  -46.0519 H         1 HBG         0.1854
     62 H30       -16.8924   -0.1715  -40.0268 H         1 HBG         0.2210
     63 H31       -17.1153   -2.0135  -38.8896 H         1 HBG         0.2491
@<TRIPOS>BOND
     1    2    1 1  
     2    2    3 ar 
     3   25    2 ar 
     4    4    3 ar 
     5    4    5 1  
     6    6    4 ar 
     7    7    6 ar 
     8    8    7 1  
     9    7   25 ar 
    10   26    8 am 
    11    8   29 2  
    12    9   10 1  
    13   26    9 1  
    14   10   27 am 
    15   10   30 2  
    16   11   12 1  
    17   11   16 1  
    18   27   11 1  
    19   12   13 1  
    20   13   14 1  
    21   15   14 1  
    22   16   15 1  
    23   17   18 1  
    24   17   26 1  
    25   18   19 ar 
    26   18   24 ar 
    27   19   20 ar 
    28   20   21 ar 
    29   21   22 1  
    30   21   23 ar 
    31   22   28 am 
    32   22   31 2  
    33   23   24 ar 
    34   28   32 1  
    35    1   33 1  
    36    1   34 1  
    37    1   35 1  
    38    3   36 1  
    39    5   37 1  
    40    5   38 1  
    41    5   39 1  
    42    6   40 1  
    43    9   41 1  
    44    9   42 1  
    45   11   43 1  
    46   12   44 1  
    47   12   45 1  
    48   13   46 1  
    49   13   47 1  
    50   14   48 1  
    51   14   49 1  
    52   15   50 1  
    53   15   51 1  
    54   16   52 1  
    55   16   53 1  
    56   17   54 1  
    57   17   55 1  
    58   19   56 1  
    59   20   57 1  
    60   23   58 1  
    61   24   59 1  
    62   25   60 1  
    63   27   61 1  
    64   28   62 1  
    65   32   63 1  
@<TRIPOS>SUBSTRUCTURE
     1 HBG         1

