### 
### Created by X-TOOL on Wed Jan  1 15:39:35 2020
### 

@<TRIPOS>MOLECULE
6dvm_ligand
   62    64     1     0     0
SMALL
GAST_HUCK


@<TRIPOS>ATOM
      1 C16        23.6500   -7.9230    8.8410 C.2       1 HBJ         0.2227
      2 C15        24.6060   -7.0790    9.6160 C.ar      1 HBJ         0.0444
      3 C14        24.4270   -5.6830    9.6330 C.ar      1 HBJ        -0.0485
      4 C13        25.3210   -4.8330   10.2710 C.ar      1 HBJ        -0.0526
      5 C12        26.4690   -5.3110   10.8970 C.ar      1 HBJ        -0.0160
      6 C11        27.4670   -4.4220   11.5410 C.3       1 HBJ         0.0713
      7 C01        31.4790   -0.3760   19.0090 C.3       1 HBJ        -0.0381
      8 C02        30.6450   -1.1190   17.9680 C.ar      1 HBJ        -0.0606
      9 C03        30.3660   -2.4960   18.0490 C.ar      1 HBJ        -0.0735
     10 C04        29.5850   -3.1480   17.0790 C.ar      1 HBJ        -0.0473
     11 C05        29.0280   -2.4500   15.9830 C.ar      1 HBJ         0.0597
     12 C07        27.2380   -4.0890   15.1630 C.2       1 HBJ         0.2246
     13 C09        26.7190   -4.7580   13.8750 C.3       1 HBJ         0.1297
     14 C20        25.7590   -7.5630   10.2180 C.ar      1 HBJ        -0.0485
     15 C21        26.6510   -6.7140   10.8570 C.ar      1 HBJ        -0.0526
     16 C22        28.9570   -5.5840   13.2400 C.2       1 HBJ         0.2016
     17 C24        30.1530   -5.7730   12.3750 C.ar      1 HBJ         0.0366
     18 C25        30.8910   -6.9270   12.5140 C.ar      1 HBJ        -0.0534
     19 C26        32.0630   -7.1240   11.7960 C.ar      1 HBJ        -0.0381
     20 C27        32.5580   -6.1430   10.8970 C.ar      1 HBJ         0.0452
     21 C29        34.5430   -7.5610   10.4490 C.3       1 HBJ         0.0162
     22 C30        34.3200   -5.3120    9.3720 C.3       1 HBJ         0.0162
     23 C31        31.8180   -4.9570   10.8070 C.ar      1 HBJ        -0.0381
     24 C32        30.6600   -4.7670   11.5340 C.ar      1 HBJ        -0.0534
     25 C33        29.3260   -1.0990   15.9060 C.ar      1 HBJ        -0.0473
     26 C34        30.0990   -0.4550   16.8680 C.ar      1 HBJ        -0.0735
     27 N06        28.2950   -3.1300   14.9900 N.am      1 HBJ        -0.2361
     28 N10        27.7800   -4.8790   12.8570 N.am      1 HBJ        -0.2429
     29 N18        23.6370   -9.3110    9.0160 N.am      1 HBJ        -0.1643
     30 N28        33.7370   -6.3500   10.2180 N.pl3     1 HBJ        -0.3121
     31 O08        26.8200   -4.3890   16.2190 O.2       1 HBJ        -0.3835
     32 O17        22.9840   -7.4440    7.9390 O.2       1 HBJ        -0.3881
     33 O19        22.8060  -10.0450    8.2470 O.3       1 HBJ        -0.2721
     34 O23        28.9990   -5.9550   14.3590 O.2       1 HBJ        -0.3903
     35 H1         23.5644   -5.2581    9.1325 H         1 HBJ         0.0651
     36 H2         25.1194   -3.7680   10.2819 H         1 HBJ         0.0570
     37 H3         27.0564   -3.4033   11.6014 H         1 HBJ         0.0697
     38 H4         28.3850   -4.4121   10.9351 H         1 HBJ         0.0697
     39 H5         31.8096   -1.0816   19.7855 H         1 HBJ         0.0363
     40 H6         30.8703    0.4165   19.4689 H         1 HBJ         0.0363
     41 H7         32.3579    0.0723   18.5227 H         1 HBJ         0.0363
     42 H8         30.7631   -3.0679   18.8798 H         1 HBJ         0.0520
     43 H9         29.4053   -4.2128   17.1737 H         1 HBJ         0.0487
     44 H10        25.8984   -4.1516   13.4641 H         1 HBJ         0.0771
     45 H11        26.3449   -5.7627   14.1210 H         1 HBJ         0.0771
     46 H12        25.9669   -8.6265   10.1883 H         1 HBJ         0.0651
     47 H13        27.5201   -7.1413   11.3440 H         1 HBJ         0.0570
     48 H14        30.5505   -7.6966   13.1972 H         1 HBJ         0.0636
     49 H15        32.6132   -8.0490   11.9250 H         1 HBJ         0.0530
     50 H16        35.4392   -7.5320    9.8118 H         1 HBJ         0.0480
     51 H17        33.9462   -8.4514   10.2020 H         1 HBJ         0.0480
     52 H18        34.8457   -7.6040   11.5056 H         1 HBJ         0.0480
     53 H19        33.6159   -4.4714    9.2852 H         1 HBJ         0.0480
     54 H20        34.5233   -5.7246    8.3728 H         1 HBJ         0.0480
     55 H21        35.2599   -4.9582    9.8208 H         1 HBJ         0.0480
     56 H22        32.1637   -4.1678   10.1492 H         1 HBJ         0.0530
     57 H23        30.1314   -3.8239   11.4549 H         1 HBJ         0.0636
     58 H24        28.9447   -0.5248   15.0693 H         1 HBJ         0.0487
     59 H25        30.2849    0.6073   16.7584 H         1 HBJ         0.0520
     60 H26        28.5415   -2.9185   14.0442 H         1 HBJ         0.2234
     61 H27        24.2285   -9.7480    9.6937 H         1 HBJ         0.2210
     62 H28        22.8994  -10.9638    8.4694 H         1 HBJ         0.2491
@<TRIPOS>BOND
     1    2    1 1  
     2    1   29 am 
     3    1   32 2  
     4    3    2 ar 
     5   14    2 ar 
     6    4    3 ar 
     7    5    4 ar 
     8    6    5 1  
     9    5   15 ar 
    10   28    6 1  
    11    8    7 1  
    12    9    8 ar 
    13    8   26 ar 
    14   10    9 ar 
    15   11   10 ar 
    16   11   25 ar 
    17   27   11 1  
    18   13   12 1  
    19   12   27 am 
    20   12   31 2  
    21   28   13 1  
    22   15   14 ar 
    23   16   17 1  
    24   16   28 am 
    25   16   34 2  
    26   17   18 ar 
    27   17   24 ar 
    28   18   19 ar 
    29   19   20 ar 
    30   20   23 ar 
    31   20   30 1  
    32   30   21 1  
    33   30   22 1  
    34   23   24 ar 
    35   25   26 ar 
    36   29   33 1  
    37    3   35 1  
    38    4   36 1  
    39    6   37 1  
    40    6   38 1  
    41    7   39 1  
    42    7   40 1  
    43    7   41 1  
    44    9   42 1  
    45   10   43 1  
    46   13   44 1  
    47   13   45 1  
    48   14   46 1  
    49   15   47 1  
    50   18   48 1  
    51   19   49 1  
    52   21   50 1  
    53   21   51 1  
    54   21   52 1  
    55   22   53 1  
    56   22   54 1  
    57   22   55 1  
    58   23   56 1  
    59   24   57 1  
    60   25   58 1  
    61   26   59 1  
    62   27   60 1  
    63   29   61 1  
    64   33   62 1  
@<TRIPOS>SUBSTRUCTURE
     1 HBJ         1

