### 
### Created by X-TOOL on Wed Jan  1 15:39:36 2020
### 

@<TRIPOS>MOLECULE
6dvn_ligand
   62    64     1     0     0
SMALL
GAST_HUCK


@<TRIPOS>ATOM
      1 C13       -37.2170   -5.9660   28.4980 C.ar      1 HB7        -0.0534
      2 C15       -35.3090   -7.2780   27.7360 C.ar      1 HB7         0.0452
      3 C17       -33.2160   -8.5710   27.0330 C.3       1 HB7         0.0162
      4 C18       -33.7510   -6.3980   25.9760 C.3       1 HB7         0.0162
      5 C14       -36.0730   -6.1000   27.7110 C.ar      1 HB7        -0.0381
      6 C12       -37.6610   -7.0120   29.3330 C.ar      1 HB7         0.0366
      7 C11       -38.8880   -6.8600   30.2010 C.2       1 HB7         0.2016
      8 C02       -44.2520   -9.5400   25.4990 C.2       1 HB7         0.2227
      9 C05       -43.2960   -8.6610   26.2250 C.ar      1 HB7         0.0444
     10 C06       -42.1650   -9.1860   26.8180 C.ar      1 HB7        -0.0485
     11 C07       -41.2760   -8.3690   27.4960 C.ar      1 HB7        -0.0526
     12 C08       -41.4620   -7.0050   27.6080 C.ar      1 HB7        -0.0160
     13 C09       -40.4980   -6.1430   28.3580 C.3       1 HB7         0.0713
     14 C19       -35.7500   -8.3020   28.5800 C.ar      1 HB7        -0.0381
     15 C20       -36.8920   -8.1650   29.3590 C.ar      1 HB7        -0.0534
     16 C22       -41.2820   -6.3610   30.8050 C.3       1 HB7         0.1243
     17 C23       -41.1130   -5.3280   31.9440 C.2       1 HB7         0.2006
     18 C25       -40.0610   -3.1480   32.7120 C.3       1 HB7         0.0645
     19 C26       -38.8150   -3.4290   33.5290 C.ar      1 HB7        -0.0210
     20 C27       -38.2540   -4.7150   33.5820 C.ar      1 HB7        -0.0584
     21 C28       -37.1100   -4.9730   34.3340 C.ar      1 HB7        -0.0685
     22 C29       -36.4960   -3.9550   35.0510 C.ar      1 HB7        -0.0687
     23 C30       -37.0460   -2.6790   35.0050 C.ar      1 HB7        -0.0685
     24 C31       -38.1890   -2.4240   34.2530 C.ar      1 HB7        -0.0584
     25 C33       -42.6190   -6.4720   27.0180 C.ar      1 HB7        -0.0526
     26 C34       -43.5230   -7.2870   26.3300 C.ar      1 HB7        -0.0485
     27 N03       -44.0890  -10.9430   25.7820 N.am      1 HB7        -0.1643
     28 N10       -40.2350   -6.4380   29.7640 N.am      1 HB7        -0.2434
     29 N16       -34.1280   -7.4270   26.9420 N.pl3     1 HB7        -0.3121
     30 N24       -40.3100   -4.1970   31.7000 N.am      1 HB7        -0.2739
     31 O01       -45.0980   -9.1480   24.7310 O.2       1 HB7        -0.3881
     32 O04       -44.9920  -11.6870   25.0820 O.3       1 HB7        -0.2721
     33 O21       -38.7500   -7.0960   31.3820 O.2       1 HB7        -0.3903
     34 O32       -41.6410   -5.4880   33.0360 O.2       1 HB7        -0.3947
     35 H1        -37.7765   -5.0381   28.4670 H         1 HB7         0.0636
     36 H2        -32.3909   -8.4400   26.3174 H         1 HB7         0.0480
     37 H3        -33.7629   -9.4957   26.7967 H         1 HB7         0.0480
     38 H4        -32.8097   -8.6358   28.0531 H         1 HB7         0.0480
     39 H5        -34.4987   -5.5913   25.9891 H         1 HB7         0.0480
     40 H6        -33.7052   -6.8392   24.9694 H         1 HB7         0.0480
     41 H7        -32.7653   -5.9887   26.2422 H         1 HB7         0.0480
     42 H8        -35.7687   -5.2810   27.0694 H         1 HB7         0.0530
     43 H9        -41.9707  -10.2504   26.7520 H         1 HB7         0.0651
     44 H10       -40.4021   -8.8163   27.9557 H         1 HB7         0.0570
     45 H11       -40.8810   -5.1129   28.3103 H         1 HB7         0.0697
     46 H12       -39.5347   -6.2009   27.8302 H         1 HB7         0.0697
     47 H13       -35.1862   -9.2266   28.6276 H         1 HB7         0.0530
     48 H14       -37.1901   -8.9826   30.0053 H         1 HB7         0.0636
     49 H15       -42.2300   -6.1319   30.2963 H         1 HB7         0.0766
     50 H16       -41.3480   -7.3539   31.2737 H         1 HB7         0.0766
     51 H17       -39.9390   -2.1824   32.1995 H         1 HB7         0.0683
     52 H18       -40.9257   -3.0966   33.3899 H         1 HB7         0.0683
     53 H19       -38.7195   -5.5219   33.0276 H         1 HB7         0.0557
     54 H20       -36.6967   -5.9748   34.3595 H         1 HB7         0.0599
     55 H21       -35.6046   -4.1514   35.6357 H         1 HB7         0.0559
     56 H22       -36.5795   -1.8738   35.5610 H         1 HB7         0.0599
     57 H23       -38.5984   -1.4205   34.2324 H         1 HB7         0.0557
     58 H24       -42.8151   -5.4088   27.0973 H         1 HB7         0.0570
     59 H25       -44.4049   -6.8500   25.8756 H         1 HB7         0.0651
     60 H26       -43.4059  -11.3203   26.4073 H         1 HB7         0.2210
     61 H27       -39.8878   -4.0986   30.7988 H         1 HB7         0.1878
     62 H28       -45.8724  -11.4255   25.3251 H         1 HB7         0.2491
@<TRIPOS>BOND
     1    1    5 ar 
     2    6    1 ar 
     3    5    2 ar 
     4   14    2 ar 
     5    2   29 1  
     6   29    3 1  
     7   29    4 1  
     8    7    6 1  
     9    6   15 ar 
    10   28    7 am 
    11    7   33 2  
    12    9    8 1  
    13    8   27 am 
    14    8   31 2  
    15   10    9 ar 
    16    9   26 ar 
    17   11   10 ar 
    18   12   11 ar 
    19   13   12 1  
    20   12   25 ar 
    21   28   13 1  
    22   15   14 ar 
    23   17   16 1  
    24   16   28 1  
    25   30   17 am 
    26   17   34 2  
    27   18   19 1  
    28   18   30 1  
    29   19   20 ar 
    30   19   24 ar 
    31   20   21 ar 
    32   21   22 ar 
    33   22   23 ar 
    34   23   24 ar 
    35   25   26 ar 
    36   27   32 1  
    37    1   35 1  
    38    3   36 1  
    39    3   37 1  
    40    3   38 1  
    41    4   39 1  
    42    4   40 1  
    43    4   41 1  
    44    5   42 1  
    45   10   43 1  
    46   11   44 1  
    47   13   45 1  
    48   13   46 1  
    49   14   47 1  
    50   15   48 1  
    51   16   49 1  
    52   16   50 1  
    53   18   51 1  
    54   18   52 1  
    55   20   53 1  
    56   21   54 1  
    57   22   55 1  
    58   23   56 1  
    59   24   57 1  
    60   25   58 1  
    61   26   59 1  
    62   27   60 1  
    63   30   61 1  
    64   32   62 1  
@<TRIPOS>SUBSTRUCTURE
     1 HB7         1

