### 
### Created by X-TOOL on Wed Jan  1 15:39:35 2020
### 

@<TRIPOS>MOLECULE
6dvo_ligand
   53    56     1     0     0
SMALL
GAST_HUCK


@<TRIPOS>ATOM
      1 C10       -48.5050  -24.5930  -10.3720 C.3       1 HBV        -0.0249
      2 C13       -47.8270  -28.4870  -10.5490 C.3       1 HBV        -0.0399
      3 C01       -48.0200  -22.2700  -11.0140 C.3       1 HBV        -0.0416
      4 C02       -47.9660  -22.8500   -8.7120 C.3       1 HBV         0.0048
      5 C03       -46.9190  -21.8890   -8.1840 C.ar      1 HBV         0.0398
      6 C04       -47.3030  -21.0010   -7.1550 C.ar      1 HBV         0.1437
      7 C05       -46.3740  -20.0660   -6.6020 C.ar      1 HBV        -0.0148
      8 C06       -45.0310  -19.9980   -7.0550 C.ar      1 HBV         0.0426
      9 C07       -44.0270  -18.9680   -6.4670 C.2       1 HBV         0.2218
     10 C08       -44.6830  -20.8890   -8.0680 C.ar      1 HBV        -0.0524
     11 C11       -47.7210  -25.9660  -10.1630 C.3       1 HBV         0.0116
     12 C09       -45.5980  -21.8030   -8.6120 C.ar      1 HBV        -0.0510
     13 C12       -48.5450  -27.1370  -10.7280 C.3       1 HBV        -0.0397
     14 C14       -47.6300  -28.7700   -9.0440 C.3       1 HBV        -0.0473
     15 C15       -46.8270  -27.6280   -8.4160 C.3       1 HBV        -0.0399
     16 C16       -45.4550  -27.6050   -9.0850 C.3       1 HBV        -0.0473
     17 C17       -45.6200  -27.3200  -10.5950 C.3       1 HBV        -0.0399
     18 C18       -46.3290  -25.9670  -10.8340 C.3       1 HBV        -0.0397
     19 C19       -46.4550  -28.4490  -11.2390 C.3       1 HBV        -0.0473
     20 C20       -47.5300  -26.2690   -8.6430 C.3       1 HBV        -0.0397
     21 F01       -48.5260  -21.0720   -6.7470 F         1 HBV        -0.1877
     22 N01       -47.6830  -23.3630  -10.0710 N.4       1 HBV         0.2456
     23 N02       -44.4290  -17.6180   -6.0630 N.am      1 HBV        -0.1643
     24 O01       -43.5850  -16.6950   -5.5620 O.3       1 HBV        -0.2721
     25 O02       -42.8520  -19.2350   -6.3590 O.2       1 HBV        -0.3880
     26 H1        -49.3833  -24.5922   -9.7098 H         1 HBV         0.0820
     27 H2        -48.8356  -24.5398  -11.4198 H         1 HBV         0.0820
     28 H3        -48.4377  -29.2856  -10.9954 H         1 HBV         0.0301
     29 H4        -47.4124  -21.3834  -10.7799 H         1 HBV         0.0778
     30 H5        -49.0867  -22.0191  -10.9184 H         1 HBV         0.0778
     31 H6        -47.8109  -22.5964  -12.0434 H         1 HBV         0.0778
     32 H7        -48.9342  -22.3284   -8.7341 H         1 HBV         0.0982
     33 H8        -48.0267  -23.7068   -8.0248 H         1 HBV         0.0982
     34 H9        -46.7031  -19.3932   -5.8183 H         1 HBV         0.0636
     35 H10       -43.6685  -20.8756   -8.4497 H         1 HBV         0.0618
     36 H11       -45.2619  -22.4695   -9.3980 H         1 HBV         0.0561
     37 H12       -49.5114  -27.1765  -10.2040 H         1 HBV         0.0275
     38 H13       -48.7164  -26.9654  -11.8009 H         1 HBV         0.0275
     39 H14       -47.0843  -29.7165   -8.9163 H         1 HBV         0.0271
     40 H15       -48.6112  -28.8431   -8.5522 H         1 HBV         0.0271
     41 H16       -46.7156  -27.8042   -7.3359 H         1 HBV         0.0301
     42 H17       -44.9643  -28.5799   -8.9479 H         1 HBV         0.0271
     43 H18       -44.8383  -26.8166   -8.6288 H         1 HBV         0.0271
     44 H19       -44.6252  -27.2900  -11.0634 H         1 HBV         0.0301
     45 H20       -45.7194  -25.1573  -10.4066 H         1 HBV         0.0275
     46 H21       -46.4472  -25.8052  -11.9156 H         1 HBV         0.0275
     47 H22       -46.5841  -28.2499  -12.3131 H         1 HBV         0.0271
     48 H23       -45.9436  -29.4134  -11.1037 H         1 HBV         0.0271
     49 H24       -48.5166  -26.2922   -8.1571 H         1 HBV         0.0275
     50 H25       -46.9189  -25.4720   -8.1944 H         1 HBV         0.0275
     51 H26       -46.7053  -23.5949  -10.1505 H         1 HBV         0.2045
     52 H27       -45.3912  -17.3657   -6.1657 H         1 HBV         0.2210
     53 H28       -44.0657  -15.8978   -5.3723 H         1 HBV         0.2491
@<TRIPOS>BOND
     1   11    1 1  
     2    1   22 1  
     3   13    2 1  
     4    2   14 1  
     5    2   19 1  
     6   22    3 1  
     7    4    5 1  
     8   22    4 1  
     9    5    6 ar 
    10    5   12 ar 
    11    6    7 ar 
    12    6   21 1  
    13    7    8 ar 
    14    8    9 1  
    15   10    8 ar 
    16    9   23 am 
    17    9   25 2  
    18   12   10 ar 
    19   11   13 1  
    20   11   18 1  
    21   11   20 1  
    22   14   15 1  
    23   15   16 1  
    24   15   20 1  
    25   16   17 1  
    26   17   18 1  
    27   17   19 1  
    28   23   24 1  
    29    1   26 1  
    30    1   27 1  
    31    2   28 1  
    32    3   29 1  
    33    3   30 1  
    34    3   31 1  
    35    4   32 1  
    36    4   33 1  
    37    7   34 1  
    38   10   35 1  
    39   12   36 1  
    40   13   37 1  
    41   13   38 1  
    42   14   39 1  
    43   14   40 1  
    44   15   41 1  
    45   16   42 1  
    46   16   43 1  
    47   17   44 1  
    48   18   45 1  
    49   18   46 1  
    50   19   47 1  
    51   19   48 1  
    52   20   49 1  
    53   20   50 1  
    54   22   51 1  
    55   23   52 1  
    56   24   53 1  
@<TRIPOS>SUBSTRUCTURE
     1 HBV         1

