### 
### Created by X-TOOL on Wed Jan  1 15:39:37 2020
### 

@<TRIPOS>MOLECULE
6dxg_ligand
   56    59     1     0     0
SMALL
GAST_HUCK


@<TRIPOS>ATOM
      1 C18        -1.6710   31.5840  -14.9430 C.ar      1 HGJ        -0.0400
      2 C17        -2.5330   32.4920  -14.3070 C.ar      1 HGJ        -0.0598
      3 C16        -3.6970   32.0660  -13.6560 C.ar      1 HGJ         0.0298
      4 C15        -4.0310   30.7080  -13.6230 C.ar      1 HGJ        -0.0497
      5 C14        -3.1820   29.7860  -14.2610 C.ar      1 HGJ         0.0151
      6 C12        -2.2090   28.0640  -15.0690 C.2       1 HGJ         0.2444
      7 C01         1.3230   24.9050  -15.8480 C.3       1 HGJ        -0.0357
      8 C02         0.2240   24.5430  -14.8790 C.3       1 HGJ         0.0665
      9 C05        -2.0720   22.2880  -16.5180 C.2       1 HGJ         0.0145
     10 C06        -2.2230   20.9490  -17.0890 C.3       1 HGJ        -0.0264
     11 C07        -2.9320   23.3540  -16.3870 C.2       1 HGJ        -0.0226
     12 C08        -2.1820   24.3640  -15.7540 C.2       1 HGJ         0.1626
     13 C09        -2.7330   25.7000  -15.3860 C.2       1 HGJ         0.2702
     14 C19        -2.0250   30.2440  -14.8970 C.ar      1 HGJ         0.0813
     15 C21        -0.2190   29.0610  -16.2020 C.3       1 HGJ         0.0933
     16 C22         1.1490   28.9130  -15.5490 C.3       1 HGJ         0.1151
     17 C24         2.2330   28.9710  -16.6140 C.ar      1 HGJ        -0.0123
     18 C25         2.9040   27.8210  -17.0470 C.ar      1 HGJ        -0.0578
     19 C26         3.8930   27.9200  -18.0410 C.ar      1 HGJ        -0.0685
     20 C27         4.1940   29.1650  -18.5980 C.ar      1 HGJ        -0.0687
     21 C28         3.5240   30.3070  -18.1740 C.ar      1 HGJ        -0.0685
     22 C29         2.5370   30.2060  -17.1900 C.ar      1 HGJ        -0.0578
     23 C30        -4.5590   33.0410  -12.9780 C.2       1 HGJ         0.1930
     24 N03        -0.9230   23.9590  -15.5110 N.pl3     1 HGJ        -0.1984
     25 N04        -0.9000   22.7040  -15.9820 N.2       1 HGJ        -0.2175
     26 N11        -1.8710   26.7750  -15.4060 N.am      1 HGJ        -0.1813
     27 N13        -3.2830   28.4210  -14.3800 N.2       1 HGJ        -0.3121
     28 N20        -1.4210   29.1160  -15.3900 N.pl3     1 HGJ        -0.2072
     29 N31        -5.5800   32.5560  -12.1520 N.am      1 HGJ        -0.3016
     30 O10        -3.9200   25.8710  -15.1020 O.2       1 HGJ        -0.3664
     31 O23         1.3190   29.9990  -14.6410 O.3       1 HGJ        -0.3767
     32 O32        -4.3880   34.2690  -13.1060 O.2       1 HGJ        -0.3895
     33 H1         -0.7702   31.9154  -15.4468 H         1 HGJ         0.0541
     34 H2         -2.2913   33.5486  -14.3204 H         1 HGJ         0.0555
     35 H3         -4.9278   30.3724  -13.1149 H         1 HGJ         0.0569
     36 H4          2.1671   25.3455  -15.2971 H         1 HGJ         0.0258
     37 H5          0.9421   25.6334  -16.5790 H         1 HGJ         0.0258
     38 H6          1.6609   24.0000  -16.3740 H         1 HGJ         0.0258
     39 H7         -0.0939   25.4565  -14.3552 H         1 HGJ         0.0632
     40 H8          0.6248   23.8231  -14.1503 H         1 HGJ         0.0632
     41 H9         -3.2493   20.8243  -17.4648 H         1 HGJ         0.0377
     42 H10        -2.0223   20.1950  -16.3137 H         1 HGJ         0.0377
     43 H11        -1.5110   20.8213  -17.9177 H         1 HGJ         0.0377
     44 H12        -3.9722   23.4057  -16.7053 H         1 HGJ         0.0407
     45 H13        -0.3375   28.2051  -16.8827 H         1 HGJ         0.0645
     46 H14        -0.1903   29.9928  -16.7859 H         1 HGJ         0.0645
     47 H15         1.2084   27.9561  -15.0097 H         1 HGJ         0.0784
     48 H16         2.6613   26.8562  -16.6166 H         1 HGJ         0.0557
     49 H17         4.4202   27.0333  -18.3740 H         1 HGJ         0.0599
     50 H18         4.9551   29.2413  -19.3661 H         1 HGJ         0.0559
     51 H19         3.7662   31.2717  -18.6049 H         1 HGJ         0.0599
     52 H20         2.0029   31.0938  -16.8712 H         1 HGJ         0.0557
     53 H21        -0.9267   26.6041  -15.6874 H         1 HGJ         0.2400
     54 H22        -6.1842   33.1951  -11.6761 H         1 HGJ         0.1805
     55 H23        -5.7051   31.5704  -12.0379 H         1 HGJ         0.1805
     56 H24         0.6419   29.9629  -13.9756 H         1 HGJ         0.2131
@<TRIPOS>BOND
     1    1    2 ar 
     2   14    1 ar 
     3    2    3 ar 
     4    4    3 ar 
     5    3   23 1  
     6    5    4 ar 
     7   14    5 ar 
     8    5   27 1  
     9    6   26 1  
    10    6   27 2  
    11   28    6 1  
    12    8    7 1  
    13   24    8 1  
    14    9   10 1  
    15   11    9 1  
    16    9   25 2  
    17   12   11 2  
    18   13   12 1  
    19   12   24 1  
    20   26   13 am 
    21   13   30 2  
    22   28   14 1  
    23   15   16 1  
    24   15   28 1  
    25   16   17 1  
    26   16   31 1  
    27   17   18 ar 
    28   17   22 ar 
    29   18   19 ar 
    30   19   20 ar 
    31   20   21 ar 
    32   21   22 ar 
    33   23   29 am 
    34   23   32 2  
    35   24   25 1  
    36    1   33 1  
    37    2   34 1  
    38    4   35 1  
    39    7   36 1  
    40    7   37 1  
    41    7   38 1  
    42    8   39 1  
    43    8   40 1  
    44   10   41 1  
    45   10   42 1  
    46   10   43 1  
    47   11   44 1  
    48   15   45 1  
    49   15   46 1  
    50   16   47 1  
    51   18   48 1  
    52   19   49 1  
    53   20   50 1  
    54   21   51 1  
    55   22   52 1  
    56   26   53 1  
    57   29   54 1  
    58   29   55 1  
    59   31   56 1  
@<TRIPOS>SUBSTRUCTURE
     1 HGJ         1

