### 
### Created by X-TOOL on Wed Jan  1 15:39:38 2020
### 

@<TRIPOS>MOLECULE
6dxl_ligand
   88    93     1     0     0
SMALL
GAST_HUCK


@<TRIPOS>ATOM
      1 C10        69.2460  -12.3700   75.7880 C.2       1 HG4         0.0145
      2 C15        69.1300  -12.2430   77.1800 C.2       1 HG4        -0.0226
      3 C17        67.9170  -11.6400   77.3980 C.2       1 HG4         0.1626
      4 C22        65.1880  -11.2560   79.9050 C.2       1 HG4         0.2441
      5 C24        64.5880  -10.5120   81.8330 C.ar      1 HG4         0.0151
      6 C28        62.1180  -10.2520   83.0620 C.ar      1 HG4        -0.0598
      7 C01        65.8180  -10.8650   74.3320 C.3       1 HG4        -0.0357
      8 C05        66.0920  -10.8070   75.8100 C.3       1 HG4         0.0665
      9 C11        70.3660  -12.9650   74.9970 C.3       1 HG4        -0.0264
     10 C18        67.2420  -11.2210   78.6580 C.2       1 HG4         0.2702
     11 C25        64.5240   -9.9860   83.1220 C.ar      1 HG4        -0.0497
     12 C27        63.2760   -9.8610   83.7350 C.ar      1 HG4         0.0298
     13 C30        62.1750  -10.7730   81.7820 C.ar      1 HG4        -0.0400
     14 C32        63.4230  -10.8940   81.1840 C.ar      1 HG4         0.0810
     15 C34        62.9330  -11.8850   78.8940 C.3       1 HG4         0.0578
     16 C37        62.5710  -13.3470   79.1000 C.3       1 HG4        -0.0243
     17 C40        63.4440  -14.2970   78.2970 C.3       1 HG4        -0.0243
     18 C43        63.1190  -15.7630   78.5400 C.3       1 HG4         0.0578
     19 C47        62.3090  -16.4600   76.2330 C.2       1 HG4         0.2441
     20 C50        63.6980  -16.3690   74.2520 C.2       1 HG4         0.2702
     21 C52        65.0490  -16.0070   73.7430 C.2       1 HG4         0.1626
     22 C53        65.4490  -15.3290   72.6200 C.2       1 HG4        -0.0226
     23 C55        66.8470  -15.3170   72.6530 C.2       1 HG4         0.0145
     24 C56        67.7980  -14.7070   71.6760 C.3       1 HG4        -0.0264
     25 C62        66.3690  -17.1310   75.6280 C.3       1 HG4         0.0665
     26 C65        66.8930  -16.2770   76.7510 C.3       1 HG4        -0.0357
     27 C70        60.3090  -17.1500   76.6840 C.ar      1 HG4         0.0151
     28 C71        59.0070  -17.6490   76.6570 C.ar      1 HG4        -0.0497
     29 C73        58.2860  -17.7120   77.8510 C.ar      1 HG4         0.0298
     30 C74        58.8630  -17.2850   79.0470 C.ar      1 HG4        -0.0598
     31 C76        60.1540  -16.7910   79.0830 C.ar      1 HG4        -0.0400
     32 C78        60.8590  -16.7310   77.8900 C.ar      1 HG4         0.0810
     33 C79        56.8840  -18.2480   77.8400 C.2       1 HG4         0.1930
     34 C84        63.1870   -9.2950   85.1220 C.2       1 HG4         0.1930
     35 N08        67.3670  -11.4220   76.1720 N.pl3     1 HG4        -0.1984
     36 N09        68.1770  -11.8760   75.1690 N.2       1 HG4        -0.2175
     37 N20        65.9350  -11.6130   78.8020 N.am      1 HG4        -0.1813
     38 N23        65.6950  -10.7410   81.0070 N.2       1 HG4        -0.3121
     39 N33        63.8200  -11.3650   79.9400 N.pl3     1 HG4        -0.2117
     40 N46        62.1420  -16.2980   77.5840 N.pl3     1 HG4        -0.2117
     41 N48        63.4870  -16.1510   75.5870 N.am      1 HG4        -0.1813
     42 N60        67.3090  -15.9520   73.7260 N.2       1 HG4        -0.2175
     43 N61        66.1900  -16.3800   74.3860 N.pl3     1 HG4        -0.1984
     44 N69        61.2270  -16.9830   75.6460 N.2       1 HG4        -0.3121
     45 N80        56.6180  -19.2730   77.0390 N.am      1 HG4        -0.3016
     46 N85        63.8250   -8.1570   85.3690 N.am      1 HG4        -0.3016
     47 O19        67.8330  -10.5540   79.5050 O.2       1 HG4        -0.3664
     48 O51        62.8400  -16.8400   73.5040 O.2       1 HG4        -0.3664
     49 O83        56.0270  -17.7300   78.5700 O.2       1 HG4        -0.3895
     50 O88        62.5300   -9.8940   85.9840 O.2       1 HG4        -0.3895
     51 H1         69.8526  -12.5576   77.9316 H         1 HG4         0.0407
     52 H2         61.1565  -10.1455   83.5511 H         1 HG4         0.0555
     53 H3         64.8492  -10.3892   74.1198 H         1 HG4         0.0258
     54 H4         65.7902  -11.9149   74.0051 H         1 HG4         0.0258
     55 H5         66.6141  -10.3333   73.7903 H         1 HG4         0.0258
     56 H6         65.2843  -11.3345   76.3386 H         1 HG4         0.0632
     57 H7         66.1082   -9.7528   76.1238 H         1 HG4         0.0632
     58 H8         70.1311  -12.9020   73.9242 H         1 HG4         0.0377
     59 H9         70.4969  -14.0192   75.2824 H         1 HG4         0.0377
     60 H10        71.2943  -12.4116   75.2022 H         1 HG4         0.0377
     61 H11        65.4263   -9.6797   83.6389 H         1 HG4         0.0569
     62 H12        61.2740  -11.0774   81.2618 H         1 HG4         0.0541
     63 H13        62.0072  -11.2909   78.8913 H         1 HG4         0.0596
     64 H14        63.4378  -11.7817   77.9222 H         1 HG4         0.0596
     65 H15        61.5237  -13.4942   78.7976 H         1 HG4         0.0291
     66 H16        62.6818  -13.5879   80.1676 H         1 HG4         0.0291
     67 H17        64.4947  -14.1221   78.5715 H         1 HG4         0.0291
     68 H18        63.3035  -14.0808   77.2276 H         1 HG4         0.0291
     69 H19        62.7099  -15.8681   79.5556 H         1 HG4         0.0596
     70 H20        64.0475  -16.3468   78.4565 H         1 HG4         0.0596
     71 H21        64.8080  -14.8892   71.8573 H         1 HG4         0.0407
     72 H22        68.8309  -14.8846   72.0100 H         1 HG4         0.0377
     73 H23        67.6142  -13.6243   71.6125 H         1 HG4         0.0377
     74 H24        67.6493  -15.1629   70.6860 H         1 HG4         0.0377
     75 H25        65.3978  -17.5511   75.9286 H         1 HG4         0.0632
     76 H26        67.0816  -17.9488   75.4454 H         1 HG4         0.0632
     77 H27        67.0076  -16.8915   77.6562 H         1 HG4         0.0258
     78 H28        66.1853  -15.4588   76.9505 H         1 HG4         0.0258
     79 H29        67.8691  -15.8566   76.4673 H         1 HG4         0.0258
     80 H30        58.5628  -17.9819   75.7259 H         1 HG4         0.0569
     81 H31        58.2890  -17.3415   79.9648 H         1 HG4         0.0555
     82 H32        60.6009  -16.4611   80.0139 H         1 HG4         0.0541
     83 H33        65.5130  -12.1722   78.0884 H         1 HG4         0.2400
     84 H34        64.2277  -15.7455   76.1227 H         1 HG4         0.2400
     85 H35        55.6946  -19.6555   77.0063 H         1 HG4         0.1805
     86 H36        57.3410  -19.6625   76.4685 H         1 HG4         0.1805
     87 H37        63.7876   -7.7508   86.2820 H         1 HG4         0.1805
     88 H38        64.3429   -7.7061   84.6420 H         1 HG4         0.1805
@<TRIPOS>BOND
     1    2    1 1  
     2    1    9 1  
     3    1   36 2  
     4    3    2 2  
     5   10    3 1  
     6    3   35 1  
     7    4   37 1  
     8    4   38 2  
     9   39    4 1  
    10    5   11 ar 
    11   14    5 ar 
    12    5   38 1  
    13    6   12 ar 
    14   13    6 ar 
    15    8    7 1  
    16   35    8 1  
    17   37   10 am 
    18   10   47 2  
    19   11   12 ar 
    20   12   34 1  
    21   14   13 ar 
    22   39   14 1  
    23   16   15 1  
    24   15   39 1  
    25   17   16 1  
    26   18   17 1  
    27   40   18 1  
    28   19   40 1  
    29   19   41 1  
    30   44   19 2  
    31   20   21 1  
    32   41   20 am 
    33   20   48 2  
    34   21   22 2  
    35   21   43 1  
    36   22   23 1  
    37   23   24 1  
    38   23   42 2  
    39   25   26 1  
    40   43   25 1  
    41   27   28 ar 
    42   27   32 ar 
    43   27   44 1  
    44   28   29 ar 
    45   29   30 ar 
    46   29   33 1  
    47   30   31 ar 
    48   31   32 ar 
    49   32   40 1  
    50   33   45 am 
    51   33   49 2  
    52   34   46 am 
    53   34   50 2  
    54   35   36 1  
    55   42   43 1  
    56    2   51 1  
    57    6   52 1  
    58    7   53 1  
    59    7   54 1  
    60    7   55 1  
    61    8   56 1  
    62    8   57 1  
    63    9   58 1  
    64    9   59 1  
    65    9   60 1  
    66   11   61 1  
    67   13   62 1  
    68   15   63 1  
    69   15   64 1  
    70   16   65 1  
    71   16   66 1  
    72   17   67 1  
    73   17   68 1  
    74   18   69 1  
    75   18   70 1  
    76   22   71 1  
    77   24   72 1  
    78   24   73 1  
    79   24   74 1  
    80   25   75 1  
    81   25   76 1  
    82   26   77 1  
    83   26   78 1  
    84   26   79 1  
    85   28   80 1  
    86   30   81 1  
    87   31   82 1  
    88   37   83 1  
    89   41   84 1  
    90   45   85 1  
    91   45   86 1  
    92   46   87 1  
    93   46   88 1  
@<TRIPOS>SUBSTRUCTURE
     1 HG4         1

