### 
### Created by X-TOOL on Wed Jan  1 15:39:37 2020
### 

@<TRIPOS>MOLECULE
6dxx_ligand
   52    55     1     0     0
SMALL
GAST_HUCK


@<TRIPOS>ATOM
      1 C01        28.3790   -2.7630   30.9560 C.3       1 WTF        -0.0453
      2 C02        29.5320   -1.8310   30.5640 C.3       1 WTF         0.0687
      3 S03        30.3020   -2.3920   29.0040 S.o2      1 WTF        -0.0004
      4 O04        31.0450   -1.3060   28.3940 O.2       1 WTF        -0.1687
      5 O05        31.3540   -3.3780   29.2280 O.2       1 WTF        -0.1687
      6 C06        29.0260   -3.1090   27.8500 C.ar      1 WTF         0.1079
      7 C07        28.3060   -2.2740   27.0020 C.ar      1 WTF         0.0748
      8 C08        27.3690   -2.7930   26.1510 C.ar      1 WTF        -0.0401
      9 C09        27.1650   -4.1750   26.1200 C.ar      1 WTF        -0.0561
     10 C10        27.8880   -5.0110   26.9470 C.ar      1 WTF        -0.0557
     11 C11        28.8210   -4.4880   27.8100 C.ar      1 WTF        -0.0312
     12 C12        28.5670   -0.7220   27.0870 C.2       1 WTF         0.2096
     13 O13        28.1590   -0.1490   28.0260 O.2       1 WTF        -0.3844
     14 N14        29.3260    0.0070   26.0480 N.am      1 WTF        -0.2655
     15 C15        29.8600   -0.6180   24.8890 C.3       1 WTF         0.0551
     16 C16        31.1020    0.0550   24.2440 C.3       1 WTF         0.0582
     17 N17        30.9720    1.5550   24.0420 N.pl3     1 WTF        -0.2624
     18 C18        29.9180    2.1880   24.9210 C.3       1 WTF         0.0607
     19 C19        29.5260    1.4200   26.1930 C.3       1 WTF         0.0630
     20 C20        30.6130    1.6940   27.2540 C.3       1 WTF        -0.0398
     21 C21        31.6830    2.3250   23.0480 C.2       1 WTF         0.1863
     22 N22        31.9370    3.7090   23.0900 N.2       1 WTF        -0.3100
     23 C23        32.6450    4.1090   21.8890 C.ar      1 WTF         0.0070
     24 C24        32.9120    3.0760   20.9840 C.ar      1 WTF         0.0478
     25 S25        32.2970    1.6760   21.6440 S.3       1 WTF         0.0269
     26 C26        33.6070    3.3220   19.7640 C.ar      1 WTF        -0.0196
     27 C27        34.0450    4.6880   19.4680 C.ar      1 WTF         0.1195
     28 F28        34.7380    4.9600   18.2590 F         1 WTF        -0.1915
     29 C29        33.7800    5.7760   20.3880 C.ar      1 WTF        -0.0414
     30 C30        33.0780    5.4730   21.5960 C.ar      1 WTF        -0.0641
     31 H1         27.9271   -2.4120   31.8954 H         1 WTF         0.0245
     32 H2         28.7636   -3.7844   31.0933 H         1 WTF         0.0245
     33 H3         27.6193   -2.7611   30.1605 H         1 WTF         0.0245
     34 H4         30.2881   -1.8338   31.3629 H         1 WTF         0.0502
     35 H5         29.1438   -0.8105   30.4301 H         1 WTF         0.0502
     36 H6         26.7911   -2.1393   25.5078 H         1 WTF         0.0670
     37 H7         26.4322   -4.5945   25.4402 H         1 WTF         0.0629
     38 H8         27.7196   -6.0814   26.9157 H         1 WTF         0.0653
     39 H9         29.3942   -5.1434   28.4558 H         1 WTF         0.0648
     40 H10        29.0647   -0.6474   24.1296 H         1 WTF         0.0543
     41 H11        30.1425   -1.6449   25.1641 H         1 WTF         0.0543
     42 H12        31.2738   -0.4102   23.2621 H         1 WTF         0.0555
     43 H13        31.9696   -0.1301   24.8943 H         1 WTF         0.0555
     44 H14        29.0092    2.3129   24.3140 H         1 WTF         0.0558
     45 H15        30.2912    3.1756   25.2300 H         1 WTF         0.0558
     46 H16        28.5744    1.8412   26.5493 H         1 WTF         0.0576
     47 H17        30.7588    2.7794   27.3577 H         1 WTF         0.0253
     48 H18        31.5576    1.2255   26.9407 H         1 WTF         0.0253
     49 H19        30.2973    1.2726   28.2198 H         1 WTF         0.0253
     50 H20        33.8073    2.5144   19.0693 H         1 WTF         0.0542
     51 H21        34.1036    6.7868   20.1673 H         1 WTF         0.0538
     52 H22        32.8643    6.2658   22.3037 H         1 WTF         0.0530
@<TRIPOS>BOND
     1    1    2 1  
     2    2    3 1  
     3    3    4 2  
     4    3    5 2  
     5    3    6 1  
     6    6    7 ar 
     7    6   11 ar 
     8    7    8 ar 
     9    7   12 1  
    10    8    9 ar 
    11    9   10 ar 
    12   10   11 ar 
    13   12   13 2  
    14   12   14 am 
    15   14   15 1  
    16   14   19 1  
    17   15   16 1  
    18   16   17 1  
    19   17   18 1  
    20   17   21 1  
    21   18   19 1  
    22   19   20 1  
    23   21   22 2  
    24   21   25 1  
    25   22   23 1  
    26   23   24 ar 
    27   23   30 ar 
    28   24   25 1  
    29   24   26 ar 
    30   26   27 ar 
    31   27   28 1  
    32   27   29 ar 
    33   29   30 ar 
    34    1   31 1  
    35    1   32 1  
    36    1   33 1  
    37    2   34 1  
    38    2   35 1  
    39    8   36 1  
    40    9   37 1  
    41   10   38 1  
    42   11   39 1  
    43   15   40 1  
    44   15   41 1  
    45   16   42 1  
    46   16   43 1  
    47   18   44 1  
    48   18   45 1  
    49   19   46 1  
    50   20   47 1  
    51   20   48 1  
    52   20   49 1  
    53   26   50 1  
    54   29   51 1  
    55   30   52 1  
@<TRIPOS>SUBSTRUCTURE
     1 WTF         1

