### 
### Created by X-TOOL on Mon Aug  2 16:13:03 2021
### 

@<TRIPOS>MOLECULE
6dy7_ligand
   31    32     1     0     0
SMALL
GAST_HUCK


@<TRIPOS>ATOM
      1 N11       -11.1640   25.6430   -1.9890 N.pl3     1 HH7        -0.2829
      2 CL1        -6.9230   25.1850    6.7140 Cl        1 HH7        -0.0810
      3 C02        -7.5780   25.5100    5.0880 C.ar      1 HH7         0.0291
      4 C03        -6.6520   26.0080    3.9950 C.ar      1 HH7        -0.0426
      5 C04        -7.1950   26.2910    2.6050 C.ar      1 HH7         0.0685
      6 CL2        -6.0990   26.8760    1.3290 Cl        1 HH7        -0.0787
      7 C06        -8.6740   26.0810    2.2890 C.ar      1 HH7         0.1059
      8 O07        -9.1350   26.3550    0.9900 O.3       1 HH7        -0.3167
      9 C08       -10.5170   26.2310    0.7960 C.3       1 HH7         0.0726
     10 C09       -10.8230   24.8190    0.3010 C.3       1 HH7        -0.0049
     11 C10       -10.4380   24.6870   -1.1710 C.3       1 HH7         0.0326
     12 C12       -12.3960   25.2450   -2.6380 C.2       1 HH7         0.2039
     13 N13       -13.0200   23.9210   -2.5440 N.pl3     1 HH7        -0.2501
     14 C14       -14.2250   23.9370   -3.3350 C.2       1 HH7         0.0189
     15 C15       -14.3640   25.3160   -3.9370 C.2       1 HH7        -0.0470
     16 N16       -13.2230   26.0950   -3.4970 N.2       1 HH7        -0.3335
     17 C17        -9.6180   25.5760    3.3900 C.ar      1 HH7        -0.0317
     18 C18        -9.0620   25.2920    4.7920 C.ar      1 HH7        -0.0565
     19 H1        -10.8038   26.6007   -2.1070 H         1 HH7         0.1841
     20 H2         -5.6001   26.1624    4.2063 H         1 HH7         0.0601
     21 H3        -10.8521   26.9649    0.0483 H         1 HH7         0.0615
     22 H4        -11.0408   26.4105    1.7465 H         1 HH7         0.0615
     23 H5        -11.8983   24.6177    0.4158 H         1 HH7         0.0311
     24 H6        -10.2486   24.0924    0.8943 H         1 HH7         0.0311
     25 H7         -9.3585   24.8695   -1.2777 H         1 HH7         0.0520
     26 H8        -10.6735   23.6687   -1.5140 H         1 HH7         0.0520
     27 H9        -12.6600   23.1195   -2.0065 H         1 HH7         0.2348
     28 H10       -14.9125   23.1039   -3.4739 H         1 HH7         0.0740
     29 H11       -15.1712   25.6607   -4.5816 H         1 HH7         0.0379
     30 H12       -10.6698   25.4212    3.1784 H         1 HH7         0.0543
     31 H13        -9.7229   24.9361    5.5740 H         1 HH7         0.0597
@<TRIPOS>BOND
     1   11    1 1  
     2    1   12 1  
     3    3    2 1  
     4    4    3 ar 
     5    3   18 ar 
     6    5    4 ar 
     7    5    6 1  
     8    7    5 ar 
     9    8    7 1  
    10    7   17 ar 
    11    9    8 1  
    12   10    9 1  
    13   10   11 1  
    14   12   13 1  
    15   12   16 2  
    16   13   14 1  
    17   14   15 2  
    18   15   16 1  
    19   17   18 ar 
    20    1   19 1  
    21    4   20 1  
    22    9   21 1  
    23    9   22 1  
    24   10   23 1  
    25   10   24 1  
    26   11   25 1  
    27   11   26 1  
    28   13   27 1  
    29   14   28 1  
    30   15   29 1  
    31   17   30 1  
    32   18   31 1  
@<TRIPOS>SUBSTRUCTURE
     1 HH7         1

