### 
### Created by X-TOOL on Mon Aug  2 16:13:03 2021
### 

@<TRIPOS>MOLECULE
6dya_ligand
   39    41     1     0     0
SMALL
GAST_HUCK


@<TRIPOS>ATOM
      1 C21        16.8220   18.2600   27.8210 C.ar      1 HHM         0.0344
      2 C11        14.5890   18.8710   26.5510 C.ar      1 HHM        -0.0201
      3 C22        15.3710   18.7350   27.8510 C.ar      1 HHM        -0.0444
      4 C01         9.6780   16.6370   22.5000 C.ar      1 HHM        -0.0628
      5 C02         9.7080   17.1770   21.0740 C.ar      1 HHM        -0.0533
      6 C03        10.4980   18.4400   20.7440 C.ar      1 HHM        -0.0067
      7 C04        11.2560   19.1740   21.8420 C.ar      1 HHM        -0.0379
      8 C05        11.2270   18.6280   23.2660 C.ar      1 HHM         0.0434
      9 C06        10.4400   17.3660   23.6000 C.ar      1 HHM        -0.0489
     10 C07        11.9950   19.3520   24.3630 C.2       1 HHM         0.2051
     11 N08        12.4110   18.6330   25.5510 N.am      1 HHM        -0.2749
     12 O09        12.2530   20.4990   24.2390 O.2       1 HHM        -0.3845
     13 C10        13.1420   19.3420   26.5820 C.3       1 HHM         0.0640
     14 C12        10.5190   18.9760   19.3150 C.3       1 HHM         0.0931
     15 N13        11.7550   18.5930   18.6540 N.pl3     1 HHM        -0.2408
     16 C14        12.7840   19.3760   18.4220 C.2       1 HHM         0.0384
     17 C15        13.7310   18.6410   17.7800 C.2       1 HHM        -0.0234
     18 N16        13.2700   17.4230   17.6290 N.2       1 HHM        -0.3301
     19 C17        12.0410   17.3760   18.1660 C.2       1 HHM         0.0993
     20 C18        15.2470   18.5340   25.2190 C.ar      1 HHM        -0.0444
     21 C19        16.6970   18.0580   25.1850 C.ar      1 HHM         0.0344
     22 C20        17.4870   17.9210   26.4870 C.ar      1 HHM        -0.0409
     23 CL2        17.7410   18.1020   29.3400 Cl        1 HHM        -0.0725
     24 CL1        17.4730   17.6610   23.6310 Cl        1 HHM        -0.0725
     25 H1         14.8981   18.9751   28.7964 H         1 HHM         0.0564
     26 H2          9.1170   15.7384   22.7301 H         1 HHM         0.0611
     27 H3          9.1651   16.6607   20.2906 H         1 HHM         0.0593
     28 H4         11.8113   20.0765   21.6137 H         1 HHM         0.0608
     29 H5         10.4225   16.9886   24.6160 H         1 HHM         0.0611
     30 H6         12.1967   17.6621   25.6575 H         1 HHM         0.1872
     31 H7         13.0989   20.4244   26.3910 H         1 HHM         0.0683
     32 H8         12.7012   19.1254   27.5663 H         1 HHM         0.0683
     33 H9         10.4437   20.0732   19.3372 H         1 HHM         0.0790
     34 H10         9.6657   18.5610   18.7586 H         1 HHM         0.0790
     35 H11        12.8644   20.4271   18.6953 H         1 HHM         0.0862
     36 H12        14.7037   19.0016   17.4487 H         1 HHM         0.0444
     37 H13        11.3901   16.5036   18.1998 H         1 HHM         0.1216
     38 H14        14.6862   18.6321   24.2965 H         1 HHM         0.0564
     39 H15        18.5170   17.5840   26.4641 H         1 HHM         0.0571
@<TRIPOS>BOND
     1    3    1 ar 
     2    1   22 ar 
     3    1   23 1  
     4    2    3 ar 
     5   13    2 1  
     6    2   20 ar 
     7    4    5 ar 
     8    9    4 ar 
     9    6    5 ar 
    10    7    6 ar 
    11    6   14 1  
    12    8    7 ar 
    13    8    9 ar 
    14   10    8 1  
    15   11   10 am 
    16   10   12 2  
    17   11   13 1  
    18   14   15 1  
    19   15   16 1  
    20   15   19 1  
    21   16   17 2  
    22   17   18 1  
    23   18   19 2  
    24   20   21 ar 
    25   21   22 ar 
    26   21   24 1  
    27    3   25 1  
    28    4   26 1  
    29    5   27 1  
    30    7   28 1  
    31    9   29 1  
    32   11   30 1  
    33   13   31 1  
    34   13   32 1  
    35   14   33 1  
    36   14   34 1  
    37   16   35 1  
    38   17   36 1  
    39   19   37 1  
    40   20   38 1  
    41   22   39 1  
@<TRIPOS>SUBSTRUCTURE
     1 HHM         1

