### 
### Created by X-TOOL on Mon Aug  2 16:13:03 2021
### 

@<TRIPOS>MOLECULE
6dyn_ligand
   18    18     1     0     0
SMALL
GAST_HUCK


@<TRIPOS>ATOM
      1 N           9.6440   -3.5380   14.7070 N.4       1 HSM         0.2196
      2 CA          8.5680   -2.6650   15.1540 C.3       1 HSM        -0.0294
      3 CB          7.2800   -3.4830   15.3400 C.3       1 HSM         0.0142
      4 CG          6.2210   -3.0450   14.3180 C.2       1 HSM        -0.0021
      5 ND1         6.4560   -2.6350   13.0850 N.2       1 HSM        -0.3253
      6 CD2         4.8640   -3.0190   14.5130 C.2       1 HSM         0.0291
      7 CE1         5.2740   -2.3460   12.5070 C.2       1 HSM         0.0907
      8 NE2         4.2980   -2.5920   13.4010 N.pl3     1 HSM        -0.2752
      9 H1         10.4865   -2.9980   14.5862 H         1 HSM         0.1995
     10 H2          9.3890   -3.9634   13.8295 H         1 HSM         0.1995
     11 H3          9.8015   -4.2569   15.3958 H         1 HSM         0.1995
     12 H4          8.3974   -1.8805   14.4020 H         1 HSM         0.0830
     13 H5          8.8476   -2.2008   16.1112 H         1 HSM         0.0830
     14 H6          6.8917   -3.3231   16.3567 H         1 HSM         0.0424
     15 H7          7.5036   -4.5504   15.1966 H         1 HSM         0.0424
     16 H8          4.3441   -3.3018   15.4271 H         1 HSM         0.0729
     17 H9          5.1325   -1.9772   11.4922 H         1 HSM         0.1199
     18 H10         3.2875   -2.4685   13.2442 H         1 HSM         0.2361
@<TRIPOS>BOND
     1    1    2 1  
     2    2    3 1  
     3    3    4 1  
     4    4    5 1  
     5    4    6 2  
     6    5    7 2  
     7    6    8 1  
     8    7    8 1  
     9    1    9 1  
    10    1   10 1  
    11    1   11 1  
    12    2   12 1  
    13    2   13 1  
    14    3   14 1  
    15    3   15 1  
    16    6   16 1  
    17    7   17 1  
    18    8   18 1  
@<TRIPOS>SUBSTRUCTURE
     1 HSM         1

