### 
### Created by X-TOOL on Mon Aug  2 16:13:03 2021
### 

@<TRIPOS>MOLECULE
6dyo_ligand
   23    23     1     0     0
SMALL
GAST_HUCK


@<TRIPOS>ATOM
      1 C7          8.5290   -3.2510   14.1950 C.3       1 LDP         0.0136
      2 C1          7.2080   -2.7860   13.5810 C.ar      1 LDP        -0.0576
      3 C4          4.8110   -1.9430   12.4730 C.ar      1 LDP         0.1088
      4 C2          6.0080   -3.1070   14.1970 C.ar      1 LDP        -0.0399
      5 C6          7.2090   -2.0420   12.4110 C.ar      1 LDP        -0.0799
      6 C5          6.0100   -1.6210   11.8570 C.ar      1 LDP        -0.0482
      7 C3          4.8090   -2.6870   13.6450 C.ar      1 LDP         0.1098
      8 O1          3.6000   -3.0150   14.2730 O.3       1 LDP        -0.3385
      9 O2          3.6010   -1.5160   11.9080 O.3       1 LDP        -0.3414
     10 C8          9.1660   -2.0940   14.9600 C.3       1 LDP        -0.0274
     11 N1         10.1880   -1.4650   14.1400 N.4       1 LDP         0.2198
     12 H1          9.2091   -3.5816   13.3961 H         1 LDP         0.0456
     13 H2          8.3394   -4.0869   14.8845 H         1 LDP         0.0456
     14 H3          6.0081   -3.6877   15.1123 H         1 LDP         0.0450
     15 H4          8.1469   -1.7896   11.9297 H         1 LDP         0.0436
     16 H5          6.0102   -1.0399   10.9419 H         1 LDP         0.0492
     17 H6          2.8768   -2.6555   13.7727 H         1 LDP         0.2442
     18 H7          3.0664   -2.2727   11.6979 H         1 LDP         0.2420
     19 H8          9.6235   -2.4755   15.8847 H         1 LDP         0.0834
     20 H9          8.3929   -1.3532   15.2119 H         1 LDP         0.0834
     21 H10        10.6052   -0.7020   14.6497 H         1 LDP         0.1996
     22 H11         9.7700   -1.1141   13.2926 H         1 LDP         0.1996
     23 H12        10.8976   -2.1426   13.9091 H         1 LDP         0.1996
@<TRIPOS>BOND
     1    2    1 1  
     2    1   10 1  
     3    4    2 ar 
     4    2    5 ar 
     5    3    6 ar 
     6    7    3 ar 
     7    3    9 1  
     8    4    7 ar 
     9    5    6 ar 
    10    7    8 1  
    11   10   11 1  
    12    1   12 1  
    13    1   13 1  
    14    4   14 1  
    15    5   15 1  
    16    6   16 1  
    17    8   17 1  
    18    9   18 1  
    19   10   19 1  
    20   10   20 1  
    21   11   21 1  
    22   11   22 1  
    23   11   23 1  
@<TRIPOS>SUBSTRUCTURE
     1 LDP         1

