### 
### Created by X-TOOL on Mon Aug  2 16:13:04 2021
### 

@<TRIPOS>MOLECULE
6dyr_ligand
   28    28     1     0     0
SMALL
GAST_HUCK


@<TRIPOS>ATOM
      1 N1          6.9180   -0.9610   12.7950 N.2       1 HJD        -0.3254
      2 C2          6.7350   -1.7760   13.8840 C.2       1 HJD        -0.0052
      3 N3          9.6890   -3.9900   14.6480 N.am      1 HJD        -0.2854
      4 C4          7.8730   -2.3040   14.6910 C.3       1 HJD        -0.0058
      5 N4         13.4090   -6.5930   15.8780 N.4       1 HJD         0.2202
      6 C5          8.3820   -3.6200   14.1350 C.3       1 HJD         0.0368
      7 C6         10.3830   -5.0200   14.1580 C.2       1 HJD         0.1812
      8 C1          5.3910   -1.9560   13.9840 C.2       1 HJD         0.0290
      9 C3          5.7140   -0.6730   12.2930 C.2       1 HJD         0.0907
     10 C7         11.8120   -5.1730   14.6300 C.3       1 HJD         0.0771
     11 C8         12.0570   -6.4910   15.3370 C.3       1 HJD        -0.0184
     12 N2          4.7580   -1.2560   12.9810 N.pl3     1 HJD        -0.2752
     13 O1          9.9000   -5.7970   13.3370 O.2       1 HJD        -0.3969
     14 H1         10.0833   -3.4544   15.3948 H         1 HJD         0.1852
     15 H2          7.5358   -2.4595   15.7264 H         1 HJD         0.0392
     16 H3          8.6918   -1.5696   14.6784 H         1 HJD         0.0392
     17 H4         13.5212   -7.4837   16.3363 H         1 HJD         0.1996
     18 H5         13.5616   -5.8513   16.5433 H         1 HJD         0.1996
     19 H6         14.0779   -6.5145   15.1280 H         1 HJD         0.1996
     20 H7          7.6656   -4.4117   14.3994 H         1 HJD         0.0536
     21 H8          8.4472   -3.5352   13.0402 H         1 HJD         0.0536
     22 H9          4.8922   -2.5603   14.7403 H         1 HJD         0.0729
     23 H10         5.5462   -0.0369   11.4252 H         1 HJD         0.1199
     24 H11        12.0426   -4.3526   15.3255 H         1 HJD         0.0556
     25 H12        12.4791   -5.1125   13.7575 H         1 HJD         0.0556
     26 H13        11.3381   -6.5864   16.1641 H         1 HJD         0.0839
     27 H14        11.9015   -7.3102   14.6196 H         1 HJD         0.0839
     28 H15         3.7444   -1.2008   12.8062 H         1 HJD         0.2361
@<TRIPOS>BOND
     1    2    1 1  
     2    1    9 2  
     3    4    2 1  
     4    2    8 2  
     5    3    6 1  
     6    7    3 am 
     7    6    4 1  
     8   11    5 1  
     9   10    7 1  
    10    7   13 2  
    11    8   12 1  
    12   12    9 1  
    13   10   11 1  
    14    3   14 1  
    15    4   15 1  
    16    4   16 1  
    17    5   17 1  
    18    5   18 1  
    19    5   19 1  
    20    6   20 1  
    21    6   21 1  
    22    8   22 1  
    23    9   23 1  
    24   10   24 1  
    25   10   25 1  
    26   11   26 1  
    27   11   27 1  
    28   12   28 1  
@<TRIPOS>SUBSTRUCTURE
     1 HJD         1

