### 
### Created by X-TOOL on Mon Aug  2 16:13:04 2021
### 

@<TRIPOS>MOLECULE
6dys_ligand
   33    33     1     0     0
SMALL
GAST_HUCK


@<TRIPOS>ATOM
      1 C02        -1.2160   -6.2920   -7.6540 C.3       1 HJ1        -0.0184
      2 C03        -1.6900   -4.9270   -8.1400 C.3       1 HJ1         0.0771
      3 C04        -2.8160   -5.0620   -9.2230 C.2       1 HJ1         0.1812
      4 C07        -4.1090   -3.1210   -8.1930 C.3       1 HJ1         0.0388
      5 C08        -4.1800   -1.7090   -8.8760 C.3       1 HJ1        -0.0064
      6 C09        -5.4740   -1.4470   -9.5220 C.ar      1 HJ1        -0.0607
      7 C10        -5.5170   -0.8000  -10.7670 C.ar      1 HJ1        -0.0800
      8 C11        -6.7510   -0.5420  -11.3900 C.ar      1 HJ1        -0.0482
      9 C12        -7.9280   -0.9290  -10.7810 C.ar      1 HJ1         0.1088
     10 C14        -7.8820   -1.5810   -9.5300 C.ar      1 HJ1         0.1098
     11 C16        -6.6450   -1.8360   -8.9110 C.ar      1 HJ1        -0.0400
     12 N01         0.1770   -6.2500   -7.1840 N.4       1 HJ1         0.2202
     13 N06        -3.9770   -4.1590   -9.2160 N.am      1 HJ1        -0.2850
     14 O05        -2.7420   -5.8760  -10.0430 O.2       1 HJ1        -0.3969
     15 O13        -9.1900   -0.6620  -11.4290 O.3       1 HJ1        -0.3414
     16 O15        -9.1600   -2.0200   -8.8340 O.3       1 HJ1        -0.3385
     17 H1         -1.2906   -7.0110   -8.4831 H         1 HJ1         0.0839
     18 H2         -1.8617   -6.6192   -6.8257 H         1 HJ1         0.0839
     19 H3         -0.8370   -4.3870   -8.5767 H         1 HJ1         0.0556
     20 H4         -2.0837   -4.3596   -7.2838 H         1 HJ1         0.0556
     21 H5         -5.0282   -3.2935   -7.6140 H         1 HJ1         0.0540
     22 H6         -3.2394   -3.1583   -7.5204 H         1 HJ1         0.0540
     23 H7         -3.3893   -1.6483   -9.6383 H         1 HJ1         0.0423
     24 H8         -4.0094   -0.9396   -8.1086 H         1 HJ1         0.0423
     25 H9         -4.5949   -0.4979  -11.2503 H         1 HJ1         0.0436
     26 H10        -6.7781   -0.0386  -12.3496 H         1 HJ1         0.0492
     27 H11        -6.6135   -2.3395   -7.9515 H         1 HJ1         0.0450
     28 H12         0.4540   -7.1675   -6.8717 H         1 HJ1         0.1996
     29 H13         0.2542   -5.5974   -6.4197 H         1 HJ1         0.1996
     30 H14         0.7775   -5.9564   -7.9385 H         1 HJ1         0.1996
     31 H15        -4.6832   -4.2554   -9.9174 H         1 HJ1         0.1852
     32 H16        -9.6430   -1.4819  -11.5876 H         1 HJ1         0.2420
     33 H17        -9.9083   -1.7816   -9.3685 H         1 HJ1         0.2442
@<TRIPOS>BOND
     1    2    1 1  
     2    1   12 1  
     3    3    2 1  
     4   13    3 am 
     5    3   14 2  
     6    4    5 1  
     7    4   13 1  
     8    5    6 1  
     9    6    7 ar 
    10    6   11 ar 
    11    7    8 ar 
    12    8    9 ar 
    13    9   10 ar 
    14    9   15 1  
    15   10   11 ar 
    16   10   16 1  
    17    1   17 1  
    18    1   18 1  
    19    2   19 1  
    20    2   20 1  
    21    4   21 1  
    22    4   22 1  
    23    5   23 1  
    24    5   24 1  
    25    7   25 1  
    26    8   26 1  
    27   11   27 1  
    28   12   28 1  
    29   12   29 1  
    30   12   30 1  
    31   13   31 1  
    32   15   32 1  
    33   16   33 1  
@<TRIPOS>SUBSTRUCTURE
     1 HJ1         1

