### 
### Created by X-TOOL on Mon Aug  2 16:13:04 2021
### 

@<TRIPOS>MOLECULE
6dyu_ligand
   42    44     1     0     0
SMALL
GAST_HUCK


@<TRIPOS>ATOM
      1 O3'        -0.9390  -16.8700  -42.1960 O.3       1 OS2        -0.3860
      2 C3'         0.1370  -17.8270  -42.1980 C.3       1 OS2         0.1032
      3 C2'         0.7740  -17.8980  -40.8280 C.3       1 OS2        -0.0040
      4 N1'        -0.2770  -18.6300  -40.1080 N.4       1 OS2         0.2442
      5 C1'        -0.8770  -19.6290  -41.0180 C.3       1 OS2        -0.0248
      6 C4'        -0.4070  -19.2410  -42.4070 C.3       1 OS2         0.0391
      7 C5'         0.6160  -20.2720  -42.8220 C.3       1 OS2         0.0048
      8 S5'         0.9740  -20.1520  -44.5240 S.3       1 OS2        -0.1474
      9 C20        -0.3940  -21.0030  -45.3100 C.3       1 OS2         0.0549
     10 C21        -0.1260  -21.1100  -46.7370 C.1       1 OS2        -0.0949
     11 C22         0.1330  -21.1400  -47.9750 C.1       1 OS2        -0.1184
     12 C10         0.1430  -19.1610  -38.8070 C.3       1 OS2        -0.0117
     13 C9          1.0820  -20.3300  -38.7140 C.2       1 OS2         0.0166
     14 C4          2.5250  -20.4160  -38.9470 C.ar      1 OS2         0.0483
     15 N3          3.3960  -19.5090  -39.4380 N.ar      1 OS2        -0.3132
     16 C8          0.7190  -21.5870  -38.2460 C.2       1 OS2         0.0326
     17 N7          1.8000  -22.4180  -38.2240 N.pl3     1 OS2        -0.2768
     18 C5          2.8990  -21.7870  -38.6300 C.ar      1 OS2         0.1304
     19 C6          4.3210  -22.1140  -38.8170 C.ar      1 OS2         0.1459
     20 N6          4.7710  -23.3480  -38.5350 N.pl3     1 OS2        -0.3157
     21 N1          5.1210  -21.1450  -39.2920 N.ar      1 OS2        -0.2741
     22 C2          4.6740  -19.8910  -39.5800 C.ar      1 OS2         0.0439
     23 H1         -0.5990  -16.0134  -41.9654 H         1 OS2         0.2100
     24 H2          0.8741  -17.5630  -42.9706 H         1 OS2         0.0652
     25 H3          0.9428  -16.8981  -40.4019 H         1 OS2         0.0840
     26 H4          1.7229  -18.4542  -40.8452 H         1 OS2         0.0840
     27 H5         -1.0021  -17.9608  -39.9022 H         1 OS2         0.2042
     28 H6         -1.9748  -19.5931  -40.9591 H         1 OS2         0.0818
     29 H7         -0.5289  -20.6407  -40.7624 H         1 OS2         0.0818
     30 H8         -1.2321  -19.2282  -43.1344 H         1 OS2         0.0388
     31 H9          0.2212  -21.2761  -42.6080 H         1 OS2         0.0382
     32 H10         1.5407  -20.1116  -42.2483 H         1 OS2         0.0382
     33 H11        -1.3226  -20.4354  -45.1504 H         1 OS2         0.0510
     34 H12        -0.5002  -22.0090  -44.8779 H         1 OS2         0.0510
     35 H13         0.3492  -21.1650  -49.0083 H         1 OS2         0.1228
     36 H14        -0.7756  -19.4552  -38.2782 H         1 OS2         0.0901
     37 H15         0.6246  -18.3299  -38.2709 H         1 OS2         0.0901
     38 H16        -0.2873  -21.8689  -37.9398 H         1 OS2         0.0886
     39 H17         1.7698  -23.4051  -37.9314 H         1 OS2         0.2266
     40 H18         5.7669  -23.5755  -38.6664 H         1 OS2         0.1805
     41 H19         4.1201  -24.0666  -38.1874 H         1 OS2         0.1805
     42 H20         5.3896  -19.1624  -39.9436 H         1 OS2         0.0956
@<TRIPOS>BOND
     1    1    2 1  
     2    2    3 1  
     3    2    6 1  
     4    3    4 1  
     5    4    5 1  
     6    4   12 1  
     7    5    6 1  
     8    6    7 1  
     9    7    8 1  
    10    8    9 1  
    11    9   10 1  
    12   10   11 3  
    13   12   13 1  
    14   13   14 1  
    15   13   16 2  
    16   14   15 ar 
    17   14   18 ar 
    18   15   22 ar 
    19   16   17 1  
    20   17   18 1  
    21   18   19 ar 
    22   19   20 1  
    23   19   21 ar 
    24   21   22 ar 
    25    1   23 1  
    26    2   24 1  
    27    3   25 1  
    28    3   26 1  
    29    4   27 1  
    30    5   28 1  
    31    5   29 1  
    32    6   30 1  
    33    7   31 1  
    34    7   32 1  
    35    9   33 1  
    36    9   34 1  
    37   11   35 1  
    38   12   36 1  
    39   12   37 1  
    40   16   38 1  
    41   17   39 1  
    42   20   40 1  
    43   20   41 1  
    44   22   42 1  
@<TRIPOS>SUBSTRUCTURE
     1 OS2         1

