### 
### Created by X-TOOL on Mon Aug  2 16:13:04 2021
### 

@<TRIPOS>MOLECULE
6dyv_ligand
   48    50     1     0     0
SMALL
GAST_HUCK


@<TRIPOS>ATOM
      1 N6          4.6400  -23.3340  -38.5860 N.pl3     1 OS3        -0.3157
      2 C6          4.2340  -22.0860  -38.8520 C.ar      1 OS3         0.1459
      3 N1          5.0600  -21.1150  -39.3240 N.ar      1 OS3        -0.2741
      4 C2          4.6300  -19.8520  -39.5600 C.ar      1 OS3         0.0439
      5 N3          3.3460  -19.4840  -39.3950 N.ar      1 OS3        -0.3132
      6 C5          2.8210  -21.7720  -38.6450 C.ar      1 OS3         0.1304
      7 C4          2.4600  -20.4110  -38.9450 C.ar      1 OS3         0.0483
      8 N7          1.7260  -22.4380  -38.2460 N.pl3     1 OS3        -0.2768
      9 C8          0.6640  -21.5670  -38.2450 C.2       1 OS3         0.0326
     10 C9          1.0330  -20.2980  -38.6830 C.2       1 OS3         0.0166
     11 C10         0.1330  -19.0790  -38.7720 C.3       1 OS3        -0.0117
     12 N1A        -0.3470  -18.5720  -40.0680 N.4       1 OS3         0.2442
     13 C2A         0.6800  -17.8470  -40.8600 C.3       1 OS3        -0.0040
     14 C3A         0.0280  -17.8280  -42.2130 C.3       1 OS3         0.1032
     15 O3A        -1.0380  -16.8550  -42.2370 O.3       1 OS3        -0.3860
     16 C1A        -0.9520  -19.6120  -40.9430 C.3       1 OS3        -0.0248
     17 C4A        -0.4980  -19.2460  -42.3620 C.3       1 OS3         0.0391
     18 C5A         0.5540  -20.2530  -42.8430 C.3       1 OS3         0.0039
     19 S5A         1.0080  -20.0780  -44.5560 S.3       1 OS3        -0.1602
     20 C20        -0.2850  -20.9490  -45.3710 C.3       1 OS3        -0.0055
     21 C21         0.0760  -21.1930  -46.8260 C.3       1 OS3        -0.0331
     22 C22        -0.8920  -22.2190  -47.4140 C.3       1 OS3         0.0096
     23 C23        -2.1950  -21.5950  -47.6420 C.1       1 OS3        -0.1055
     24 C24        -3.2920  -20.9870  -47.8870 C.1       1 OS3        -0.1192
     25 H1          3.9686  -24.0290  -38.2295 H         1 OS3         0.1805
     26 H2          5.6237  -23.5989  -38.7379 H         1 OS3         0.1805
     27 H3          5.3467  -19.1105  -39.8941 H         1 OS3         0.0956
     28 H4          1.6885  -23.4336  -37.9848 H         1 OS3         0.2266
     29 H5         -0.3456  -21.8367  -37.9384 H         1 OS3         0.0886
     30 H6          0.6827  -18.2518  -38.2992 H         1 OS3         0.0901
     31 H7         -0.7633  -19.3106  -38.1779 H         1 OS3         0.0901
     32 H8         -1.0745  -17.9089  -39.8511 H         1 OS3         0.2042
     33 H9          1.6358  -18.3911  -40.8786 H         1 OS3         0.0840
     34 H10         0.8445  -16.8297  -40.4754 H         1 OS3         0.0840
     35 H11         0.7565  -17.5947  -43.0035 H         1 OS3         0.0652
     36 H12        -0.6835  -15.9938  -42.0493 H         1 OS3         0.2100
     37 H13        -2.0493  -19.5891  -40.8697 H         1 OS3         0.0818
     38 H14        -0.5867  -20.6118  -40.6655 H         1 OS3         0.0818
     39 H15        -1.3473  -19.2601  -43.0609 H         1 OS3         0.0388
     40 H16         0.1535  -21.2667  -42.6948 H         1 OS3         0.0382
     41 H17         1.4594  -20.1235  -42.2319 H         1 OS3         0.0382
     42 H18        -1.2094  -20.3549  -45.3217 H         1 OS3         0.0377
     43 H19        -0.4430  -21.9154  -44.8699 H         1 OS3         0.0377
     44 H20         1.1047  -21.5770  -46.8913 H         1 OS3         0.0282
     45 H21         0.0001  -20.2503  -47.3878 H         1 OS3         0.0282
     46 H22        -1.0065  -23.0578  -46.7117 H         1 OS3         0.0398
     47 H23        -0.4934  -22.5921  -48.3690 H         1 OS3         0.0398
     48 H24        -4.1985  -20.4846  -48.0895 H         1 OS3         0.1228
@<TRIPOS>BOND
     1    1    2 1  
     2    2    3 ar 
     3    2    6 ar 
     4    3    4 ar 
     5    4    5 ar 
     6    5    7 ar 
     7    6    7 ar 
     8    6    8 1  
     9    7   10 1  
    10    8    9 1  
    11    9   10 2  
    12   10   11 1  
    13   11   12 1  
    14   12   13 1  
    15   12   16 1  
    16   13   14 1  
    17   14   15 1  
    18   14   17 1  
    19   16   17 1  
    20   17   18 1  
    21   18   19 1  
    22   19   20 1  
    23   20   21 1  
    24   21   22 1  
    25   22   23 1  
    26   23   24 3  
    27    1   25 1  
    28    1   26 1  
    29    4   27 1  
    30    8   28 1  
    31    9   29 1  
    32   11   30 1  
    33   11   31 1  
    34   12   32 1  
    35   13   33 1  
    36   13   34 1  
    37   14   35 1  
    38   15   36 1  
    39   16   37 1  
    40   16   38 1  
    41   17   39 1  
    42   18   40 1  
    43   18   41 1  
    44   20   42 1  
    45   20   43 1  
    46   21   44 1  
    47   21   45 1  
    48   22   46 1  
    49   22   47 1  
    50   24   48 1  
@<TRIPOS>SUBSTRUCTURE
     1 OS3         1

