### 
### Created by X-TOOL on Mon Aug  2 16:13:04 2021
### 

@<TRIPOS>MOLECULE
6dyw_ligand
   65    69     1     0     0
SMALL
GAST_HUCK


@<TRIPOS>ATOM
      1 O          -1.0190  -16.8440  -42.2490 O.3       1 OS5        -0.3860
      2 C15         0.0530  -17.8000  -42.2180 C.3       1 OS5         0.1032
      3 C14         0.6940  -17.8340  -40.8450 C.3       1 OS5        -0.0040
      4 N          -0.3190  -18.6190  -40.1210 N.4       1 OS5         0.2442
      5 C7          0.1350  -19.1110  -38.8100 C.3       1 OS5        -0.0117
      6 C8          1.0830  -20.2930  -38.7120 C.2       1 OS5         0.0166
      7 C13         2.4440  -20.4260  -38.9390 C.ar      1 OS5         0.0483
      8 N4          3.3050  -19.4790  -39.4120 N.ar      1 OS5        -0.3132
      9 C12         4.5770  -19.8510  -39.5610 C.ar      1 OS5         0.0439
     10 N3          5.0400  -21.0830  -39.2890 N.ar      1 OS5        -0.2741
     11 C11         4.2050  -22.0470  -38.8180 C.ar      1 OS5         0.1459
     12 N2          4.7190  -23.2730  -38.5540 N.pl3     1 OS5        -0.3157
     13 C10         2.8530  -21.7080  -38.6350 C.ar      1 OS5         0.1304
     14 N1          1.7360  -22.3760  -38.2170 N.pl3     1 OS5        -0.2768
     15 C9          0.6770  -21.5340  -38.2560 C.2       1 OS5         0.0326
     16 C6         -0.8480  -19.6580  -41.0300 C.3       1 OS5        -0.0248
     17 C5         -0.4640  -19.2230  -42.4300 C.3       1 OS5         0.0391
     18 C4          0.6080  -20.1660  -42.9570 C.3       1 OS5         0.0039
     19 S           0.7780  -20.0960  -44.7030 S.3       1 OS5        -0.1601
     20 C3         -0.6100  -21.0580  -45.2520 C.3       1 OS5        -0.0050
     21 C2         -0.7190  -21.1850  -46.7690 C.3       1 OS5        -0.0372
     22 C1         -1.9670  -22.0140  -47.0410 C.3       1 OS5        -0.0177
     23 C          -2.2710  -22.1410  -48.5080 C.2       1 OS5         0.0372
     24 N5         -1.3680  -22.4100  -49.4760 N.2       1 OS5        -0.2263
     25 N7         -2.0500  -22.4390  -50.7060 N.2       1 OS5        -0.0999
     26 N6         -3.3830  -22.1910  -50.3880 N.pl3     1 OS5        -0.1699
     27 C16        -3.5300  -21.9980  -49.0850 C.2       1 OS5         0.0717
     28 C17        -4.3130  -22.1970  -51.5120 C.3       1 OS5         0.1089
     29 C18        -5.0740  -20.9010  -51.5910 C.ar      1 OS5        -0.0101
     30 C23        -4.5960  -19.8910  -52.4320 C.ar      1 OS5        -0.0575
     31 C22        -5.2930  -18.6860  -52.5360 C.ar      1 OS5        -0.0685
     32 C21        -6.4660  -18.5000  -51.7940 C.ar      1 OS5        -0.0687
     33 C20        -6.9450  -19.5150  -50.9540 C.ar      1 OS5        -0.0685
     34 C19        -6.2460  -20.7200  -50.8490 C.ar      1 OS5        -0.0575
     35 H1         -0.6781  -15.9809  -42.0454 H         1 OS5         0.2100
     36 H2          0.7949  -17.5403  -42.9875 H         1 OS5         0.0652
     37 H3          0.8105  -16.8254  -40.4218 H         1 OS5         0.0840
     38 H4          1.6705  -18.3401  -40.8608 H         1 OS5         0.0840
     39 H5         -1.0848  -17.9939  -39.9238 H         1 OS5         0.2042
     40 H6         -0.7692  -19.3859  -38.2471 H         1 OS5         0.0901
     41 H7          0.6338  -18.2661  -38.3127 H         1 OS5         0.0901
     42 H8          5.2824  -19.1126  -39.9247 H         1 OS5         0.0956
     43 H9          4.1083  -24.0213  -38.1963 H         1 OS5         0.1805
     44 H10         5.7203  -23.4564  -38.7110 H         1 OS5         0.1805
     45 H11         1.7052  -23.3618  -37.9200 H         1 OS5         0.2266
     46 H12        -0.3413  -21.7945  -37.9712 H         1 OS5         0.0886
     47 H13        -1.9420  -19.7258  -40.9375 H         1 OS5         0.0818
     48 H14        -0.3990  -20.6347  -40.7966 H         1 OS5         0.0818
     49 H15        -1.3293  -19.2280  -43.1091 H         1 OS5         0.0388
     50 H16         0.3428  -21.1945  -42.6708 H         1 OS5         0.0382
     51 H17         1.5706  -19.8946  -42.4992 H         1 OS5         0.0382
     52 H18        -1.5291  -20.5830  -44.8782 H         1 OS5         0.0377
     53 H19        -0.5201  -22.0683  -44.8264 H         1 OS5         0.0377
     54 H20         0.1699  -21.6912  -47.1735 H         1 OS5         0.0289
     55 H21        -0.8153  -20.1902  -47.2284 H         1 OS5         0.0289
     56 H22        -2.8233  -21.5342  -46.5445 H         1 OS5         0.0380
     57 H23        -1.8184  -23.0210  -46.6240 H         1 OS5         0.0380
     58 H24        -4.4592  -21.7707  -48.5645 H         1 OS5         0.0900
     59 H25        -5.0257  -23.0251  -51.3845 H         1 OS5         0.0813
     60 H26        -3.7483  -22.3396  -52.4451 H         1 OS5         0.0813
     61 H27        -3.6865  -20.0435  -53.0017 H         1 OS5         0.0558
     62 H28        -4.9287  -17.8994  -53.1868 H         1 OS5         0.0599
     63 H29        -7.0077  -17.5641  -51.8697 H         1 OS5         0.0559
     64 H30        -7.8565  -19.3650  -50.3867 H         1 OS5         0.0599
     65 H31        -6.6085  -21.5076  -50.1984 H         1 OS5         0.0558
@<TRIPOS>BOND
     1    1    2 1  
     2    2    3 1  
     3    2   17 1  
     4    3    4 1  
     5    4    5 1  
     6    4   16 1  
     7    5    6 1  
     8    6    7 1  
     9    6   15 2  
    10    7    8 ar 
    11    7   13 ar 
    12    8    9 ar 
    13    9   10 ar 
    14   10   11 ar 
    15   11   12 1  
    16   11   13 ar 
    17   13   14 1  
    18   14   15 1  
    19   16   17 1  
    20   17   18 1  
    21   18   19 1  
    22   19   20 1  
    23   20   21 1  
    24   21   22 1  
    25   22   23 1  
    26   23   24 1  
    27   23   27 2  
    28   24   25 2  
    29   25   26 1  
    30   26   27 1  
    31   26   28 1  
    32   28   29 1  
    33   29   30 ar 
    34   29   34 ar 
    35   30   31 ar 
    36   31   32 ar 
    37   32   33 ar 
    38   33   34 ar 
    39    1   35 1  
    40    2   36 1  
    41    3   37 1  
    42    3   38 1  
    43    4   39 1  
    44    5   40 1  
    45    5   41 1  
    46    9   42 1  
    47   12   43 1  
    48   12   44 1  
    49   14   45 1  
    50   15   46 1  
    51   16   47 1  
    52   16   48 1  
    53   17   49 1  
    54   18   50 1  
    55   18   51 1  
    56   20   52 1  
    57   20   53 1  
    58   21   54 1  
    59   21   55 1  
    60   22   56 1  
    61   22   57 1  
    62   27   58 1  
    63   28   59 1  
    64   28   60 1  
    65   30   61 1  
    66   31   62 1  
    67   32   63 1  
    68   33   64 1  
    69   34   65 1  
@<TRIPOS>SUBSTRUCTURE
     1 OS5         1

