### 
### Created by X-TOOL on Mon Aug  2 16:13:05 2021
### 

@<TRIPOS>MOLECULE
6dyz_ligand
   42    44     1     0     0
SMALL
GAST_HUCK


@<TRIPOS>ATOM
      1 O3'        61.7160   17.2870   32.6410 O.3       1 OS2        -0.3860
      2 C3'        60.6040   17.0930   31.7640 C.3       1 OS2         0.1032
      3 C2'        60.9860   17.6160   30.3940 C.3       1 OS2        -0.0040
      4 N1'        61.7930   16.4790   29.9040 N.4       1 OS2         0.2442
      5 C1'        61.0000   15.2740   30.2140 C.3       1 OS2        -0.0248
      6 C4'        60.2890   15.6160   31.5260 C.3       1 OS2         0.0391
      7 C5'        58.7810   15.3560   31.4370 C.3       1 OS2         0.0048
      8 S5'        58.3790   13.6470   31.1150 S.3       1 OS2        -0.1474
      9 C20        58.9240   12.8310   32.5430 C.3       1 OS2         0.0549
     10 C21        58.3060   13.2600   33.7860 C.1       1 OS2        -0.0949
     11 C22        57.7300   13.6700   34.8490 C.1       1 OS2        -0.1184
     12 C10        62.2260   16.5950   28.5170 C.3       1 OS2        -0.0117
     13 C9         61.2180   16.6900   27.4150 C.2       1 OS2         0.0166
     14 C4         60.5890   17.9060   26.9090 C.ar      1 OS2         0.0483
     15 N3         60.6700   19.1640   27.3660 N.ar      1 OS2        -0.3132
     16 C8         60.8240   15.7010   26.5650 C.2       1 OS2         0.0326
     17 N7         59.9610   16.1390   25.6300 N.pl3     1 OS2        -0.2768
     18 C5         59.7880   17.4750   25.7800 C.ar      1 OS2         0.1304
     19 C6         59.0780   18.5300   25.1040 C.ar      1 OS2         0.1459
     20 N6         58.3220   18.2470   24.0420 N.pl3     1 OS2        -0.3157
     21 N1         59.1950   19.7660   25.6340 N.ar      1 OS2        -0.2741
     22 C2         59.9650   20.0570   26.6750 C.ar      1 OS2         0.0439
     23 H1         61.4951   16.9645   33.5068 H         1 OS2         0.2100
     24 H2         59.7218   17.6155   32.1624 H         1 OS2         0.0652
     25 H3         61.5794   18.5398   30.4601 H         1 OS2         0.0840
     26 H4         60.1025   17.7921   29.7628 H         1 OS2         0.0840
     27 H5         62.6366   16.4403   30.4544 H         1 OS2         0.2042
     28 H6         61.6544   14.3992   30.3421 H         1 OS2         0.0818
     29 H7         60.2699   15.0722   29.4164 H         1 OS2         0.0818
     30 H8         60.7004   15.0087   32.3457 H         1 OS2         0.0388
     31 H9         58.3676   15.9713   30.6243 H         1 OS2         0.0382
     32 H10        58.3188   15.6499   32.3909 H         1 OS2         0.0382
     33 H11        60.0086   12.9915   32.6314 H         1 OS2         0.0510
     34 H12        58.7213   11.7572   32.4174 H         1 OS2         0.0510
     35 H13        57.2536   14.0091   35.7283 H         1 OS2         0.1228
     36 H14        62.8440   15.7103   28.3041 H         1 OS2         0.0901
     37 H15        62.8478   17.5003   28.4550 H         1 OS2         0.0901
     38 H16        61.1691   14.6705   26.6345 H         1 OS2         0.0886
     39 H17        59.5054   15.5535   24.9155 H         1 OS2         0.2266
     40 H18        57.8132   18.9997   23.5567 H         1 OS2         0.1805
     41 H19        58.2471   17.2758   23.7073 H         1 OS2         0.1805
     42 H20        60.0239   21.0943   26.9842 H         1 OS2         0.0956
@<TRIPOS>BOND
     1    1    2 1  
     2    2    3 1  
     3    2    6 1  
     4    3    4 1  
     5    4    5 1  
     6    4   12 1  
     7    5    6 1  
     8    6    7 1  
     9    7    8 1  
    10    8    9 1  
    11    9   10 1  
    12   10   11 3  
    13   12   13 1  
    14   13   14 1  
    15   13   16 2  
    16   14   15 ar 
    17   14   18 ar 
    18   15   22 ar 
    19   16   17 1  
    20   17   18 1  
    21   18   19 ar 
    22   19   20 1  
    23   19   21 ar 
    24   21   22 ar 
    25    1   23 1  
    26    2   24 1  
    27    3   25 1  
    28    3   26 1  
    29    4   27 1  
    30    5   28 1  
    31    5   29 1  
    32    6   30 1  
    33    7   31 1  
    34    7   32 1  
    35    9   33 1  
    36    9   34 1  
    37   11   35 1  
    38   12   36 1  
    39   12   37 1  
    40   16   38 1  
    41   17   39 1  
    42   20   40 1  
    43   20   41 1  
    44   22   42 1  
@<TRIPOS>SUBSTRUCTURE
     1 OS2         1

