### 
### Created by X-TOOL on Mon Aug  2 16:13:06 2021
### 

@<TRIPOS>MOLECULE
6dz0_ligand
   48    50     1     0     0
SMALL
GAST_HUCK


@<TRIPOS>ATOM
      1 N6        105.4690   64.0280   46.1970 N.pl3     1 OS3        -0.3157
      2 C6        106.1260   63.5600   47.2860 C.ar      1 OS3         0.1459
      3 N1        107.2510   64.1360   47.7820 N.ar      1 OS3        -0.2741
      4 C2        107.9080   63.6070   48.8400 C.ar      1 OS3         0.0439
      5 N3        107.5210   62.5070   49.5130 N.ar      1 OS3        -0.3132
      6 C5        105.6400   62.3640   47.9290 C.ar      1 OS3         0.1304
      7 C4        106.3980   61.8900   49.0620 C.ar      1 OS3         0.0483
      8 N7        104.5690   61.5100   47.7510 N.pl3     1 OS3        -0.2768
      9 C8        104.6360   60.5210   48.6800 C.2       1 OS3         0.0326
     10 C9        105.7250   60.6880   49.5380 C.2       1 OS3         0.0166
     11 C10       106.1820   59.8030   50.6680 C.3       1 OS3        -0.0117
     12 N1A       105.8860   60.1330   52.0560 N.4       1 OS3         0.2442
     13 C2A       106.3760   61.4630   52.5220 C.3       1 OS3        -0.0040
     14 C3A       105.7460   61.4990   53.8940 C.3       1 OS3         0.1032
     15 O3A       106.4450   60.6420   54.8210 O.3       1 OS3        -0.3860
     16 C1A       104.4350   60.1330   52.3420 C.3       1 OS3        -0.0248
     17 C4A       104.3310   60.9610   53.6330 C.3       1 OS3         0.0391
     18 C5A       103.3610   62.1170   53.4770 C.3       1 OS3         0.0039
     19 S5A       101.6840   61.6290   53.0860 S.3       1 OS3        -0.1602
     20 C20       100.7660   61.6880   54.5750 C.3       1 OS3        -0.0055
     21 C21       101.4050   61.0660   55.7960 C.3       1 OS3        -0.0331
     22 C22       100.4350   61.1440   56.9860 C.3       1 OS3         0.0096
     23 C23       100.3750   62.5350   57.4590 C.1       1 OS3        -0.1055
     24 C24       100.3080   63.7650   57.7850 C.1       1 OS3        -0.1192
     25 H1        104.6191   63.5510   45.8639 H         1 OS3         0.1805
     26 H2        105.8196   64.8607   45.7025 H         1 OS3         0.1805
     27 H3        108.8123   64.1054   49.1700 H         1 OS3         0.0956
     28 H4        103.8386   61.6072   47.0313 H         1 OS3         0.2266
     29 H5        103.9264   59.6977   48.7474 H         1 OS3         0.0886
     30 H6        107.2774   59.7395   50.5901 H         1 OS3         0.0901
     31 H7        105.7432   58.8113   50.4836 H         1 OS3         0.0901
     32 H8        106.3258   59.4234   52.6209 H         1 OS3         0.2042
     33 H9        106.0120   62.2807   51.8826 H         1 OS3         0.0840
     34 H10       107.4741   61.4996   52.5745 H         1 OS3         0.0840
     35 H11       105.7175   62.5250   54.2895 H         1 OS3         0.0652
     36 H12       106.0245   60.6878   55.6716 H         1 OS3         0.2100
     37 H13       104.0640   59.1095   52.4990 H         1 OS3         0.0818
     38 H14       103.8718   60.6057   51.5239 H         1 OS3         0.0818
     39 H15       104.0030   60.3222   54.4663 H         1 OS3         0.0388
     40 H16       103.7274   62.7666   52.6684 H         1 OS3         0.0382
     41 H17       103.3436   62.6811   54.4212 H         1 OS3         0.0382
     42 H18        99.8120   61.1696   54.3984 H         1 OS3         0.0377
     43 H19       100.5714   62.7461   54.8041 H         1 OS3         0.0377
     44 H20       102.3293   61.6094   56.0417 H         1 OS3         0.0282
     45 H21       101.6434   60.0126   55.5873 H         1 OS3         0.0282
     46 H22       100.7923   60.4929   57.7974 H         1 OS3         0.0398
     47 H23        99.4335   60.8182   56.6684 H         1 OS3         0.0398
     48 H24       100.2525   64.7843   58.0552 H         1 OS3         0.1228
@<TRIPOS>BOND
     1    1    2 1  
     2    2    3 ar 
     3    2    6 ar 
     4    3    4 ar 
     5    4    5 ar 
     6    5    7 ar 
     7    6    7 ar 
     8    6    8 1  
     9    7   10 1  
    10    8    9 1  
    11    9   10 2  
    12   10   11 1  
    13   11   12 1  
    14   12   13 1  
    15   12   16 1  
    16   13   14 1  
    17   14   15 1  
    18   14   17 1  
    19   16   17 1  
    20   17   18 1  
    21   18   19 1  
    22   19   20 1  
    23   20   21 1  
    24   21   22 1  
    25   22   23 1  
    26   23   24 3  
    27    1   25 1  
    28    1   26 1  
    29    4   27 1  
    30    8   28 1  
    31    9   29 1  
    32   11   30 1  
    33   11   31 1  
    34   12   32 1  
    35   13   33 1  
    36   13   34 1  
    37   14   35 1  
    38   15   36 1  
    39   16   37 1  
    40   16   38 1  
    41   17   39 1  
    42   18   40 1  
    43   18   41 1  
    44   20   42 1  
    45   20   43 1  
    46   21   44 1  
    47   21   45 1  
    48   22   46 1  
    49   22   47 1  
    50   24   48 1  
@<TRIPOS>SUBSTRUCTURE
     1 OS3         1

