### 
### Created by X-TOOL on Mon Aug  2 16:13:07 2021
### 

@<TRIPOS>MOLECULE
6dz2_ligand
   65    69     1     0     0
SMALL
GAST_HUCK


@<TRIPOS>ATOM
      1 O          85.8310  162.4770  179.2490 O.3       1 OS5        -0.3860
      2 C15        85.1770  161.5950  178.3420 C.3       1 OS5         0.1032
      3 C14        85.0590  162.3850  177.0580 C.3       1 OS5        -0.0040
      4 N          86.1980  161.9210  176.2970 N.4       1 OS5         0.2442
      5 C7         86.1730  162.3020  174.8790 C.3       1 OS5        -0.0117
      6 C8         85.0580  161.8800  173.9810 C.2       1 OS5         0.0166
      7 C13        83.7760  162.4370  173.8090 C.ar      1 OS5         0.0483
      8 N4         83.1910  163.4800  174.4510 N.ar      1 OS5        -0.3132
      9 C12        81.9250  163.8460  174.1310 C.ar      1 OS5         0.0439
     10 N3         81.2690  163.1790  173.1670 N.ar      1 OS5        -0.2741
     11 C11        81.8360  162.1520  172.4850 C.ar      1 OS5         0.1459
     12 N2         81.1520  161.4890  171.5170 N.pl3     1 OS5        -0.3157
     13 C10        83.1200  161.7510  172.8180 C.ar      1 OS5         0.1304
     14 N1         83.9530  160.7860  172.3750 N.pl3     1 OS5        -0.2768
     15 C9         85.1390  160.8600  173.0530 C.2       1 OS5         0.0326
     16 C6         86.2950  160.4760  176.5160 C.3       1 OS5        -0.0248
     17 C5         85.9890  160.3390  178.0020 C.3       1 OS5         0.0391
     18 C4         85.2230  159.0580  178.3040 C.3       1 OS5         0.0039
     19 S          86.0680  157.5850  177.7960 S.3       1 OS5        -0.1601
     20 C3         87.5520  157.4040  178.7390 C.3       1 OS5        -0.0050
     21 C2         88.7180  157.9660  177.9370 C.3       1 OS5        -0.0372
     22 C1         90.0790  157.6700  178.5580 C.3       1 OS5        -0.0177
     23 C          91.1080  158.6410  178.0190 C.2       1 OS5         0.0372
     24 N5         90.8100  159.8640  177.5120 N.2       1 OS5        -0.2263
     25 N7         91.9890  160.4910  177.0900 N.2       1 OS5        -0.0999
     26 N6         92.9980  159.5770  177.3790 N.pl3     1 OS5        -0.1699
     27 C16        92.4980  158.4630  177.9420 C.2       1 OS5         0.0717
     28 C17        94.3290  160.0560  177.0110 C.3       1 OS5         0.1089
     29 C18        94.5170  159.9690  175.5090 C.ar      1 OS5        -0.0101
     30 C23        93.7010  160.6930  174.6270 C.ar      1 OS5        -0.0575
     31 C22        93.8750  160.5930  173.2550 C.ar      1 OS5        -0.0685
     32 C21        94.8700  159.7840  172.7320 C.ar      1 OS5        -0.0687
     33 C20        95.6850  159.0780  173.6020 C.ar      1 OS5        -0.0685
     34 C19        95.5160  159.1550  174.9890 C.ar      1 OS5        -0.0575
     35 H1         85.9406  162.0434  180.0871 H         1 OS5         0.2100
     36 H2         84.1911  161.3075  178.7362 H         1 OS5         0.0652
     37 H3         85.1232  163.4663  177.2496 H         1 OS5         0.0840
     38 H4         84.1159  162.1600  176.5384 H         1 OS5         0.0840
     39 H5         87.0223  162.3475  176.6903 H         1 OS5         0.2042
     40 H6         87.0976  161.9056  174.4341 H         1 OS5         0.0901
     41 H7         86.1950  163.4014  174.8519 H         1 OS5         0.0901
     42 H8         81.4466  164.6696  174.6486 H         1 OS5         0.0956
     43 H9         81.5997  160.7119  171.0104 H         1 OS5         0.1805
     44 H10        80.1856  161.7632  171.2895 H         1 OS5         0.1805
     45 H11        83.7302  160.0997  171.6399 H         1 OS5         0.2266
     46 H12        86.0046  160.2200  172.8882 H         1 OS5         0.0886
     47 H13        87.3048  160.1069  176.2837 H         1 OS5         0.0818
     48 H14        85.5570  159.9326  175.9077 H         1 OS5         0.0818
     49 H15        86.9249  160.3301  178.5800 H         1 OS5         0.0388
     50 H16        84.2556  159.1007  177.7821 H         1 OS5         0.0382
     51 H17        85.0521  159.0034  179.3893 H         1 OS5         0.0382
     52 H18        87.7281  156.3388  178.9495 H         1 OS5         0.0377
     53 H19        87.4566  157.9542  179.6867 H         1 OS5         0.0377
     54 H20        88.5977  159.0570  177.8646 H         1 OS5         0.0289
     55 H21        88.6918  157.5265  176.9290 H         1 OS5         0.0289
     56 H22        90.3796  156.6421  178.3071 H         1 OS5         0.0380
     57 H23        90.0132  157.7764  179.6509 H         1 OS5         0.0380
     58 H24        93.0618  157.5923  178.2736 H         1 OS5         0.0900
     59 H25        95.0893  159.4366  177.5093 H         1 OS5         0.0813
     60 H26        94.4407  161.1023  177.3316 H         1 OS5         0.0813
     61 H27        92.9251  161.3383  175.0228 H         1 OS5         0.0558
     62 H28        93.2284  161.1514  172.5878 H         1 OS5         0.0599
     63 H29        95.0088  159.7045  171.6599 H         1 OS5         0.0559
     64 H30        96.4721  158.4512  173.1988 H         1 OS5         0.0599
     65 H31        96.1580  158.5854  175.6512 H         1 OS5         0.0558
@<TRIPOS>BOND
     1    1    2 1  
     2    2    3 1  
     3    2   17 1  
     4    3    4 1  
     5    4    5 1  
     6    4   16 1  
     7    5    6 1  
     8    6    7 1  
     9    6   15 2  
    10    7    8 ar 
    11    7   13 ar 
    12    8    9 ar 
    13    9   10 ar 
    14   10   11 ar 
    15   11   12 1  
    16   11   13 ar 
    17   13   14 1  
    18   14   15 1  
    19   16   17 1  
    20   17   18 1  
    21   18   19 1  
    22   19   20 1  
    23   20   21 1  
    24   21   22 1  
    25   22   23 1  
    26   23   24 1  
    27   23   27 2  
    28   24   25 2  
    29   25   26 1  
    30   26   27 1  
    31   26   28 1  
    32   28   29 1  
    33   29   30 ar 
    34   29   34 ar 
    35   30   31 ar 
    36   31   32 ar 
    37   32   33 ar 
    38   33   34 ar 
    39    1   35 1  
    40    2   36 1  
    41    3   37 1  
    42    3   38 1  
    43    4   39 1  
    44    5   40 1  
    45    5   41 1  
    46    9   42 1  
    47   12   43 1  
    48   12   44 1  
    49   14   45 1  
    50   15   46 1  
    51   16   47 1  
    52   16   48 1  
    53   17   49 1  
    54   18   50 1  
    55   18   51 1  
    56   20   52 1  
    57   20   53 1  
    58   21   54 1  
    59   21   55 1  
    60   22   56 1  
    61   22   57 1  
    62   27   58 1  
    63   28   59 1  
    64   28   60 1  
    65   30   61 1  
    66   31   62 1  
    67   32   63 1  
    68   33   64 1  
    69   34   65 1  
@<TRIPOS>SUBSTRUCTURE
     1 OS5         1

