### 
### Created by X-TOOL on Mon Aug  2 16:13:07 2021
### 

@<TRIPOS>MOLECULE
6dz3_ligand
   64    67     1     0     0
SMALL
GAST_HUCK


@<TRIPOS>ATOM
      1 O          85.2160  162.0770  179.0500 O.3       1 OS6        -0.3860
      2 C15        84.7140  161.3060  177.9550 C.3       1 OS6         0.1032
      3 C14        84.7460  162.2260  176.7440 C.3       1 OS6        -0.0040
      4 N          85.8600  161.7110  175.9440 N.4       1 OS6         0.2442
      5 C7         85.8590  162.1990  174.5530 C.3       1 OS6        -0.0117
      6 C8         84.7800  161.7360  173.6100 C.2       1 OS6         0.0166
      7 C13        83.5030  162.2490  173.4080 C.ar      1 OS6         0.0483
      8 N4         82.8850  163.2840  174.0320 N.ar      1 OS6        -0.3132
      9 C12        81.6280  163.6290  173.6720 C.ar      1 OS6         0.0439
     10 N3         80.9690  162.9510  172.7000 N.ar      1 OS6        -0.2741
     11 C11        81.5730  161.9240  172.0320 C.ar      1 OS6         0.1459
     12 N2         80.8990  161.2740  171.0510 N.pl3     1 OS6        -0.3157
     13 C10        82.8790  161.5490  172.3900 C.ar      1 OS6         0.1304
     14 N1         83.7490  160.5980  171.9780 N.pl3     1 OS6        -0.2768
     15 C9         84.9040  160.6910  172.7030 C.2       1 OS6         0.0326
     16 C6         85.9410  160.2520  176.1280 C.3       1 OS6        -0.0248
     17 C5         85.5620  160.0670  177.5960 C.3       1 OS6         0.0391
     18 C4         84.7970  158.7670  177.8160 C.3       1 OS6         0.0039
     19 S          85.7500  157.3280  177.4070 S.3       1 OS6        -0.1601
     20 C3         87.2040  157.2530  178.4060 C.3       1 OS6        -0.0050
     21 C2         88.3930  157.7800  177.5980 C.3       1 OS6        -0.0372
     22 C1         89.7750  157.6060  178.2370 C.3       1 OS6        -0.0177
     23 C          90.7680  158.5320  177.5520 C.2       1 OS6         0.0370
     24 N5         90.4670  159.7840  177.1310 N.2       1 OS6        -0.2265
     25 N7         91.5830  160.3800  176.5370 N.2       1 OS6        -0.1020
     26 N6         92.5690  159.4090  176.6390 N.pl3     1 OS6        -0.1813
     27 C16        92.1130  158.2950  177.2370 C.2       1 OS6         0.0693
     28 C17        93.8330  159.8410  176.0510 C.3       1 OS6         0.0754
     29 C18        93.5930  160.1950  174.5760 C.3       1 OS6        -0.0228
     30 C20        94.3250  159.8340  172.2080 C.3       1 OS6        -0.0652
     31 C19        94.7100  159.7030  173.6670 C.3       1 OS6        -0.0532
     32 H1         85.2168  161.5445  179.8368 H         1 OS6         0.2100
     33 H2         83.6853  160.9863  178.1776 H         1 OS6         0.0652
     34 H3         84.9299  163.2672  177.0475 H         1 OS6         0.0840
     35 H4         83.8014  162.1688  176.1832 H         1 OS6         0.0840
     36 H5         86.7019  162.0871  176.3511 H         1 OS6         0.2042
     37 H6         86.8213  161.9044  174.1089 H         1 OS6         0.0901
     38 H7         85.7966  163.2963  174.5980 H         1 OS6         0.0901
     39 H8         81.1398  164.4601  174.1679 H         1 OS6         0.0956
     40 H9         81.3489  160.4988  170.5436 H         1 OS6         0.1805
     41 H10        79.9372  161.5556  170.8133 H         1 OS6         0.1805
     42 H11        83.5687  159.9101  171.2329 H         1 OS6         0.2266
     43 H12        85.7777  160.0512  172.5885 H         1 OS6         0.0886
     44 H13        86.9598  159.8854  175.9339 H         1 OS6         0.0818
     45 H14        85.2318  159.7307  175.4683 H         1 OS6         0.0818
     46 H15        86.4703  160.0464  178.2162 H         1 OS6         0.0388
     47 H16        83.8942  158.7803  177.1877 H         1 OS6         0.0382
     48 H17        84.5059  158.7059  178.8750 H         1 OS6         0.0382
     49 H18        87.3934  156.2111  178.7036 H         1 OS6         0.0377
     50 H19        87.0660  157.8718  179.3049 H         1 OS6         0.0377
     51 H20        88.2341  158.8553  177.4294 H         1 OS6         0.0289
     52 H21        88.4015  157.2546  176.6316 H         1 OS6         0.0289
     53 H22        90.1048  156.5631  178.1201 H         1 OS6         0.0380
     54 H23        89.7187  157.8551  179.3069 H         1 OS6         0.0380
     55 H24        92.6781  157.3860  177.4376 H         1 OS6         0.0898
     56 H25        94.5711  159.0285  176.1215 H         1 OS6         0.0648
     57 H26        94.2082  160.7249  176.5876 H         1 OS6         0.0648
     58 H27        93.5195  161.2886  174.4836 H         1 OS6         0.0294
     59 H28        92.6474  159.7353  174.2527 H         1 OS6         0.0294
     60 H29        95.1500  159.4715  171.5771 H         1 OS6         0.0230
     61 H30        94.1224  160.8899  171.9756 H         1 OS6         0.0230
     62 H31        93.4231  159.2357  172.0116 H         1 OS6         0.0230
     63 H32        94.9154  158.6457  173.8905 H         1 OS6         0.0264
     64 H33        95.6147  160.2999  173.8545 H         1 OS6         0.0264
@<TRIPOS>BOND
     1    1    2 1  
     2    2    3 1  
     3    2   17 1  
     4    3    4 1  
     5    4    5 1  
     6    4   16 1  
     7    5    6 1  
     8    6    7 1  
     9    6   15 2  
    10    7    8 ar 
    11    7   13 ar 
    12    8    9 ar 
    13    9   10 ar 
    14   10   11 ar 
    15   11   12 1  
    16   11   13 ar 
    17   13   14 1  
    18   14   15 1  
    19   16   17 1  
    20   17   18 1  
    21   18   19 1  
    22   19   20 1  
    23   20   21 1  
    24   21   22 1  
    25   22   23 1  
    26   23   24 1  
    27   23   27 2  
    28   24   25 2  
    29   25   26 1  
    30   26   27 1  
    31   26   28 1  
    32   28   29 1  
    33   29   31 1  
    34   31   30 1  
    35    1   32 1  
    36    2   33 1  
    37    3   34 1  
    38    3   35 1  
    39    4   36 1  
    40    5   37 1  
    41    5   38 1  
    42    9   39 1  
    43   12   40 1  
    44   12   41 1  
    45   14   42 1  
    46   15   43 1  
    47   16   44 1  
    48   16   45 1  
    49   17   46 1  
    50   18   47 1  
    51   18   48 1  
    52   20   49 1  
    53   20   50 1  
    54   21   51 1  
    55   21   52 1  
    56   22   53 1  
    57   22   54 1  
    58   27   55 1  
    59   28   56 1  
    60   28   57 1  
    61   29   58 1  
    62   29   59 1  
    63   30   60 1  
    64   30   61 1  
    65   30   62 1  
    66   31   63 1  
    67   31   64 1  
@<TRIPOS>SUBSTRUCTURE
     1 OS6         1

