### 
### Created by X-TOOL on Wed Jan  1 15:39:37 2020
### 

@<TRIPOS>MOLECULE
6dzq_ligand
   17    17     1     0     0
SMALL
GAST_HUCK


@<TRIPOS>ATOM
      1 OAF       -17.3990   15.7560   14.8200 O.co2     1 HJP        -0.5610
      2 CAE       -18.2090   16.4480   15.4900 C.2       1 HJP         0.0945
      3 OAJ       -18.0400   16.5280   16.7170 O.co2     1 HJP        -0.5610
      4 CAD       -19.2640   17.1990   14.9640 C.2       1 HJP         0.1891
      5 OAC       -19.9420   17.9160   15.9270 O.3       1 HJP        -0.2504
      6 CAB       -21.0130   18.6680   15.5460 C.2       1 HJP         0.0997
      7 CAA       -21.6910   19.3250   16.6170 C.2       1 HJP        -0.1029
      8 CAG       -21.4270   18.7780   14.2100 C.3       1 HJP         0.0884
      9 CAH       -20.7680   18.0760   13.2040 C.2       1 HJP         0.1667
     10 OAK       -21.1410   18.1780   12.0090 O.2       1 HJP        -0.3849
     11 CAI       -19.6450   17.3230   13.6130 C.2       1 HJP         0.1781
     12 OAL       -18.9930   16.5740   12.6930 O.3       1 HJP        -0.3363
     13 H1        -22.5594   19.9488   16.4104 H         1 HJP        -0.0018
     14 H2        -21.3398   19.2023   17.6405 H         1 HJP        -0.0018
     15 H3        -21.3594   19.8437   13.9462 H         1 HJP         0.0705
     16 H4        -22.4792   18.4587   14.1792 H         1 HJP         0.0705
     17 H5        -18.2653   16.1266   13.1086 H         1 HJP         0.2427
@<TRIPOS>BOND
     1    1    2 ar 
     2    2    3 ar 
     3    2    4 1  
     4    4    5 1  
     5    4   11 2  
     6    5    6 1  
     7    6    7 2  
     8    6    8 1  
     9    8    9 1  
    10    9   10 2  
    11    9   11 1  
    12   11   12 1  
    13    7   13 1  
    14    7   14 1  
    15    8   15 1  
    16    8   16 1  
    17   12   17 1  
@<TRIPOS>SUBSTRUCTURE
     1 HJP         1

