### 
### Created by X-TOOL on Mon Aug  2 16:10:40 2021
### 

@<TRIPOS>MOLECULE
6dzv_ligand
   50    54     1     0     0
SMALL
GAST_HUCK


@<TRIPOS>ATOM
      1 N1        144.3530  148.8740  158.9890 N.4       1 HJM         0.2401
      2 C1        143.4430  149.2380  160.1080 C.3       1 HJM        -0.0040
      3 N2        141.7360  152.5390  159.2090 N.pl3     1 HJM        -0.2858
      4 C2        143.2650  150.7540  160.2180 C.3       1 HJM         0.0543
      5 C3        145.6990  150.4260  160.4800 C.3       1 HJM         0.0020
      6 O         138.2090  151.9530  154.9380 O.3       1 HJM        -0.3311
      7 C10       144.3290  147.2410  161.3660 C.3       1 HJM        -0.0478
      8 C11       141.8500  150.6120  157.9540 C.2       1 HJM        -0.0469
      9 C12       142.3530  149.3300  157.3720 C.3       1 HJM        -0.0024
     10 C13       140.8880  151.4870  157.3980 C.ar      1 HJM        -0.0415
     11 C14       143.1310  146.3260  161.7130 C.3       1 HJM        -0.0648
     12 C15       140.8080  152.6850  158.2110 C.ar      1 HJM         0.0467
     13 C16       140.0120  151.2800  156.3150 C.ar      1 HJM        -0.0538
     14 C17       139.9160  153.6570  157.8990 C.ar      1 HJM        -0.0536
     15 C18       139.1090  152.2540  155.9870 C.ar      1 HJM         0.0688
     16 C19       139.0510  153.4010  156.7830 C.ar      1 HJM        -0.0493
     17 C20       137.2280  152.9560  154.6560 C.3       1 HJM         0.0566
     18 C4        144.1190  148.7930  161.4370 C.3       1 HJM         0.0045
     19 C5        144.6330  151.5020  160.2830 C.3       1 HJM        -0.0261
     20 C6        145.3720  149.6780  161.7450 C.3       1 HJM        -0.0371
     21 C7        145.6590  149.4680  159.2830 C.3       1 HJM        -0.0283
     22 C8        142.3040  151.2550  159.1450 C.2       1 HJM         0.0442
     23 C9        143.8800  148.9940  157.5930 C.3       1 HJM        -0.0294
     24 H1        144.4889  147.8804  159.0910 H         1 HJM         0.2039
     25 H2        142.4680  148.7464  159.9748 H         1 HJM         0.0881
     26 H3        141.9803  153.2613  159.9015 H         1 HJM         0.2193
     27 H4        142.7726  150.9458  161.1827 H         1 HJM         0.0534
     28 H5        146.6954  150.8853  160.5593 H         1 HJM         0.0354
     29 H6        144.6368  147.0000  160.3378 H         1 HJM         0.0267
     30 H7        145.1437  146.9898  162.0611 H         1 HJM         0.0267
     31 H8        142.1744  149.3652  156.2872 H         1 HJM         0.0370
     32 H9        141.7657  148.5117  157.8140 H         1 HJM         0.0370
     33 H10       143.4342  145.2729  161.6175 H         1 HJM         0.0230
     34 H11       142.3000  146.5323  161.0225 H         1 HJM         0.0230
     35 H12       142.8069  146.5220  162.7457 H         1 HJM         0.0230
     36 H13       140.0528  150.3578  155.7467 H         1 HJM         0.0406
     37 H14       139.8591  154.5805  158.4638 H         1 HJM         0.0515
     38 H15       138.3027  154.1471  156.5414 H         1 HJM         0.0453
     39 H16       136.5862  152.6188  153.8287 H         1 HJM         0.0573
     40 H17       137.7315  153.8917  154.3715 H         1 HJM         0.0573
     41 H18       136.6121  153.1284  155.5509 H         1 HJM         0.0573
     42 H19       143.4090  148.9768  162.2568 H         1 HJM         0.0357
     43 H20       144.6423  152.2068  161.1274 H         1 HJM         0.0297
     44 H21       144.8129  152.0497  159.3462 H         1 HJM         0.0297
     45 H22       145.1452  150.3861  162.5556 H         1 HJM         0.0274
     46 H23       146.2206  149.0431  162.0395 H         1 HJM         0.0274
     47 H24       145.9849  150.0257  158.3927 H         1 HJM         0.0817
     48 H25       146.3659  148.6490  159.4818 H         1 HJM         0.0817
     49 H26       144.0834  148.0362  157.0917 H         1 HJM         0.0826
     50 H27       144.4665  149.7911  157.1128 H         1 HJM         0.0826
@<TRIPOS>BOND
     1    2    1 1  
     2    1   21 1  
     3   23    1 1  
     4    4    2 1  
     5    2   18 1  
     6   12    3 1  
     7    3   22 1  
     8    4   19 1  
     9   22    4 1  
    10   19    5 1  
    11    5   20 1  
    12    5   21 1  
    13   15    6 1  
    14    6   17 1  
    15    7   11 1  
    16   18    7 1  
    17    8    9 1  
    18   10    8 1  
    19    8   22 2  
    20    9   23 1  
    21   10   12 ar 
    22   13   10 ar 
    23   12   14 ar 
    24   13   15 ar 
    25   14   16 ar 
    26   15   16 ar 
    27   18   20 1  
    28    1   24 1  
    29    2   25 1  
    30    3   26 1  
    31    4   27 1  
    32    5   28 1  
    33    7   29 1  
    34    7   30 1  
    35    9   31 1  
    36    9   32 1  
    37   11   33 1  
    38   11   34 1  
    39   11   35 1  
    40   13   36 1  
    41   14   37 1  
    42   16   38 1  
    43   17   39 1  
    44   17   40 1  
    45   17   41 1  
    46   18   42 1  
    47   19   43 1  
    48   19   44 1  
    49   20   45 1  
    50   20   46 1  
    51   21   47 1  
    52   21   48 1  
    53   23   49 1  
    54   23   50 1  
@<TRIPOS>SUBSTRUCTURE
     1 HJM         1

