### 
### Created by X-TOOL on Mon Aug  2 16:13:08 2021
### 

@<TRIPOS>MOLECULE
6dzx_ligand
   20    19     1     0     0
SMALL
GAST_HUCK


@<TRIPOS>ATOM
      1 N          50.9570   -8.5300  -31.1120 N.4       1 MED         0.2327
      2 CA         50.8680   -9.3820  -32.2890 C.3       1 MED         0.0291
      3 C          50.9420  -10.8260  -31.8330 C.2       1 MED         0.0844
      4 O          49.9430  -11.5750  -31.7800 O.co2     1 MED        -0.5643
      5 CB         49.6330   -9.0390  -33.0820 C.3       1 MED         0.0114
      6 CG         49.5720   -9.7980  -34.4180 C.3       1 MED         0.0001
      7 SD         50.5080   -9.1650  -35.7800 S.3       1 MED        -0.1638
      8 CE         49.6560   -7.6460  -36.0140 C.3       1 MED        -0.0181
      9 OXT        52.0820  -11.2390  -31.5320 O.co2     1 MED        -0.5643
     10 H1         50.9097   -7.5631  -31.3928 H         1 MED         0.2010
     11 H2         51.8309   -8.7002  -30.6393 H         1 MED         0.2010
     12 H3         50.1921   -8.7367  -30.4889 H         1 MED         0.2010
     13 H4         51.7383   -9.1872  -32.9329 H         1 MED         0.1024
     14 H5         49.6329   -7.9585  -33.2880 H         1 MED         0.0347
     15 H6         48.7457   -9.2988  -32.4861 H         1 MED         0.0347
     16 H7         48.5177   -9.8247  -34.7306 H         1 MED         0.0379
     17 H8         49.9241  -10.8226  -34.2279 H         1 MED         0.0379
     18 H9         50.1125   -7.0944  -36.8491 H         1 MED         0.0340
     19 H10        49.7226   -7.0430  -35.0964 H         1 MED         0.0340
     20 H11        48.5996   -7.8496  -36.2431 H         1 MED         0.0340
@<TRIPOS>BOND
     1    1    2 1  
     2    2    3 1  
     3    2    5 1  
     4    3    4 ar 
     5    3    9 ar 
     6    5    6 1  
     7    6    7 1  
     8    7    8 1  
     9    1   10 1  
    10    1   11 1  
    11    1   12 1  
    12    2   13 1  
    13    5   14 1  
    14    5   15 1  
    15    6   16 1  
    16    6   17 1  
    17    8   18 1  
    18    8   19 1  
    19    8   20 1  
@<TRIPOS>SUBSTRUCTURE
     1 MED         1

