### 
### Created by X-TOOL on Mon Aug  2 16:13:08 2021
### 

@<TRIPOS>MOLECULE
6dzy_ligand
   50    54     1     0     0
SMALL
GAST_HUCK


@<TRIPOS>ATOM
      1 N1        161.2720  152.9510  173.3610 N.4       1 HJM         0.2401
      2 C1        161.5320  152.6160  174.8710 C.3       1 HJM        -0.0040
      3 N2        160.8350  148.9660  175.5870 N.pl3     1 HJM        -0.2858
      4 C2        160.7240  151.4810  175.3960 C.3       1 HJM         0.0543
      5 C3        159.0250  153.0700  174.3580 C.3       1 HJM         0.0020
      6 O         163.0940  145.2870  172.0620 O.3       1 HJM        -0.3311
      7 C10       162.1360  154.9640  175.4400 C.3       1 HJM        -0.0478
      8 C11       161.7460  149.8370  173.7060 C.2       1 HJM        -0.0469
      9 C12       161.9690  150.6940  172.4090 C.3       1 HJM        -0.0024
     10 C13       161.8170  148.4160  173.6610 C.ar      1 HJM        -0.0415
     11 C14       163.3220  154.7730  176.4640 C.3       1 HJM        -0.0648
     12 C15       161.2980  147.8910  174.8520 C.ar      1 HJM         0.0467
     13 C16       162.2320  147.4870  172.6680 C.ar      1 HJM        -0.0538
     14 C17       161.3220  146.5630  175.2130 C.ar      1 HJM        -0.0536
     15 C18       162.3580  146.1220  172.9980 C.ar      1 HJM         0.0688
     16 C19       161.8490  145.6480  174.2400 C.ar      1 HJM        -0.0493
     17 C20       163.0610  143.8230  172.3530 C.3       1 HJM         0.0566
     18 C4        161.1060  153.9070  175.6290 C.3       1 HJM         0.0045
     19 C5        159.2340  151.7760  175.1790 C.3       1 HJM        -0.0261
     20 C6        159.6150  154.2430  175.0900 C.3       1 HJM        -0.0371
     21 C7        159.7760  152.8630  173.0370 C.3       1 HJM        -0.0283
     22 C8        161.1470  150.1270  174.8950 C.2       1 HJM         0.0442
     23 C9        162.1950  152.2130  172.4550 C.3       1 HJM        -0.0294
     24 H1        161.5127  153.9228  173.2435 H         1 HJM         0.2039
     25 H2        162.5992  152.3995  175.0266 H         1 HJM         0.0881
     26 H3        160.3439  148.9141  176.4909 H         1 HJM         0.2193
     27 H4        160.8866  151.4592  176.4837 H         1 HJM         0.0534
     28 H5        157.9544  153.2427  174.1737 H         1 HJM         0.0354
     29 H6        162.5304  154.9052  174.4148 H         1 HJM         0.0267
     30 H7        161.6756  155.9501  175.5998 H         1 HJM         0.0267
     31 H8        161.0798  150.5359  171.7811 H         1 HJM         0.0370
     32 H9        162.8515  150.2684  171.9089 H         1 HJM         0.0370
     33 H10       164.0716  155.5628  176.3083 H         1 HJM         0.0230
     34 H11       163.7879  153.7891  176.3061 H         1 HJM         0.0230
     35 H12       162.9331  154.8340  177.4911 H         1 HJM         0.0230
     36 H13       162.4505  147.8265  171.6620 H         1 HJM         0.0406
     37 H14       160.9628  146.2264  176.1788 H         1 HJM         0.0515
     38 H15       161.8594  144.5853  174.4534 H         1 HJM         0.0453
     39 H16       163.6439  143.2846  171.5913 H         1 HJM         0.0573
     40 H17       162.0197  143.4691  172.3357 H         1 HJM         0.0573
     41 H18       163.4952  143.6367  173.3464 H         1 HJM         0.0573
     42 H19       161.0433  153.6989  176.7073 H         1 HJM         0.0357
     43 H20       158.7464  151.8916  176.1582 H         1 HJM         0.0297
     44 H21       158.7778  150.9330  174.6394 H         1 HJM         0.0297
     45 H22       158.9714  154.4922  175.9466 H         1 HJM         0.0274
     46 H23       159.6658  155.1037  174.4069 H         1 HJM         0.0274
     47 H24       159.5369  151.8753  172.6160 H         1 HJM         0.0817
     48 H25       159.4977  153.6460  172.3162 H         1 HJM         0.0817
     49 H26       163.2258  152.3962  172.7924 H         1 HJM         0.0826
     50 H27       162.0663  152.6097  171.4371 H         1 HJM         0.0826
@<TRIPOS>BOND
     1    2    1 1  
     2    1   21 1  
     3   23    1 1  
     4    4    2 1  
     5    2   18 1  
     6   12    3 1  
     7    3   22 1  
     8    4   19 1  
     9   22    4 1  
    10   19    5 1  
    11    5   20 1  
    12    5   21 1  
    13   15    6 1  
    14    6   17 1  
    15    7   11 1  
    16   18    7 1  
    17    8    9 1  
    18   10    8 1  
    19    8   22 2  
    20    9   23 1  
    21   10   12 ar 
    22   13   10 ar 
    23   12   14 ar 
    24   13   15 ar 
    25   14   16 ar 
    26   15   16 ar 
    27   18   20 1  
    28    1   24 1  
    29    2   25 1  
    30    3   26 1  
    31    4   27 1  
    32    5   28 1  
    33    7   29 1  
    34    7   30 1  
    35    9   31 1  
    36    9   32 1  
    37   11   33 1  
    38   11   34 1  
    39   11   35 1  
    40   13   36 1  
    41   14   37 1  
    42   16   38 1  
    43   17   39 1  
    44   17   40 1  
    45   17   41 1  
    46   18   42 1  
    47   19   43 1  
    48   19   44 1  
    49   20   45 1  
    50   20   46 1  
    51   21   47 1  
    52   21   48 1  
    53   23   49 1  
    54   23   50 1  
@<TRIPOS>SUBSTRUCTURE
     1 HJM         1

