### 
### Created by X-TOOL on Wed Jan  1 15:39:37 2020
### 

@<TRIPOS>MOLECULE
6e0q_ligand
   21    21     1     0     0
SMALL
GAST_HUCK


@<TRIPOS>ATOM
      1 OAA       -20.5820   18.1830   18.6230 O.co2     1 HKD        -0.5670
      2 CAC       -19.7670   18.6110   17.7790 C.2       1 HKD         0.0507
      3 OAD       -18.8570   19.4000   18.1310 O.co2     1 HKD        -0.5670
      4 CAF       -19.8790   18.2870   16.4240 C.2       1 HKD         0.0089
      5 CAG       -18.9070   17.3990   15.9930 C.2       1 HKD        -0.0069
      6 CAH       -18.6340   16.9210   14.7300 C.3       1 HKD         0.1727
      7 OAI       -17.5730   16.0750   14.7050 O.3       1 HKD        -0.3561
      8 CAL       -19.2940   17.1600   13.5160 C.2       1 HKD         0.2150
      9 OAM       -18.8930   16.5980   12.5080 O.2       1 HKD        -0.3638
     10 CAK       -20.4370   17.9620   13.3550 C.2       1 HKD         0.1592
     11 OAN       -20.9420   18.0140   12.0680 O.3       1 HKD        -0.3157
     12 CAJ       -21.1360   18.7070   14.3150 C.2       1 HKD        -0.0219
     13 CAE       -20.8920   18.8970   15.6780 C.2       1 HKD        -0.0520
     14 CAB       -21.7990   19.7630   16.3650 C.2       1 HKD        -0.1222
     15 H1        -18.2548   17.0181   16.7775 H         1 HKD         0.0895
     16 H2        -18.0005   17.7993   14.5369 H         1 HKD         0.1050
     17 H3        -17.4286   15.7762   13.8149 H         1 HKD         0.2177
     18 H4        -21.7086   18.5748   12.0522 H         1 HKD         0.2562
     19 H5        -22.0161   19.2240   13.9354 H         1 HKD         0.0497
     20 H6        -21.6678   19.9556   17.4288 H         1 HKD         0.0240
     21 H7        -22.6210   20.2300   15.8244 H         1 HKD         0.0240
@<TRIPOS>BOND
     1    1    2 ar 
     2    2    3 ar 
     3    2    4 1  
     4    4    5 2  
     5    4   13 1  
     6    5    6 1  
     7    6    7 1  
     8    6    8 1  
     9    8    9 2  
    10    8   10 1  
    11   10   11 1  
    12   10   12 2  
    13   12   13 1  
    14   13   14 2  
    15    5   15 1  
    16    6   16 1  
    17    7   17 1  
    18   11   18 1  
    19   12   19 1  
    20   14   20 1  
    21   14   21 1  
@<TRIPOS>SUBSTRUCTURE
     1 HKD         1

