### 
### Created by X-TOOL on Mon Aug  2 16:13:08 2021
### 

@<TRIPOS>MOLECULE
6e0r_ligand
   53    57     1     0     0
SMALL
GAST_HUCK


@<TRIPOS>ATOM
      1 C5         20.0160   -9.3200   -6.3870 C.ar      1 HKJ         0.0973
      2 C6         20.5170   -8.1940   -5.7340 C.ar      1 HKJ        -0.0291
      3 C7         21.8250   -7.8340   -5.9270 C.ar      1 HKJ        -0.0610
      4 C8         22.6230   -8.6110   -6.7800 C.ar      1 HKJ         0.0151
      5 C10        24.1910   -9.6050   -8.0650 C.2       1 HKJ         0.0612
      6 C13        21.7920  -12.3550   -8.9510 C.2       1 HKJ        -0.0178
      7 C15        21.1410  -14.4910  -10.1840 C.3       1 HKJ        -0.0036
      8 C24        24.4710   -5.8270   -6.4960 C.3       1 HKJ         0.1234
      9 C28        17.9290  -11.0190   -8.0800 C.ar      1 HKJ         0.0487
     10 C1         17.0240  -11.4490   -5.8020 C.3       1 HKJ        -0.0305
     11 C12        22.8770  -11.4630   -8.9690 C.2       1 HKJ         0.1272
     12 C14        22.0390  -13.3250   -9.8600 C.2       1 HKJ         0.0588
     13 C19        22.0500   -9.7360   -7.4050 C.ar      1 HKJ         0.1366
     14 C2         18.2570  -11.0410   -6.6100 C.3       1 HKJ         0.0816
     15 C25        24.4710   -5.4570   -5.0020 C.3       1 HKJ         0.0720
     16 C27        25.3760   -4.5970   -6.6840 C.3       1 HKJ         0.0720
     17 C29        17.8550  -12.2040   -8.7890 C.ar      1 HKJ        -0.0318
     18 C30        17.5540  -12.1560  -10.1410 C.ar      1 HKJ        -0.0149
     19 C31        17.3410  -10.9150  -10.7270 C.ar      1 HKJ         0.1528
     20 C33        17.4330   -9.7740   -9.9510 C.ar      1 HKJ         0.0363
     21 C9         24.0220   -8.5640   -7.2370 C.2       1 HKJ         0.0886
     22 F32        17.0450  -10.8190  -12.0400 F         1 HKJ        -0.1798
     23 N11        23.0290  -10.3170   -8.1760 N.pl3     1 HKJ        -0.2140
     24 N16        23.2310  -13.0590  -10.4350 N.pl3     1 HKJ        -0.2287
     25 N18        23.7400  -11.8900   -9.8590 N.2       1 HKJ        -0.2137
     26 N20        20.7790  -10.0430   -7.1830 N.ar      1 HKJ        -0.2736
     27 N34        17.7210   -9.8600   -8.6690 N.ar      1 HKJ        -0.2981
     28 N4         18.6920   -9.7030   -6.1980 N.pl3     1 HKJ        -0.2969
     29 O22        25.8950   -7.9280   -5.6610 O.2       1 HKJ        -0.1739
     30 O23        26.0350   -7.3030   -8.0400 O.2       1 HKJ        -0.1739
     31 O26        24.7920   -4.1260   -5.4530 O.3       1 HKJ        -0.3758
     32 S21        25.2920   -7.4060   -6.8370 S.o2      1 HKJ        -0.0111
     33 H1         19.8786   -7.6100   -5.0809 H         1 HKJ         0.0531
     34 H2         22.2362   -6.9634   -5.4289 H         1 HKJ         0.0650
     35 H3         25.1212   -9.8487   -8.5762 H         1 HKJ         0.0936
     36 H4         20.9093  -12.2788   -8.3178 H         1 HKJ         0.0239
     37 H5         21.6098  -15.1093  -10.9637 H         1 HKJ         0.0437
     38 H6         20.1715  -14.1178  -10.5457 H         1 HKJ         0.0437
     39 H7         20.9862  -15.0971   -9.2792 H         1 HKJ         0.0437
     40 H8         23.4954   -5.7832   -7.0023 H         1 HKJ         0.0581
     41 H9         17.2751  -11.4616   -4.7311 H         1 HKJ         0.0276
     42 H10        16.6967  -12.4519   -6.1137 H         1 HKJ         0.0276
     43 H11        16.2135  -10.7269   -5.9800 H         1 HKJ         0.0276
     44 H12        19.0665  -11.7630   -6.4271 H         1 HKJ         0.0736
     45 H13        25.2503   -5.9466   -4.3996 H         1 HKJ         0.0579
     46 H14        23.4994   -5.5570   -4.4960 H         1 HKJ         0.0579
     47 H15        25.1538   -3.9848   -7.5705 H         1 HKJ         0.0579
     48 H16        26.4561   -4.8008   -6.6405 H         1 HKJ         0.0579
     49 H17        18.0293  -13.1536   -8.2961 H         1 HKJ         0.0642
     50 H18        17.4864  -13.0654  -10.7271 H         1 HKJ         0.0707
     51 H19        17.2669   -8.8020  -10.4013 H         1 HKJ         0.0788
     52 H20        23.6864  -13.6191  -11.1697 H         1 HKJ         0.2478
     53 H21        18.0204   -9.0495   -5.7705 H         1 HKJ         0.1824
@<TRIPOS>BOND
     1    2    1 ar 
     2   26    1 ar 
     3    1   28 1  
     4    3    2 ar 
     5    4    3 ar 
     6    4   13 ar 
     7   21    4 1  
     8   21    5 2  
     9    5   23 1  
    10   11    6 1  
    11    6   12 2  
    12   12    7 1  
    13    8   15 1  
    14    8   16 1  
    15   32    8 1  
    16   14    9 1  
    17    9   17 ar 
    18    9   27 ar 
    19   14   10 1  
    20   23   11 1  
    21   11   25 2  
    22   12   24 1  
    23   23   13 1  
    24   13   26 ar 
    25   28   14 1  
    26   15   31 1  
    27   16   31 1  
    28   17   18 ar 
    29   18   19 ar 
    30   20   19 ar 
    31   19   22 1  
    32   27   20 ar 
    33   21   32 1  
    34   24   25 1  
    35   32   29 2  
    36   32   30 2  
    37    2   33 1  
    38    3   34 1  
    39    5   35 1  
    40    6   36 1  
    41    7   37 1  
    42    7   38 1  
    43    7   39 1  
    44    8   40 1  
    45   10   41 1  
    46   10   42 1  
    47   10   43 1  
    48   14   44 1  
    49   15   45 1  
    50   15   46 1  
    51   16   47 1  
    52   16   48 1  
    53   17   49 1  
    54   18   50 1  
    55   20   51 1  
    56   24   52 1  
    57   28   53 1  
@<TRIPOS>SUBSTRUCTURE
     1 HKJ         1

