### 
### Created by X-TOOL on Mon Aug  2 16:13:08 2021
### 

@<TRIPOS>MOLECULE
6e13_ligand
   37    37     1     0     0
SMALL
GAST_HUCK


@<TRIPOS>ATOM
      1 C02        -8.1820  -28.7690   -8.9540 C.2       1 HKS         0.0864
      2 C04        -9.5520  -28.5580   -9.4880 C.3       1 HKS         0.0361
      3 C06        -9.8800  -29.0400  -10.9690 C.3       1 HKS         0.0273
      4 C07       -11.3420  -28.6900  -11.3020 C.ar      1 HKS        -0.0610
      5 C08       -12.3230  -29.6370  -11.0370 C.ar      1 HKS        -0.0673
      6 C09       -13.6530  -29.3400  -11.3150 C.ar      1 HKS         0.0295
      7 C11       -15.5020  -30.2230   -9.3550 C.3       1 HKS         0.0596
      8 C12       -16.9640  -30.6330   -9.3410 C.3       1 HKS         0.0393
      9 C13       -17.8280  -29.9800  -10.4820 C.2       1 HKS         0.0854
     10 C17       -14.0410  -28.0870  -11.8580 C.ar      1 HKS         0.1200
     11 C19       -13.0760  -27.1490  -12.1170 C.ar      1 HKS         0.1041
     12 C21       -11.7220  -27.4420  -11.8420 C.ar      1 HKS        -0.0465
     13 N05        -9.7660  -27.1970   -9.4210 N.4       1 HKS         0.2340
     14 N16       -17.4910  -30.3110   -8.0290 N.4       1 HKS         0.2334
     15 O01        -8.0100  -29.5910   -8.0190 O.co2     1 HKS        -0.5641
     16 O03        -7.2250  -28.0960   -9.3930 O.co2     1 HKS        -0.5641
     17 O14       -18.8380  -30.6290  -10.9120 O.co2     1 HKS        -0.5642
     18 O15       -17.5470  -28.8290  -10.9710 O.co2     1 HKS        -0.5642
     19 O18       -15.3910  -27.6900  -12.1780 O.3       1 HKS        -0.3449
     20 O20       -13.5480  -25.9280  -12.6700 O.3       1 HKS        -0.3405
     21 S10       -14.8600  -30.6020  -10.9400 S.3       1 HKS        -0.1045
     22 H1        -10.2527  -29.0773   -8.8177 H         1 HKS         0.1046
     23 H2         -9.7361  -30.1281  -11.0424 H         1 HKS         0.0477
     24 H3         -9.2094  -28.5328  -11.6782 H         1 HKS         0.0477
     25 H4        -12.0542  -30.5995  -10.6170 H         1 HKS         0.0387
     26 H5        -14.9491  -30.7793   -8.5837 H         1 HKS         0.0473
     27 H6        -15.4134  -29.1435   -9.1629 H         1 HKS         0.0473
     28 H7        -17.0123  -31.7231   -9.4797 H         1 HKS         0.1034
     29 H8        -10.9624  -26.6968  -12.0488 H         1 HKS         0.0397
     30 H9         -9.5636  -26.8705   -8.4891 H         1 HKS         0.2012
     31 H10       -10.7280  -26.9966   -9.6456 H         1 HKS         0.2012
     32 H11        -9.1628  -26.7292  -10.0793 H         1 HKS         0.2012
     33 H12       -18.4638  -30.5712   -7.9846 H         1 HKS         0.2010
     34 H13       -17.4002  -29.3207   -7.8642 H         1 HKS         0.2010
     35 H14       -16.9754  -30.8173   -7.3262 H         1 HKS         0.2010
     36 H15       -15.9869  -28.3988  -11.9663 H         1 HKS         0.2393
     37 H16       -14.4927  -25.9677  -12.7621 H         1 HKS         0.2438
@<TRIPOS>BOND
     1    2    1 1  
     2    1   15 ar 
     3    1   16 ar 
     4    3    2 1  
     5    2   13 1  
     6    4    3 1  
     7    5    4 ar 
     8    4   12 ar 
     9    6    5 ar 
    10    6   10 ar 
    11   21    6 1  
    12    7    8 1  
    13    7   21 1  
    14    8    9 1  
    15    8   14 1  
    16    9   17 ar 
    17    9   18 ar 
    18   10   11 ar 
    19   10   19 1  
    20   11   12 ar 
    21   11   20 1  
    22    2   22 1  
    23    3   23 1  
    24    3   24 1  
    25    5   25 1  
    26    7   26 1  
    27    7   27 1  
    28    8   28 1  
    29   12   29 1  
    30   13   30 1  
    31   13   31 1  
    32   13   32 1  
    33   14   33 1  
    34   14   34 1  
    35   14   35 1  
    36   19   36 1  
    37   20   37 1  
@<TRIPOS>SUBSTRUCTURE
     1 HKS         1

