### 
### Created by X-TOOL on Mon Aug  2 16:12:00 2021
### 

@<TRIPOS>MOLECULE
6e1a_ligand
   96   102     1     0     0
SMALL
GAST_HUCK


@<TRIPOS>ATOM
      1 O1        -22.1940   12.5450  -20.5310 O.2       1 HL7        -0.3775
      2 C13       -18.3810   10.3020  -23.0480 C.3       1 HL7        -0.0324
      3 N3        -13.8090   11.0580  -25.5240 N.pl3     1 HL7        -0.3078
      4 C12       -19.1370    9.2920  -22.1940 C.3       1 HL7        -0.0170
      5 C11       -19.0670    9.7010  -20.7180 C.3       1 HL7        -0.0476
      6 C6        -22.0790   11.9310  -21.5740 C.2       1 HL7         0.3195
      7 C7        -21.7150   11.6200  -23.9590 C.3       1 HL7         0.0215
      8 C10       -22.3840    7.6820  -19.4290 C.3       1 HL7        -0.0551
      9 C9        -23.7650    7.7880  -20.0200 C.3       1 HL7        -0.0508
     10 C8        -23.8590    9.1460  -20.7080 C.3       1 HL7        -0.0228
     11 N2        -16.9640   10.3590  -22.6700 N.4       1 HL7         0.2355
     12 N1        -21.8450   12.4470  -22.7720 N.am      1 HL7        -0.2656
     13 C5        -22.5110    9.8180  -20.4850 C.3       1 HL7         0.0835
     14 C4        -21.5420    8.6500  -20.2730 C.3       1 HL7        -0.0266
     15 C3        -20.0460    8.9130  -19.7300 C.3       1 HL7         0.0064
     16 C23        -8.7450    9.3920  -31.0840 C.ar      1 HL7         0.0134
     17 C24        -7.5070    8.3270  -29.4820 C.ar      1 HL7         0.0134
     18 C2        -19.4760    7.4090  -19.6230 C.3       1 HL7        -0.0494
     19 C1        -19.2300    7.5040  -17.2360 C.3       1 HL7         0.0156
     20 N4         -8.0870    8.2940  -30.6890 N.ar      1 HL7        -0.2963
     21 C14       -16.3170   11.3850  -23.4950 C.3       1 HL7        -0.0253
     22 S          -8.5010   11.8930  -27.9780 S.o2      1 HL7         0.0261
     23 C16       -14.9940   11.9050  -25.6130 C.3       1 HL7         0.0362
     24 C15       -15.7460   10.8320  -24.7700 C.3       1 HL7         0.0383
     25 C17       -12.5810   11.1980  -26.1250 C.ar      1 HL7         0.0403
     26 C18       -12.4620   11.8470  -27.3550 C.ar      1 HL7        -0.0425
     27 C22        -8.8680   10.5370  -30.3160 C.ar      1 HL7        -0.0082
     28 C21        -8.2650   10.5280  -29.0660 C.ar      1 HL7         0.1117
     29 O2         -8.5730   13.0920  -28.7700 O.2       1 HL7        -0.1643
     30 C20       -10.0860   11.6110  -27.2680 C.ar      1 HL7         0.0819
     31 C19       -11.2210   12.0540  -27.9260 C.ar      1 HL7        -0.0483
     32 O3         -7.5190   11.8090  -26.9280 O.2       1 HL7        -0.1643
     33 C25        -7.5550    9.4170  -28.6300 C.ar      1 HL7        -0.0082
     34 C26       -10.1830   10.9460  -26.0560 C.ar      1 HL7        -0.0483
     35 C27       -11.4270   10.7400  -25.4910 C.ar      1 HL7        -0.0425
     36 C28       -14.3950   10.0800  -24.5970 C.3       1 HL7         0.0362
     37 C29       -16.8480   10.7850  -21.2640 C.3       1 HL7        -0.0324
     38 C30       -17.5920    9.8410  -20.3200 C.3       1 HL7        -0.0170
     39 N         -18.5580    7.2510  -18.5100 N.4       1 HL7         0.2443
     40 C         -17.9480    5.9300  -18.5240 C.3       1 HL7        -0.0418
     41 C31       -20.0710    9.6420  -18.3350 C.ar      1 HL7        -0.0350
     42 C36       -20.4600   10.9770  -18.2300 C.ar      1 HL7        -0.0454
     43 C35       -20.5280   11.6020  -16.9960 C.ar      1 HL7        -0.0395
     44 C34       -20.1980   10.9090  -15.8520 C.ar      1 HL7        -0.0404
     45 C33       -19.7890    9.5880  -15.9380 C.ar      1 HL7        -0.0244
     46 C32       -19.7140    8.9400  -17.1710 C.ar      1 HL7         0.0280
     47 O         -22.1660   10.5790  -21.6820 O.3       1 HL7        -0.2612
     48 H1        -18.8298   11.2967  -22.9096 H         1 HL7         0.0814
     49 H2        -18.4591   10.0083  -24.1052 H         1 HL7         0.0814
     50 H3        -18.6842    8.2973  -22.3187 H         1 HL7         0.0311
     51 H4        -20.1890    9.2587  -22.5138 H         1 HL7         0.0311
     52 H5        -19.4582   10.7287  -20.6892 H         1 HL7         0.0206
     53 H6        -21.5242   12.2603  -24.8329 H         1 HL7         0.0483
     54 H7        -22.6452   11.0540  -24.1153 H         1 HL7         0.0483
     55 H8        -20.8771   10.9195  -23.8279 H         1 HL7         0.0483
     56 H9        -22.0004    6.6545  -19.5138 H         1 HL7         0.0261
     57 H10       -22.3869    7.9863  -18.3719 H         1 HL7         0.0261
     58 H11       -24.5217    7.7154  -19.2249 H         1 HL7         0.0266
     59 H12       -23.9242    6.9829  -20.7524 H         1 HL7         0.0266
     60 H13       -24.6650    9.7467  -20.2614 H         1 HL7         0.0293
     61 H14       -24.0499    9.0181  -21.7837 H         1 HL7         0.0293
     62 H15       -16.5267    9.4609  -22.8052 H         1 HL7         0.2033
     63 H16       -21.7549   13.4389  -22.8618 H         1 HL7         0.1864
     64 H17       -22.5294   10.4804  -19.6070 H         1 HL7         0.0642
     65 H18       -21.3907    8.1867  -21.2591 H         1 HL7         0.0230
     66 H19        -9.2089    9.3833  -32.0637 H         1 HL7         0.0828
     67 H20        -6.9672    7.4466  -29.1524 H         1 HL7         0.0828
     68 H21       -18.9480    7.1626  -20.5560 H         1 HL7         0.0705
     69 H22       -20.3211    6.7182  -19.4865 H         1 HL7         0.0705
     70 H23       -18.5251    7.3212  -16.4116 H         1 HL7         0.1061
     71 H24       -20.0911    6.8264  -17.1393 H         1 HL7         0.1061
     72 H25       -15.5021   11.8411  -22.9137 H         1 HL7         0.0818
     73 H26       -17.0619   12.1539  -23.7479 H         1 HL7         0.0818
     74 H27       -15.3836   12.0422  -26.6325 H         1 HL7         0.0519
     75 H28       -14.8945   12.8850  -25.1235 H         1 HL7         0.0519
     76 H29       -16.5180   10.2691  -25.3151 H         1 HL7         0.0391
     77 H30       -13.3526   12.1922  -27.8676 H         1 HL7         0.0515
     78 H31        -9.4117   11.4032  -30.6753 H         1 HL7         0.0732
     79 H32       -11.1365   12.5591  -28.8814 H         1 HL7         0.0602
     80 H33        -7.0604    9.4039  -27.6655 H         1 HL7         0.0732
     81 H34        -9.2899   10.5902  -25.5551 H         1 HL7         0.0602
     82 H35       -11.5064   10.2168  -24.5449 H         1 HL7         0.0515
     83 H36       -13.9812   10.1078  -23.5782 H         1 HL7         0.0519
     84 H37       -14.3964    9.0430  -24.9640 H         1 HL7         0.0519
     85 H38       -17.2705   11.7955  -21.1624 H         1 HL7         0.0814
     86 H39       -15.7844   10.8024  -20.9841 H         1 HL7         0.0814
     87 H40       -17.1158    8.8501  -20.3559 H         1 HL7         0.0311
     88 H41       -17.5336   10.2390  -19.2962 H         1 HL7         0.0311
     89 H42       -17.8234    7.9334  -18.6141 H         1 HL7         0.2043
     90 H43       -17.4506    5.7661  -19.4913 H         1 HL7         0.0778
     91 H44       -18.7253    5.1656  -18.3772 H         1 HL7         0.0778
     92 H45       -17.2069    5.8597  -17.7142 H         1 HL7         0.0778
     93 H46       -20.7124   11.5327  -19.1258 H         1 HL7         0.0817
     94 H47       -20.8412   12.6377  -16.9302 H         1 HL7         0.0648
     95 H48       -20.2583   11.3966  -14.8857 H         1 HL7         0.0834
     96 H49       -19.5236    9.0507  -15.0347 H         1 HL7         0.0638
@<TRIPOS>BOND
     1    6    1 2  
     2    2    4 1  
     3   11    2 1  
     4    3   23 1  
     5   25    3 1  
     6    3   36 1  
     7    4    5 1  
     8    5   15 1  
     9    5   38 1  
    10    6   12 am 
    11   47    6 1  
    12   12    7 1  
    13    8    9 1  
    14   14    8 1  
    15   10    9 1  
    16   13   10 1  
    17   21   11 1  
    18   11   37 1  
    19   14   13 1  
    20   13   47 1  
    21   15   14 1  
    22   15   18 1  
    23   15   41 1  
    24   16   20 ar 
    25   27   16 ar 
    26   17   20 ar 
    27   33   17 ar 
    28   18   39 1  
    29   39   19 1  
    30   19   46 1  
    31   24   21 1  
    32   22   28 1  
    33   22   29 2  
    34   30   22 1  
    35   22   32 2  
    36   23   24 1  
    37   36   24 1  
    38   26   25 ar 
    39   25   35 ar 
    40   31   26 ar 
    41   28   27 ar 
    42   28   33 ar 
    43   30   31 ar 
    44   30   34 ar 
    45   34   35 ar 
    46   37   38 1  
    47   39   40 1  
    48   41   42 ar 
    49   41   46 ar 
    50   42   43 ar 
    51   43   44 ar 
    52   44   45 ar 
    53   45   46 ar 
    54    2   48 1  
    55    2   49 1  
    56    4   50 1  
    57    4   51 1  
    58    5   52 1  
    59    7   53 1  
    60    7   54 1  
    61    7   55 1  
    62    8   56 1  
    63    8   57 1  
    64    9   58 1  
    65    9   59 1  
    66   10   60 1  
    67   10   61 1  
    68   11   62 1  
    69   12   63 1  
    70   13   64 1  
    71   14   65 1  
    72   16   66 1  
    73   17   67 1  
    74   18   68 1  
    75   18   69 1  
    76   19   70 1  
    77   19   71 1  
    78   21   72 1  
    79   21   73 1  
    80   23   74 1  
    81   23   75 1  
    82   24   76 1  
    83   26   77 1  
    84   27   78 1  
    85   31   79 1  
    86   33   80 1  
    87   34   81 1  
    88   35   82 1  
    89   36   83 1  
    90   36   84 1  
    91   37   85 1  
    92   37   86 1  
    93   38   87 1  
    94   38   88 1  
    95   39   89 1  
    96   40   90 1  
    97   40   91 1  
    98   40   92 1  
    99   42   93 1  
   100   43   94 1  
   101   44   95 1  
   102   45   96 1  
@<TRIPOS>SUBSTRUCTURE
     1 HL7         1

