### 
### Created by X-TOOL on Mon Aug  2 16:13:09 2021
### 

@<TRIPOS>MOLECULE
6e1y_ligand
   47    49     1     0     0
SMALL
GAST_HUCK


@<TRIPOS>ATOM
      1 C10        -4.3660   -3.6970    6.6840 C.ar      1 HLM        -0.0015
      2 N12        -2.9410   -3.7960    4.8260 N.pl3     1 HLM        -0.2607
      3 C13        -1.6630   -3.2480    4.5920 C.cat     1 HLM         0.2944
      4 C15         0.1690   -1.8250    4.5800 C.3       1 HLM         0.0953
      5 C20        -0.2800   -2.5040   13.2940 C.ar      1 HLM        -0.0580
      6 C21         1.2310   -2.3500   13.1710 C.ar      1 HLM        -0.0680
      7 C22         2.0000   -3.2980   12.2580 C.ar      1 HLM        -0.0548
      8 C01        -3.1560   -4.3690   13.9240 C.3       1 HLM        -0.0320
      9 C02        -2.5330   -3.7110   12.7110 C.3       1 HLM         0.0723
     10 C04        -3.1410   -3.5120   10.3310 C.2       1 HLM         0.2054
     11 C06        -3.9750   -3.9560    9.1790 C.ar      1 HLM         0.0434
     12 C07        -4.9930   -5.0690    9.2530 C.ar      1 HLM        -0.0489
     13 C08        -5.7440   -5.4550    7.9860 C.ar      1 HLM        -0.0628
     14 C09        -5.4100   -4.7840    6.6780 C.ar      1 HLM        -0.0527
     15 C11        -4.0120   -2.9890    5.4060 C.3       1 HLM         0.0972
     16 C16         0.5290   -3.0640    3.8390 C.3       1 HLM         0.0953
     17 C18        -3.6750   -3.2600    7.9160 C.ar      1 HLM        -0.0373
     18 C19        -1.0100   -3.6560   12.6030 C.ar      1 HLM        -0.0178
     19 C23         1.2720   -4.4260   11.5300 C.ar      1 HLM         0.0338
     20 C25        -0.2300   -4.6290   11.7240 C.ar      1 HLM        -0.0443
     21 N03        -2.9850   -4.3700   11.4550 N.am      1 HLM        -0.2723
     22 N14        -1.1620   -2.0000    5.1010 N.pl3     1 HLM        -0.2685
     23 N17        -0.6300   -3.9010    3.8270 N.pl3     1 HLM        -0.2685
     24 O05        -2.6290   -2.4510   10.3420 O.2       1 HLM        -0.3845
     25 CL          2.1920   -5.5220   10.4780 Cl        1 HLM        -0.0725
     26 H1         -3.1223   -4.7807    4.5842 H         1 HLM         0.2666
     27 H2          0.1949   -0.9606    3.9003 H         1 HLM         0.0724
     28 H3          0.8768   -1.6631    5.4063 H         1 HLM         0.0724
     29 H4         -0.8448   -1.7873   13.8792 H         1 HLM         0.0559
     30 H5          1.7517   -1.5772   13.7249 H         1 HLM         0.0599
     31 H6          3.0683   -3.1709   12.1249 H         1 HLM         0.0565
     32 H7         -4.2521   -4.3227   13.8438 H         1 HLM         0.0274
     33 H8         -2.8324   -3.8421   14.8337 H         1 HLM         0.0274
     34 H9         -2.8362   -5.4202   13.9757 H         1 HLM         0.0274
     35 H10        -2.8939   -2.6719   12.7127 H         1 HLM         0.0716
     36 H11        -5.1850   -5.5822   10.1883 H         1 HLM         0.0611
     37 H12        -6.5187   -6.2122    8.0245 H         1 HLM         0.0611
     38 H13        -5.9065   -5.0750    5.7594 H         1 HLM         0.0593
     39 H14        -3.6610   -1.9671    5.6119 H         1 HLM         0.0855
     40 H15        -4.8789   -2.9497    4.7301 H         1 HLM         0.0855
     41 H16         1.3597   -3.5778    4.3449 H         1 HLM         0.0724
     42 H17         0.8246   -2.8149    2.8092 H         1 HLM         0.0724
     43 H18        -2.9620   -2.4439    7.8902 H         1 HLM         0.0608
     44 H19        -0.7368   -5.4569   11.2414 H         1 HLM         0.0562
     45 H20        -3.1671   -5.3520   11.4046 H         1 HLM         0.1875
     46 H21        -1.6631   -1.3505    5.7239 H         1 HLM         0.2643
     47 H22        -0.7127   -4.8122    3.3540 H         1 HLM         0.2643
@<TRIPOS>BOND
     1    1   14 ar 
     2    1   15 1  
     3   17    1 ar 
     4    2    3 ar 
     5   15    2 1  
     6    3   22 ar 
     7    3   23 ar 
     8    4   16 1  
     9   22    4 1  
    10    5    6 ar 
    11   18    5 ar 
    12    6    7 ar 
    13    7   19 ar 
    14    9    8 1  
    15    9   18 1  
    16   21    9 1  
    17   11   10 1  
    18   10   21 am 
    19   10   24 2  
    20   11   12 ar 
    21   11   17 ar 
    22   12   13 ar 
    23   13   14 ar 
    24   16   23 1  
    25   18   20 ar 
    26   19   20 ar 
    27   19   25 1  
    28    2   26 1  
    29    4   27 1  
    30    4   28 1  
    31    5   29 1  
    32    6   30 1  
    33    7   31 1  
    34    8   32 1  
    35    8   33 1  
    36    8   34 1  
    37    9   35 1  
    38   12   36 1  
    39   13   37 1  
    40   14   38 1  
    41   15   39 1  
    42   15   40 1  
    43   16   41 1  
    44   16   42 1  
    45   17   43 1  
    46   20   44 1  
    47   21   45 1  
    48   22   46 1  
    49   23   47 1  
@<TRIPOS>SUBSTRUCTURE
     1 HLM         1

