### 
### Created by X-TOOL on Mon Aug  2 16:13:09 2021
### 

@<TRIPOS>MOLECULE
6e1z_ligand
   21    22     1     0     0
SMALL
GAST_HUCK


@<TRIPOS>ATOM
      1 N1          2.2460   -2.0280   -4.8750 N.pl3     1 HLP        -0.2370
      2 C4          3.4830   -1.4940   -5.4230 C.3       1 HLP         0.1244
      3 C5          2.1120   -3.2630   -4.4140 C.2       1 HLP         0.0386
      4 C6          0.8060   -3.3800   -3.9570 C.2       1 HLP        -0.0234
      5 C7          1.0890   -1.3960   -4.7150 C.2       1 HLP         0.0996
      6 C8          4.7140   -3.2100   -6.9520 C.2       1 HLP        -0.0590
      7 C1          3.2490   -2.4410  -10.2840 C.2       1 HLP         0.0819
      8 C2          3.7080   -2.5830   -8.8520 C.2       1 HLP         0.1359
      9 C3          3.7980   -2.1640   -6.7530 C.2       1 HLP         0.1327
     10 C9          4.6600   -3.4800   -8.3550 C.2       1 HLP        -0.0629
     11 N2          0.2110   -2.2100   -4.1490 N.2       1 HLP        -0.3301
     12 O1          3.6290   -3.2390  -11.1740 O.co2     1 HLP        -0.5649
     13 O2          2.4360   -1.5380  -10.5350 O.co2     1 HLP        -0.5649
     14 O3          3.2460   -1.8330   -7.8910 O.3       1 HLP        -0.2514
     15 H1          4.3051   -1.6827   -4.7169 H         1 HLP         0.0834
     16 H2          3.3743   -0.4105   -5.5782 H         1 HLP         0.0834
     17 H3          2.8781   -4.0368   -4.3968 H         1 HLP         0.0862
     18 H4          0.3532   -4.2692   -3.5209 H         1 HLP         0.0444
     19 H5          0.8921   -0.3650   -5.0052 H         1 HLP         0.1216
     20 H6          5.3295   -3.7059   -6.2029 H         1 HLP         0.0247
     21 H7          5.2326   -4.2195   -8.9129 H         1 HLP         0.0367
@<TRIPOS>BOND
     1    2    1 1  
     2    1    3 1  
     3    1    5 1  
     4    9    2 1  
     5    3    4 2  
     6   11    4 1  
     7    5   11 2  
     8    6    9 2  
     9   10    6 1  
    10    8    7 1  
    11    7   12 ar 
    12    7   13 ar 
    13    8   10 2  
    14    8   14 1  
    15    9   14 1  
    16    2   15 1  
    17    2   16 1  
    18    3   17 1  
    19    4   18 1  
    20    5   19 1  
    21    6   20 1  
    22   10   21 1  
@<TRIPOS>SUBSTRUCTURE
     1 HLP         1

