### 
### Created by X-TOOL on Mon Aug  2 16:13:09 2021
### 

@<TRIPOS>MOLECULE
6e22_ligand
   49    51     1     0     0
SMALL
GAST_HUCK


@<TRIPOS>ATOM
      1 N1         -2.4200   -3.3220   12.1590 N.am      1 HLS        -0.2758
      2 N3         -0.6130   -3.5330    4.2810 N.pl3     1 HLS        -0.2500
      3 C4         -0.4180   -3.2760   13.6550 C.ar      1 HLS        -0.0385
      4 C5         -1.7820   -2.7160   13.3210 C.3       1 HLS         0.0592
      5 C6         -2.6300   -2.6040   11.0510 C.2       1 HLS         0.2021
      6 C7         -3.2660   -3.3040    9.8870 C.ar      1 HLS         0.0392
      7 C8         -3.8760   -4.5400   10.0270 C.ar      1 HLS        -0.0506
      8 C10        -4.3460   -4.5560    7.7060 C.ar      1 HLS         0.1402
      9 C13        -1.4800   -2.8800    5.0270 C.2       1 HLS         0.2057
     10 C15         0.3380   -1.4850    4.9500 C.2       1 HLS        -0.0470
     11 C17         0.4740   -3.6520   12.6530 C.ar      1 HLS        -0.0414
     12 C20         2.1060   -4.2710   14.3370 C.ar      1 HLS        -0.0125
     13 C1          0.7030   -3.4530   17.6200 C.3       1 HLS         0.0590
     14 C11        -3.7420   -3.3280    7.5160 C.ar      1 HLS         0.0183
     15 C12        -3.6500   -2.6780    6.1550 C.3       1 HLS         0.0656
     16 C14         0.6230   -2.7640    4.1720 C.2       1 HLS         0.0189
     17 C16        -3.2010   -2.7080    8.6320 C.ar      1 HLS        -0.0403
     18 C18         1.7260   -4.1570   13.0060 C.ar      1 HLS         0.0757
     19 C19         2.3250   -4.4100   10.6980 C.3       1 HLS         0.0590
     20 C2          1.2170   -3.8750   15.3240 C.ar      1 HLS         0.0757
     21 C3         -0.0350   -3.3760   14.9870 C.ar      1 HLS        -0.0414
     22 C9         -4.4240   -5.1740    8.9270 C.ar      1 HLS        -0.0288
     23 F1         -4.8590   -5.1920    6.6310 F         1 HLS        -0.1849
     24 N2         -2.6810   -3.3470    5.3010 N.pl3     1 HLS        -0.2722
     25 N4         -1.0050   -1.7260    5.4520 N.2       1 HLS        -0.3334
     26 O1          1.5870   -3.9870   16.6390 O.3       1 HLS        -0.3257
     27 O2         -2.2880   -1.4280   10.9590 O.2       1 HLS        -0.3864
     28 O3          2.6520   -4.5550   12.0770 O.3       1 HLS        -0.3257
     29 H1         -2.7024   -4.2808   12.1908 H         1 HLS         0.1870
     30 H2         -0.7817   -4.4487    3.8406 H         1 HLS         0.2348
     31 H3         -2.4377   -2.8688   14.1909 H         1 HLS         0.0680
     32 H4         -1.6726   -1.6384   13.1291 H         1 HLS         0.0680
     33 H5         -3.9239   -5.0116   11.0019 H         1 HLS         0.0602
     34 H6          0.9762   -0.6143    5.0931 H         1 HLS         0.0379
     35 H7          0.1981   -3.5532   11.6094 H         1 HLS         0.0390
     36 H8          3.0818   -4.6632   14.5997 H         1 HLS         0.0408
     37 H9          1.1271   -3.6140   18.6221 H         1 HLS         0.0577
     38 H10        -0.2717   -3.9578   17.5489 H         1 HLS         0.0577
     39 H11         0.5710   -2.3748   17.4466 H         1 HLS         0.0577
     40 H12        -3.3478   -1.6280    6.2816 H         1 HLS         0.0675
     41 H13        -4.6379   -2.7197    5.6730 H         1 HLS         0.0675
     42 H14         1.5395   -3.0411    3.6532 H         1 HLS         0.0740
     43 H15        -2.7194   -1.7428    8.5246 H         1 HLS         0.0596
     44 H16         3.1625   -4.7706   10.0827 H         1 HLS         0.0577
     45 H17         2.1365   -3.3494   10.4754 H         1 HLS         0.0577
     46 H18         1.4236   -4.9981   10.4711 H         1 HLS         0.0577
     47 H19        -0.7178   -3.0625   15.7684 H         1 HLS         0.0390
     48 H20        -4.9054   -6.1400    9.0283 H         1 HLS         0.0598
     49 H21        -2.9525   -4.2478    4.8817 H         1 HLS         0.1866
@<TRIPOS>BOND
     1    4    1 1  
     2    1    5 am 
     3    9    2 1  
     4    2   16 1  
     5    3    4 1  
     6    3   11 ar 
     7   21    3 ar 
     8    5    6 1  
     9    5   27 2  
    10    6    7 ar 
    11    6   17 ar 
    12    7   22 ar 
    13   14    8 ar 
    14   22    8 ar 
    15    8   23 1  
    16   24    9 1  
    17    9   25 2  
    18   10   16 2  
    19   25   10 1  
    20   18   11 ar 
    21   12   18 ar 
    22   20   12 ar 
    23   26   13 1  
    24   14   15 1  
    25   17   14 ar 
    26   15   24 1  
    27   18   28 1  
    28   28   19 1  
    29   20   21 ar 
    30   20   26 1  
    31    1   29 1  
    32    2   30 1  
    33    4   31 1  
    34    4   32 1  
    35    7   33 1  
    36   10   34 1  
    37   11   35 1  
    38   12   36 1  
    39   13   37 1  
    40   13   38 1  
    41   13   39 1  
    42   15   40 1  
    43   15   41 1  
    44   16   42 1  
    45   17   43 1  
    46   19   44 1  
    47   19   45 1  
    48   19   46 1  
    49   21   47 1  
    50   22   48 1  
    51   24   49 1  
@<TRIPOS>SUBSTRUCTURE
     1 HLS         1

