### 
### Created by X-TOOL on Mon Aug  2 16:13:09 2021
### 

@<TRIPOS>MOLECULE
6e23_ligand
   57    60     1     0     0
SMALL
GAST_HUCK


@<TRIPOS>ATOM
      1 N1          2.9490    4.1840   11.2340 N.am      1 HLJ        -0.2748
      2 N3          2.2020    2.6290    4.8410 N.pl3     1 HLJ        -0.1993
      3 C4          0.0480    4.3190   11.5890 C.ar      1 HLJ        -0.0440
      4 C5         -1.3050    4.0290   11.5440 C.ar      1 HLJ         0.0478
      5 C6         -1.8420    3.0530   12.3660 C.ar      1 HLJ         0.0469
      6 C7         -1.0270    2.3630   13.2410 C.ar      1 HLJ        -0.0541
      7 C8          0.3220    2.6570   13.2850 C.ar      1 HLJ        -0.0577
      8 C10         4.2500    4.8170    8.7950 C.ar      1 HLJ        -0.0427
      9 C13         6.7330    6.6230    7.1360 C.ar      1 HLJ         0.0287
     10 C15         6.5370    8.8660    6.7720 C.ar      1 HLJ         0.2049
     11 C17         4.5680    7.6520    7.1370 C.ar      1 HLJ        -0.0452
     12 C20         3.4480    2.2120    5.4900 C.3       1 HLJ         0.0960
     13 C21         1.0790    1.9110    4.6930 C.cat     1 HLJ         0.2263
     14 C22        -1.1190    2.2220    3.4610 C.3       1 HLJ         0.0503
     15 C24         1.9970    3.8680    4.2500 C.2       1 HLJ         0.1829
     16 C1          3.1520    3.1920   10.3710 C.2       1 HLJ         0.2050
     17 C11         4.6880    5.1940    7.5270 C.ar      1 HLJ        -0.0199
     18 C12         5.3410    6.5050    7.2840 C.ar      1 HLJ         0.0040
     19 C14         7.6570    5.4490    7.2710 C.3       1 HLJ        -0.0158
     20 C16         5.1620    8.8680    6.8880 C.ar      1 HLJ        -0.0041
     21 C18         4.4060    4.3380    6.4590 C.ar      1 HLJ        -0.0477
     22 C19         3.7620    3.1170    6.6520 C.ar      1 HLJ        -0.0073
     23 C2          2.3460    3.9430   12.5390 C.3       1 HLJ         0.0641
     24 C23         0.7680    3.8880    3.7170 C.2       1 HLJ         0.1810
     25 C25         3.3590    2.7580    7.9290 C.ar      1 HLJ        -0.0389
     26 C3          0.8730    3.6300   12.4640 C.ar      1 HLJ        -0.0203
     27 C9          3.6220    3.5930    9.0070 C.ar      1 HLJ         0.0429
     28 F1          7.1730   10.0340    6.5310 F         1 HLJ        -0.1554
     29 N2          7.3040    7.8150    6.9000 N.ar      1 HLJ        -0.2649
     30 N4          0.1880    2.6670    3.9440 N.pl3     1 HLJ        -0.2133
     31 N5          0.8630    0.6880    5.1300 N.pl3     1 HLJ        -0.3371
     32 O1          2.9220    2.0160   10.6450 O.2       1 HLJ        -0.3845
     33 CL1        -2.3260    4.8870   10.4440 Cl        1 HLJ        -0.0718
     34 CL2        -3.5340    2.6940   12.3110 Cl        1 HLJ        -0.0764
     35 H1          3.2156    5.1143   10.9821 H         1 HLJ         0.1872
     36 H2          0.4613    5.0835   10.9411 H         1 HLJ         0.0563
     37 H3         -1.4417    1.5979   13.8873 H         1 HLJ         0.0606
     38 H4          0.9619    2.1174   13.9738 H         1 HLJ         0.0559
     39 H5          4.4011    5.4894    9.6317 H         1 HLJ         0.0609
     40 H6          3.4891    7.5874    7.2192 H         1 HLJ         0.0703
     41 H7          4.2702    2.2596    4.7609 H         1 HLJ         0.0795
     42 H8          3.3396    1.1795    5.8536 H         1 HLJ         0.0795
     43 H9         -1.5980    3.0359    2.8969 H         1 HLJ         0.0593
     44 H10        -1.7523    1.9473    4.3174 H         1 HLJ         0.0593
     45 H11        -0.9896    1.3483    2.8054 H         1 HLJ         0.0593
     46 H12         2.7148    4.6866    4.2239 H         1 HLJ         0.1867
     47 H13         8.6946    5.7793    7.1155 H         1 HLJ         0.0425
     48 H14         7.3974    4.6896    6.5187 H         1 HLJ         0.0425
     49 H15         7.5566    5.0172    8.2777 H         1 HLJ         0.0425
     50 H16         4.5814    9.7780    6.7884 H         1 HLJ         0.0618
     51 H17         4.6951    4.6307    5.4561 H         1 HLJ         0.0584
     52 H18         2.4812    4.8421   13.1581 H         1 HLJ         0.0684
     53 H19         2.8605    3.0926   13.0102 H         1 HLJ         0.0684
     54 H20         0.3102    4.7270    3.1951 H         1 HLJ         0.1865
     55 H21         2.8364    1.8215    8.0867 H         1 HLJ         0.0599
     56 H22         1.5854    0.2029    5.6811 H         1 HLJ         0.1744
     57 H23        -0.0284    0.2163    4.9208 H         1 HLJ         0.1744
@<TRIPOS>BOND
     1    1   16 am 
     2   23    1 1  
     3   12    2 1  
     4    2   13 ar 
     5    2   15 1  
     6    3    4 ar 
     7   26    3 ar 
     8    4    5 ar 
     9    4   33 1  
    10    6    5 ar 
    11    5   34 1  
    12    7    6 ar 
    13   26    7 ar 
    14    8   17 ar 
    15   27    8 ar 
    16   18    9 ar 
    17    9   19 1  
    18    9   29 ar 
    19   20   10 ar 
    20   10   28 1  
    21   29   10 ar 
    22   18   11 ar 
    23   11   20 ar 
    24   22   12 1  
    25   13   30 ar 
    26   13   31 ar 
    27   30   14 1  
    28   15   24 2  
    29   16   27 1  
    30   16   32 2  
    31   17   18 1  
    32   17   21 ar 
    33   21   22 ar 
    34   22   25 ar 
    35   23   26 1  
    36   24   30 1  
    37   25   27 ar 
    38    1   35 1  
    39    3   36 1  
    40    6   37 1  
    41    7   38 1  
    42    8   39 1  
    43   11   40 1  
    44   12   41 1  
    45   12   42 1  
    46   14   43 1  
    47   14   44 1  
    48   14   45 1  
    49   15   46 1  
    50   19   47 1  
    51   19   48 1  
    52   19   49 1  
    53   20   50 1  
    54   21   51 1  
    55   23   52 1  
    56   23   53 1  
    57   24   54 1  
    58   25   55 1  
    59   31   56 1  
    60   31   57 1  
@<TRIPOS>SUBSTRUCTURE
     1 HLJ         1

