### 
### Created by X-TOOL on Mon Aug  2 16:10:41 2021
### 

@<TRIPOS>MOLECULE
6e3g_ligand
   61    64     1     0     0
SMALL
GAST_HUCK


@<TRIPOS>ATOM
      1 N1          7.1820   61.4870   -5.9120 N.ar      1 HOJ        -0.2818
      2 N3          3.9180   57.6830   -7.1610 N.am      1 HOJ        -0.2368
      3 C4          6.5590   52.5630   -3.4110 C.ar      1 HOJ        -0.0663
      4 C5          3.1330   56.1370   -5.5420 C.ar      1 HOJ        -0.0490
      5 C6          4.9950   55.4650   -6.8900 C.ar      1 HOJ        -0.0490
      6 C7          8.2330   50.4440   -3.9760 C.ar      1 HOJ        -0.0395
      7 C8          3.1720   54.9240   -4.8950 C.ar      1 HOJ        -0.0456
      8 C10         5.2840   61.0760   -4.5090 C.ar      1 HOJ        -0.0183
      9 C13         4.0430   56.4120   -6.5440 C.ar      1 HOJ         0.0558
     10 C15         7.0190   50.5570   -4.6320 C.ar      1 HOJ         0.0949
     11 C17         6.5680   61.5390   -4.7180 C.ar      1 HOJ         0.1487
     12 C20         7.2080   60.8770   -8.2530 C.3       1 HOJ         0.0121
     13 C21         6.1960   61.1300   -9.3630 C.3       1 HOJ         0.0490
     14 C22         4.5590   59.8220   -8.0100 C.3       1 HOJ         0.1707
     15 C24         7.6920   48.9820   -6.2390 C.3       1 HOJ         0.0578
     16 C26         4.8550   51.7430   -5.0560 C.3       1 HOJ         0.0994
     17 C1          7.7720   52.4590   -2.7620 C.ar      1 HOJ        -0.0796
     18 C2          8.6090   51.3950   -3.0380 C.ar      1 HOJ        -0.0776
     19 C3          4.6120   60.5230   -5.5820 C.ar      1 HOJ        -0.0515
     20 C9          5.0420   54.2440   -6.2390 C.ar      1 HOJ        -0.0456
     21 C11         5.2260   60.4470   -6.8210 C.ar      1 HOJ         0.0194
     22 C12         6.1730   51.6170   -4.3450 C.ar      1 HOJ         0.0160
     23 C14         4.1200   53.9770   -5.2420 C.ar      1 HOJ         0.0783
     24 C16         6.5130   60.9370   -6.9330 C.ar      1 HOJ         0.0251
     25 C18         4.9020   58.3610   -7.8440 C.2       1 HOJ         0.2365
     26 C19         4.5240   59.6530  -10.5100 C.2       1 HOJ         0.1793
     27 C23         5.0470   60.2080  -11.8100 C.3       1 HOJ         0.0261
     28 C25         8.4540   61.4100   -3.4010 C.3       1 HOJ         0.0614
     29 N2          5.0610   60.2070   -9.3300 N.am      1 HOJ        -0.2402
     30 O1          5.9370   57.8670   -8.2630 O.2       1 HOJ        -0.3812
     31 O2          3.6870   58.7630  -10.5700 O.2       1 HOJ        -0.3969
     32 O3          6.5970   49.6180   -5.5780 O.3       1 HOJ        -0.3249
     33 O4          4.0560   52.7880   -4.5080 O.3       1 HOJ        -0.3171
     34 O5          7.2410   62.1100   -3.6400 O.3       1 HOJ        -0.3085
     35 H1          3.0265   58.1309   -7.0930 H         1 HOJ         0.2222
     36 H2          5.9009   53.3947   -3.1871 H         1 HOJ         0.0527
     37 H3          2.3894   56.8759   -5.2661 H         1 HOJ         0.0478
     38 H4          5.7083   55.6825   -7.6767 H         1 HOJ         0.0478
     39 H5          8.8910   49.6110   -4.1955 H         1 HOJ         0.0521
     40 H6          2.4568   54.7085   -4.1094 H         1 HOJ         0.0507
     41 H7          4.8175   61.1443   -3.5329 H         1 HOJ         0.0560
     42 H8          7.9946   61.6451   -8.2900 H         1 HOJ         0.0459
     43 H9          7.6596   59.8829   -8.3862 H         1 HOJ         0.0459
     44 H10         6.7057   61.0227  -10.3319 H         1 HOJ         0.0550
     45 H11         5.8146   62.1567   -9.2610 H         1 HOJ         0.0550
     46 H12         3.4746   60.0017   -7.9684 H         1 HOJ         0.0945
     47 H13         7.3072   48.2556   -6.9699 H         1 HOJ         0.0574
     48 H14         8.3153   48.4608   -5.4975 H         1 HOJ         0.0574
     49 H15         8.2968   49.7397   -6.7587 H         1 HOJ         0.0574
     50 H16         4.3090   50.7924   -4.9651 H         1 HOJ         0.0749
     51 H17         5.0426   51.9580   -6.1183 H         1 HOJ         0.0749
     52 H18         8.0674   53.2096   -2.0379 H         1 HOJ         0.0505
     53 H19         9.5582   51.3032   -2.5225 H         1 HOJ         0.0531
     54 H20         3.6030   60.1482   -5.4539 H         1 HOJ         0.0631
     55 H21         5.7907   53.5072   -6.5065 H         1 HOJ         0.0507
     56 H22         4.5543   59.6981  -12.6510 H         1 HOJ         0.0467
     57 H23         6.1332   60.0446  -11.8679 H         1 HOJ         0.0467
     58 H24         4.8351   61.2862  -11.8600 H         1 HOJ         0.0467
     59 H25         8.9790   61.8666   -2.5490 H         1 HOJ         0.0580
     60 H26         9.0911   61.4642   -4.2960 H         1 HOJ         0.0580
     61 H27         8.2310   60.3573   -3.1728 H         1 HOJ         0.0580
@<TRIPOS>BOND
     1    1   11 ar 
     2   24    1 ar 
     3    2    9 1  
     4   25    2 am 
     5    3   17 ar 
     6   22    3 ar 
     7    4    7 ar 
     8    9    4 ar 
     9    9    5 ar 
    10    5   20 ar 
    11   10    6 ar 
    12    6   18 ar 
    13    7   23 ar 
    14    8   11 ar 
    15   19    8 ar 
    16   22   10 ar 
    17   10   32 1  
    18   11   34 1  
    19   13   12 1  
    20   12   24 1  
    21   29   13 1  
    22   14   21 1  
    23   14   25 1  
    24   29   14 1  
    25   32   15 1  
    26   16   22 1  
    27   33   16 1  
    28   17   18 ar 
    29   21   19 ar 
    30   20   23 ar 
    31   21   24 ar 
    32   23   33 1  
    33   25   30 2  
    34   26   27 1  
    35   26   29 am 
    36   26   31 2  
    37   34   28 1  
    38    2   35 1  
    39    3   36 1  
    40    4   37 1  
    41    5   38 1  
    42    6   39 1  
    43    7   40 1  
    44    8   41 1  
    45   12   42 1  
    46   12   43 1  
    47   13   44 1  
    48   13   45 1  
    49   14   46 1  
    50   15   47 1  
    51   15   48 1  
    52   15   49 1  
    53   16   50 1  
    54   16   51 1  
    55   17   52 1  
    56   18   53 1  
    57   19   54 1  
    58   20   55 1  
    59   27   56 1  
    60   27   57 1  
    61   27   58 1  
    62   28   59 1  
    63   28   60 1  
    64   28   61 1  
@<TRIPOS>SUBSTRUCTURE
     1 HOJ         1

