### 
### Created by X-TOOL on Mon Aug  2 16:13:09 2021
### 

@<TRIPOS>MOLECULE
6e3m_ligand
   27    28     1     0     0
SMALL
GAST_HUCK


@<TRIPOS>ATOM
      1 OAA       -24.3860   21.6590   18.2320 O.co2     1 HOG        -0.5606
      2 CAM       -23.7250   21.6800   17.1710 C.2       1 HOG         0.0630
      3 OAC       -24.2630   22.0300   16.0830 O.co2     1 HOG        -0.5606
      4 CAP       -22.3820   21.3120   17.1830 C.ar      1 HOG         0.0111
      5 CAK       -21.9860   20.2970   16.3170 C.ar      1 HOG        -0.0391
      6 CAH       -21.4510   21.9460   18.0230 C.ar      1 HOG        -0.0474
      7 CAG       -20.1110   21.5560   17.9850 C.ar      1 HOG        -0.0574
      8 CAI       -19.7210   20.5360   17.1110 C.ar      1 HOG        -0.0509
      9 CAQ       -20.6650   19.8700   16.3070 C.ar      1 HOG        -0.0061
     10 CAR       -20.2170   18.9130   15.4000 C.ar      1 HOG         0.0344
     11 CAJ       -20.8000   18.9160   14.1270 C.ar      1 HOG        -0.0041
     12 NAL       -19.1770   18.0860   15.6770 N.ar      1 HOG        -0.3028
     13 CAT       -18.6660   17.2200   14.7760 C.ar      1 HOG         0.1000
     14 CAN       -17.6000   16.3970   15.2200 C.2       1 HOG         0.0726
     15 OAD       -17.4090   16.2320   16.4350 O.co2     1 HOG        -0.5611
     16 OAB       -16.8340   15.7870   14.4500 O.co2     1 HOG        -0.5611
     17 CAS       -19.2570   17.2190   13.4890 C.ar      1 HOG         0.1605
     18 OAF       -18.8150   16.3940   12.5270 O.3       1 HOG        -0.3248
     19 CAO       -20.3270   18.0490   13.1640 C.ar      1 HOG         0.1416
     20 OAE       -20.8840   18.0110   11.9120 O.3       1 HOG        -0.3259
     21 H1        -22.7086   19.8401   15.6506 H         1 HOG         0.0661
     22 H2        -21.7712   22.7329   18.6963 H         1 HOG         0.0653
     23 H3        -19.3813   22.0381   18.6254 H         1 HOG         0.0625
     24 H4        -18.6759   20.2542   17.0520 H         1 HOG         0.0646
     25 H5        -21.6154   19.5933   13.9003 H         1 HOG         0.0619
     26 H6        -17.8995   16.5767   12.3507 H         1 HOG         0.2494
     27 H7        -21.2164   17.1377   11.7409 H         1 HOG         0.2490
@<TRIPOS>BOND
     1    1    2 ar 
     2    2    3 ar 
     3    2    4 1  
     4    4    5 ar 
     5    4    6 ar 
     6    5    9 ar 
     7    6    7 ar 
     8    7    8 ar 
     9    8    9 ar 
    10    9   10 1  
    11   10   11 ar 
    12   10   12 ar 
    13   11   19 ar 
    14   12   13 ar 
    15   13   14 1  
    16   13   17 ar 
    17   14   15 ar 
    18   14   16 ar 
    19   17   18 1  
    20   17   19 ar 
    21   19   20 1  
    22    5   21 1  
    23    6   22 1  
    24    7   23 1  
    25    8   24 1  
    26   11   25 1  
    27   18   26 1  
    28   20   27 1  
@<TRIPOS>SUBSTRUCTURE
     1 HOG         1

