### 
### Created by X-TOOL on Mon Aug  2 16:13:09 2021
### 

@<TRIPOS>MOLECULE
6e3n_ligand
   28    29     1     0     0
SMALL
GAST_HUCK


@<TRIPOS>ATOM
      1 OAB       -16.9800   15.5750  133.8560 O.co2     1 HNS        -0.5468
      2 CAL       -17.9440   15.7400  134.6300 C.2       1 HNS         0.1159
      3 OAD       -17.8360   15.3260  135.8200 O.co2     1 HNS        -0.5468
      4 CAQ       -19.1130   16.3720  134.1660 C.2       1 HNS         0.1350
      5 NAK       -20.1110   16.6720  135.1140 N.2       1 HNS        -0.2633
      6 CAO       -19.3490   16.7260  132.8110 C.3       1 HNS         0.1956
      7 OAE       -18.4000   16.4410  131.8580 O.3       1 HNS        -0.3506
      8 CAR       -20.5510   17.3660  132.4070 C.2       1 HNS         0.1532
      9 OAC       -20.8030   17.6950  131.2390 O.2       1 HNS        -0.3998
     10 CAJ       -21.5120   17.6430  133.3760 C.2       1 HNS         0.0040
     11 CAN       -21.3070   17.2970  134.7190 C.2       1 HNS         0.0466
     12 CAP       -22.2960   17.5800  135.6630 C.ar      1 HNS         0.0055
     13 CAI       -22.0570   18.5430  136.6480 C.ar      1 HNS        -0.0542
     14 CAG       -23.0320   18.8660  137.6010 C.ar      1 HNS        -0.0642
     15 CAF       -24.2530   18.2040  137.5770 C.ar      1 HNS        -0.0650
     16 CAH       -24.4800   17.2380  136.5980 C.ar      1 HNS        -0.0555
     17 CAM       -23.5240   16.9220  135.6370 C.ar      1 HNS        -0.0305
     18 CAA       -23.8540   15.9480  134.6920 C.3       1 HNS        -0.0276
     19 H1        -18.8861   17.7076  132.9902 H         1 HNS         0.1125
     20 H2        -18.2513   15.5031  131.8314 H         1 HNS         0.2187
     21 H3        -22.4383   18.1366  133.0857 H         1 HNS         0.0554
     22 H4        -21.0990   19.0495  136.6749 H         1 HNS         0.0635
     23 H5        -22.8355   19.6250  138.3496 H         1 HNS         0.0571
     24 H6        -25.0183   18.4353  138.3091 H         1 HNS         0.0628
     25 H7        -25.4304   16.7168  136.5847 H         1 HNS         0.0565
     26 H8        -23.0088   15.8047  134.0027 H         1 HNS         0.0406
     27 H9        -24.7388   16.2724  134.1247 H         1 HNS         0.0406
     28 H10       -24.0742   14.9998  135.2042 H         1 HNS         0.0406
@<TRIPOS>BOND
     1    1    2 ar 
     2    2    3 ar 
     3    2    4 1  
     4    4    5 2  
     5    4    6 1  
     6    5   11 1  
     7    6    7 1  
     8    6    8 1  
     9    8    9 2  
    10    8   10 1  
    11   10   11 2  
    12   11   12 1  
    13   12   13 ar 
    14   12   17 ar 
    15   13   14 ar 
    16   14   15 ar 
    17   15   16 ar 
    18   16   17 ar 
    19   17   18 1  
    20    6   19 1  
    21    7   20 1  
    22   10   21 1  
    23   13   22 1  
    24   14   23 1  
    25   15   24 1  
    26   16   25 1  
    27   18   26 1  
    28   18   27 1  
    29   18   28 1  
@<TRIPOS>SUBSTRUCTURE
     1 HNS         1

