### 
### Created by X-TOOL on Mon Aug  2 16:17:10 2021
### 

@<TRIPOS>MOLECULE
6e3p_ligand
   30    32     1     0     0
SMALL
GAST_HUCK


@<TRIPOS>ATOM
      1 OAA       -17.9740   16.0300  137.4280 O.co2     1 HO1        -0.5469
      2 CAO       -18.1250   16.2410  136.1990 C.2       1 HO1         0.1158
      3 OAC       -17.4020   15.6150  135.3890 O.co2     1 HO1        -0.5469
      4 CAU       -19.1560   17.0690  135.7270 C.2       1 HO1         0.1351
      5 NAN       -19.8800   17.8220  136.6720 N.2       1 HO1        -0.2621
      6 CAS       -19.5190   17.1500  134.3540 C.3       1 HO1         0.1963
      7 OAD       -18.8390   16.4180  133.3930 O.3       1 HO1        -0.3505
      8 CAV       -20.5920   17.9570  133.9470 C.2       1 HO1         0.1562
      9 OAB       -20.9620   18.0610  132.7710 O.2       1 HO1        -0.3977
     10 CAI       -21.2760   18.6880  134.9100 C.2       1 HO1         0.0081
     11 CAR       -20.9470   18.6480  136.2740 C.2       1 HO1         0.0518
     12 CAP       -21.6830   19.4190  137.2010 C.ar      1 HO1         0.0077
     13 CAH       -22.8530   20.0750  136.7800 C.ar      1 HO1        -0.0303
     14 CAF       -21.3100   19.5800  138.5450 C.ar      1 HO1        -0.0449
     15 CAE       -22.0990   20.3670  139.3980 C.ar      1 HO1        -0.0531
     16 CAG       -23.2620   21.0070  138.9510 C.ar      1 HO1        -0.0410
     17 CAQ       -23.6580   20.8690  137.6150 C.ar      1 HO1         0.0445
     18 CAT       -24.7810   21.4480  137.0880 C.2       1 HO1         0.1866
     19 NAM       -25.1930   21.3580  135.8070 N.2       1 HO1        -0.2071
     20 NAK       -26.2620   22.0020  135.6620 N.2       1 HO1        -0.1385
     21 NAJ       -26.5890   22.5160  136.7730 N.2       1 HO1        -0.0637
     22 NAL       -25.6910   22.1910  137.7130 N.pl3     1 HO1        -0.1507
     23 H1        -18.8225   17.9906  134.2187 H         1 HO1         0.1126
     24 H2        -18.9160   15.4916  133.5889 H         1 HO1         0.2188
     25 H3        -22.1041   19.3201  134.5927 H         1 HO1         0.0588
     26 H4        -23.1537   19.9611  135.7448 H         1 HO1         0.0700
     27 H5        -20.4155   19.0980  138.9225 H         1 HO1         0.0682
     28 H6        -21.7996   20.4830  140.4333 H         1 HO1         0.0635
     29 H7        -23.8521   21.6057  139.6354 H         1 HO1         0.0686
     30 H8        -25.7026   22.4592  138.7074 H         1 HO1         0.2707
@<TRIPOS>BOND
     1    1    2 ar 
     2    2    3 ar 
     3    2    4 1  
     4    4    5 2  
     5    4    6 1  
     6    5   11 1  
     7    6    7 1  
     8    6    8 1  
     9    8    9 2  
    10    8   10 1  
    11   10   11 2  
    12   11   12 1  
    13   12   13 ar 
    14   12   14 ar 
    15   13   17 ar 
    16   14   15 ar 
    17   15   16 ar 
    18   16   17 ar 
    19   17   18 1  
    20   18   19 2  
    21   18   22 1  
    22   19   20 1  
    23   20   21 2  
    24   21   22 1  
    25    6   23 1  
    26    7   24 1  
    27   10   25 1  
    28   13   26 1  
    29   14   27 1  
    30   15   28 1  
    31   16   29 1  
    32   22   30 1  
@<TRIPOS>SUBSTRUCTURE
     1 HO1         1

