### 
### Created by X-TOOL on Mon Aug  2 16:13:10 2021
### 

@<TRIPOS>MOLECULE
6e3s_ligand
   38    40     1     0     0
SMALL
GAST_HUCK


@<TRIPOS>ATOM
      1 N1        173.3600 -123.1960  170.3640 N.1       1 MOL        -0.3283
      2 C17       174.0230 -122.5570  169.6970 C.1       1 MOL         0.0969
      3 C6        174.8970 -121.7910  168.7400 C.ar      1 MOL         0.0862
      4 C7        175.3640 -122.6070  167.5780 C.ar      1 MOL         0.0018
      5 C8        176.2220 -121.9950  166.5410 C.ar      1 MOL         0.1229
      6 C9        176.6560 -120.5590  166.6510 C.ar      1 MOL         0.0131
      7 C10       176.1830 -119.7170  167.8240 C.ar      1 MOL         0.1356
      8 F1        176.5750 -118.4270  167.9320 F         1 MOL        -0.1840
      9 C5        175.2910 -120.3270  168.8890 C.ar      1 MOL        -0.0041
     10 O1        176.6420 -122.8760  165.5630 O.3       1 MOL        -0.2623
     11 C1        175.9560 -122.7360  164.3980 C.ar      1 MOL         0.1119
     12 C14       176.5530 -123.4670  163.2080 C.ar      1 MOL         0.0028
     13 C15       177.7340 -124.3230  163.0980 C.3       1 MOL         0.0451
     14 C11       177.9050 -124.4130  161.5860 C.3       1 MOL         0.2889
     15 F3        178.7450 -123.4220  161.3280 F         1 MOL        -0.1987
     16 F2        178.1530 -125.6780  161.2480 F         1 MOL        -0.1987
     17 C13       175.8410 -123.3490  161.9310 C.ar      1 MOL         0.0104
     18 C12       176.5600 -124.1330  160.9350 C.3       1 MOL         0.1506
     19 O4        175.9790 -125.3840  160.8060 O.3       1 MOL        -0.3746
     20 C4        174.5750 -122.4970  161.8730 C.ar      1 MOL         0.0751
     21 S1        173.7420 -122.3070  160.3610 S.o2      1 MOL        -0.0140
     22 C16       174.7710 -121.6090  159.1210 C.3       1 MOL         0.0572
     23 O3        173.2020 -123.5840  160.0070 O.2       1 MOL        -0.1720
     24 O2        172.6920 -121.3600  160.5840 O.2       1 MOL        -0.1720
     25 C3        173.9870 -121.7740  163.0650 C.ar      1 MOL        -0.0581
     26 C2        174.7050 -121.8880  164.3920 C.ar      1 MOL        -0.0399
     27 H1        175.0735 -123.6481  167.4955 H         1 MOL         0.0616
     28 H2        177.3034 -120.1267  165.8967 H         1 MOL         0.0608
     29 H3        174.9444 -119.7386  169.7309 H         1 MOL         0.0615
     30 H4        177.5550 -125.3135  163.5417 H         1 MOL         0.0450
     31 H5        178.6110 -123.8608  163.5746 H         1 MOL         0.0450
     32 H6        176.6399 -123.6096  159.9708 H         1 MOL         0.0802
     33 H7        176.4543 -125.8871  160.1552 H         1 MOL         0.2130
     34 H8        174.2012 -121.5087  158.1854 H         1 MOL         0.0465
     35 H9        175.6388 -122.2638  158.9533 H         1 MOL         0.0465
     36 H10       175.1175 -120.6173  159.4474 H         1 MOL         0.0465
     37 H11       173.0778 -121.1913  162.9710 H         1 MOL         0.0536
     38 H12       174.3437 -121.3911  165.2851 H         1 MOL         0.0478
@<TRIPOS>BOND
     1    1    2 3  
     2    2    3 1  
     3    3    4 ar 
     4    3    9 ar 
     5    4    5 ar 
     6    5    6 ar 
     7    5   10 1  
     8    6    7 ar 
     9    7    8 1  
    10    7    9 ar 
    11   10   11 1  
    12   11   12 ar 
    13   11   26 ar 
    14   12   13 1  
    15   12   17 ar 
    16   13   14 1  
    17   14   15 1  
    18   14   16 1  
    19   14   18 1  
    20   17   18 1  
    21   17   20 ar 
    22   18   19 1  
    23   20   21 1  
    24   20   25 ar 
    25   21   22 1  
    26   21   23 2  
    27   21   24 2  
    28   25   26 ar 
    29    4   27 1  
    30    6   28 1  
    31    9   29 1  
    32   13   30 1  
    33   13   31 1  
    34   18   32 1  
    35   19   33 1  
    36   22   34 1  
    37   22   35 1  
    38   22   36 1  
    39   25   37 1  
    40   26   38 1  
@<TRIPOS>SUBSTRUCTURE
     1 MOL         1

