### 
### Created by X-TOOL on Mon Aug  2 16:13:10 2021
### 

@<TRIPOS>MOLECULE
6e3z_ligand
   45    47     1     0     0
SMALL
GAST_HUCK


@<TRIPOS>ATOM
      1 C1        -40.9460  -46.2420   21.2830 C.3       1 HRV        -0.0417
      2 C10       -40.1590  -43.1430   21.1080 C.3       1 HRV         0.4119
      3 C14       -39.1200  -45.5920   19.6420 C.ar      1 HRV         0.0191
      4 C15       -37.7610  -45.7020   19.3690 C.ar      1 HRV        -0.0185
      5 C16       -37.2890  -45.6460   18.0620 C.ar      1 HRV         0.0909
      6 C18       -35.2440  -45.4980   16.7410 C.2       1 HRV         0.2508
      7 C2        -39.5610  -45.6550   21.1170 C.3       1 HRV         0.1269
      8 C20       -33.8040  -45.7300   16.8830 C.ar      1 HRV         0.1422
      9 C22       -32.1650  -47.0800   17.7560 C.ar      1 HRV         0.0308
     10 C23       -31.1560  -46.3100   17.1930 C.ar      1 HRV         0.0734
     11 C25       -31.5100  -45.1980   16.4400 C.ar      1 HRV        -0.0088
     12 C26       -32.8620  -44.8990   16.2830 C.ar      1 HRV         0.0895
     13 C28       -38.1630  -45.4830   16.9820 C.ar      1 HRV        -0.0112
     14 C29       -39.5280  -45.3680   17.2430 C.ar      1 HRV        -0.0061
     15 C30       -39.9930  -45.4210   18.5560 C.ar      1 HRV         0.1528
     16 C4        -37.6150  -46.1620   22.6480 C.cat     1 HRV         0.2238
     17 C6        -37.3790  -44.7160   22.8560 C.3       1 HRV         0.1187
     18 C8        -39.4670  -44.2770   21.8340 C.3       1 HRV         0.1737
     19 F11       -40.1590  -42.0400   21.9060 F         1 HRV        -0.1686
     20 F12       -39.5510  -42.8260   19.9430 F         1 HRV        -0.1686
     21 F13       -41.4360  -43.4420   20.8160 F         1 HRV        -0.1686
     22 F31       -41.3020  -45.2910   18.7690 F         1 HRV        -0.1644
     23 N17       -35.9160  -45.7640   17.8990 N.am      1 HRV        -0.2273
     24 N21       -33.4900  -46.8220   17.6190 N.ar      1 HRV        -0.2754
     25 N3        -38.6140  -46.5570   21.8520 N.pl3     1 HRV        -0.2904
     26 N5        -36.7840  -46.9760   23.2800 N.pl3     1 HRV        -0.2749
     27 O19       -35.7060  -45.1840   15.6530 O.2       1 HRV        -0.3679
     28 O7        -38.0880  -43.9160   21.9070 O.3       1 HRV        -0.3699
     29 CL24      -29.4900  -46.7120   17.4050 Cl        1 HRV        -0.0570
     30 CL27      -33.2500  -43.5030   15.3530 Cl        1 HRV        -0.0548
     31 H1        -40.9958  -47.2144   20.7712 H         1 HRV         0.0172
     32 H2        -41.6887  -45.5588   20.8452 H         1 HRV         0.0172
     33 H3        -41.1602  -46.3795   22.3531 H         1 HRV         0.0172
     34 H4        -37.0603  -45.8331   20.1856 H         1 HRV         0.0676
     35 H5        -31.8752  -47.9437   18.3434 H         1 HRV         0.0846
     36 H6        -30.7495  -44.5749   15.9834 H         1 HRV         0.0758
     37 H7        -37.7878  -45.4469   15.9656 H         1 HRV         0.0762
     38 H8        -40.2273  -45.2374   16.4251 H         1 HRV         0.0657
     39 H9        -36.3023  -44.5140   22.7568 H         1 HRV         0.0576
     40 H10       -37.7114  -44.4439   23.8686 H         1 HRV         0.0576
     41 H11       -39.8940  -44.3728   22.8432 H         1 HRV         0.0627
     42 H12       -35.3798  -46.0659   18.6873 H         1 HRV         0.2249
     43 H13       -38.7452  -47.5716   21.7327 H         1 HRV         0.3095
     44 H14       -36.8880  -47.9960   23.1818 H         1 HRV         0.3178
     45 H15       -36.0334  -46.5893   23.8699 H         1 HRV         0.3178
@<TRIPOS>BOND
     1    7    1 1  
     2   18    2 1  
     3    2   19 1  
     4    2   20 1  
     5    2   21 1  
     6    3    4 ar 
     7    7    3 1  
     8    3   15 ar 
     9    4    5 ar 
    10    5   13 ar 
    11    5   23 1  
    12    6    8 1  
    13   23    6 am 
    14    6   27 2  
    15    7   18 1  
    16   25    7 1  
    17    8   12 ar 
    18    8   24 ar 
    19    9   10 ar 
    20   24    9 ar 
    21   11   10 ar 
    22   10   29 1  
    23   12   11 ar 
    24   12   30 1  
    25   14   13 ar 
    26   15   14 ar 
    27   15   22 1  
    28   16   17 1  
    29   16   25 ar 
    30   16   26 ar 
    31   17   28 1  
    32   18   28 1  
    33    1   31 1  
    34    1   32 1  
    35    1   33 1  
    36    4   34 1  
    37    9   35 1  
    38   11   36 1  
    39   13   37 1  
    40   14   38 1  
    41   17   39 1  
    42   17   40 1  
    43   18   41 1  
    44   23   42 1  
    45   25   43 1  
    46   26   44 1  
    47   26   45 1  
@<TRIPOS>SUBSTRUCTURE
     1 HRV         1

