### 
### Created by X-TOOL on Wed Jan  1 15:39:35 2020
### 

@<TRIPOS>MOLECULE
6e4a_ligand
   74    78     1     0     0
SMALL
GAST_HUCK


@<TRIPOS>ATOM
      1 N1         15.9120   -5.5460   46.4400 N.ar      1 HRY        -0.2950
      2 N2         16.4570   -4.4210   44.4510 N.ar      1 HRY        -0.2400
      3 C1         14.2930    1.7750   48.8110 C.2       1 HRY        -0.0100
      4 C2         14.7710    0.5750   48.3080 C.2       1 HRY        -0.0653
      5 C3         14.2880   -0.6240   48.7340 C.2       1 HRY         0.0077
      6 C4         13.2290   -0.6700   49.6310 C.2       1 HRY         0.0815
      7 C5         11.6580    0.3610   51.0980 C.3       1 HRY         0.0617
      8 C6         14.7560   -1.9290   48.1490 C.ar      1 HRY        -0.0312
      9 C7         14.6140   -3.1210   48.9000 C.ar      1 HRY        -0.0598
     10 C8         15.0410   -4.3020   48.3180 C.ar      1 HRY        -0.0510
     11 O          12.7090    2.7730   50.2270 O.2       1 HRY        -0.4177
     12 C          13.2610    1.7190   49.7510 C.2       1 HRY         0.2033
     13 N          12.7410    0.4990   50.1180 N.am      1 HRY        -0.2053
     14 C20        15.1870   -1.9780   46.8770 C.ar      1 HRY        -0.0494
     15 C19        15.6600   -3.1700   46.3190 C.ar      1 HRY         0.0379
     16 C9         15.5540   -4.3360   47.0300 C.ar      1 HRY         0.0221
     17 C10        16.3190   -5.5930   45.1830 C.ar      1 HRY         0.1621
     18 N4         16.7680   -6.7670   44.5730 N.pl3     1 HRY        -0.2707
     19 C21        17.1320   -6.8260   43.1450 C.3       1 HRY         0.0736
     20 C22        15.7160   -7.1620   42.5200 C.3       1 HRY        -0.0104
     21 N5         15.1490   -8.4690   43.0710 N.4       1 HRY         0.2419
     22 C23        13.7300   -8.8530   42.8120 C.3       1 HRY         0.0094
     23 C24        13.4810   -9.0040   41.3410 C.3       1 HRY         0.0087
     24 N6         12.2000   -9.6070   40.9170 N.4       1 HRY         0.2346
     25 C25        10.9400   -8.9230   41.3550 C.3       1 HRY        -0.0431
     26 C26        12.2740   -9.5210   39.4320 C.3       1 HRY        -0.0431
     27 C27        15.2650   -8.4810   44.5560 C.3       1 HRY        -0.0104
     28 C28        16.6070   -8.1110   45.1500 C.3       1 HRY         0.0736
     29 C11        16.1320   -3.2230   44.9830 C.ar      1 HRY         0.1345
     30 N3         16.2570   -2.1280   44.2020 N.pl3     1 HRY        -0.2834
     31 C12        16.5390   -2.3220   42.7830 C.3       1 HRY         0.0663
     32 C13        15.2730   -2.1730   41.9170 C.ar      1 HRY        -0.0195
     33 C18        14.0180   -1.9050   42.4690 C.ar      1 HRY        -0.0444
     34 C17        12.8480   -1.7640   41.7170 C.ar      1 HRY         0.0338
     35 CL         11.2600   -1.4190   42.5540 Cl        1 HRY        -0.0725
     36 C14        15.3540   -2.3270   40.5370 C.ar      1 HRY        -0.0582
     37 C15        14.1970   -2.1890   39.7600 C.ar      1 HRY        -0.0680
     38 C16        12.9650   -1.9090   40.3440 C.ar      1 HRY        -0.0548
     39 H1         14.7073    2.7279   48.4849 H         1 HRY         0.0425
     40 H2         15.5542    0.5921   47.5515 H         1 HRY         0.0659
     41 H3         12.7996   -1.6229   49.9369 H         1 HRY         0.1295
     42 H4         11.4134   -0.7037   51.2266 H         1 HRY         0.0615
     43 H5         10.7688    0.9009   50.7404 H         1 HRY         0.0615
     44 H6         11.9797    0.7823   52.0618 H         1 HRY         0.0615
     45 H7         14.1859   -3.1090   49.8958 H         1 HRY         0.0630
     46 H8         14.9727   -5.2242   48.8836 H         1 HRY         0.0584
     47 H9         15.1677   -1.0780   46.2731 H         1 HRY         0.0590
     48 H10        17.8671   -7.6189   42.9425 H         1 HRY         0.0580
     49 H11        17.5215   -5.8635   42.7819 H         1 HRY         0.0580
     50 H12        15.8205   -7.2512   41.4286 H         1 HRY         0.0835
     51 H13        15.0194   -6.3441   42.7560 H         1 HRY         0.0835
     52 H14        15.7252   -9.2022   42.6884 H         1 HRY         0.2037
     53 H15        13.0661   -8.0726   43.2122 H         1 HRY         0.0868
     54 H16        13.5172   -9.8083   43.3140 H         1 HRY         0.0868
     55 H17        14.2888   -9.6300   40.9341 H         1 HRY         0.0867
     56 H18        13.5347   -8.0002   40.8944 H         1 HRY         0.0867
     57 H19        12.1643  -10.5656   41.2266 H         1 HRY         0.2030
     58 H20        10.0701   -9.4760   40.9710 H         1 HRY         0.0777
     59 H21        10.9244   -7.8960   40.9614 H         1 HRY         0.0777
     60 H22        10.9008   -8.8952   42.4539 H         1 HRY         0.0777
     61 H23        13.1914  -10.0163   39.0813 H         1 HRY         0.0777
     62 H24        12.2879   -8.4645   39.1261 H         1 HRY         0.0777
     63 H25        11.3974  -10.0187   38.9917 H         1 HRY         0.0777
     64 H26        15.0210   -9.4975   44.8984 H         1 HRY         0.0835
     65 H27        14.5220   -7.7727   44.9513 H         1 HRY         0.0835
     66 H28        16.5754   -8.0842   46.2492 H         1 HRY         0.0580
     67 H29        17.4031   -8.7958   44.8226 H         1 HRY         0.0580
     68 H30        16.1561   -1.1821   44.5969 H         1 HRY         0.1936
     69 H31        16.9518   -3.3312   42.6377 H         1 HRY         0.0696
     70 H32        17.2786   -1.5736   42.4624 H         1 HRY         0.0696
     71 H33        13.9471   -1.8000   43.5456 H         1 HRY         0.0562
     72 H34        16.3045   -2.5519   40.0669 H         1 HRY         0.0559
     73 H35        14.2622   -2.3023   38.6839 H         1 HRY         0.0599
     74 H36        12.0868   -1.8031   39.7174 H         1 HRY         0.0565
@<TRIPOS>BOND
     1   16    1 ar 
     2    1   17 ar 
     3   17    2 ar 
     4    2   29 ar 
     5    4    3 2  
     6    3   12 1  
     7    5    4 1  
     8    5    6 2  
     9    8    5 1  
    10    6   13 1  
    11   13    7 1  
    12    9    8 ar 
    13    8   14 ar 
    14   10    9 ar 
    15   10   16 ar 
    16   12   11 2  
    17   12   13 am 
    18   14   15 ar 
    19   15   16 ar 
    20   15   29 ar 
    21   17   18 1  
    22   18   19 1  
    23   18   28 1  
    24   19   20 1  
    25   20   21 1  
    26   21   22 1  
    27   21   27 1  
    28   22   23 1  
    29   23   24 1  
    30   24   25 1  
    31   24   26 1  
    32   27   28 1  
    33   29   30 1  
    34   30   31 1  
    35   31   32 1  
    36   32   33 ar 
    37   32   36 ar 
    38   33   34 ar 
    39   34   35 1  
    40   34   38 ar 
    41   36   37 ar 
    42   37   38 ar 
    43    3   39 1  
    44    4   40 1  
    45    6   41 1  
    46    7   42 1  
    47    7   43 1  
    48    7   44 1  
    49    9   45 1  
    50   10   46 1  
    51   14   47 1  
    52   19   48 1  
    53   19   49 1  
    54   20   50 1  
    55   20   51 1  
    56   21   52 1  
    57   22   53 1  
    58   22   54 1  
    59   23   55 1  
    60   23   56 1  
    61   24   57 1  
    62   25   58 1  
    63   25   59 1  
    64   25   60 1  
    65   26   61 1  
    66   26   62 1  
    67   26   63 1  
    68   27   64 1  
    69   27   65 1  
    70   28   66 1  
    71   28   67 1  
    72   30   68 1  
    73   31   69 1  
    74   31   70 1  
    75   33   71 1  
    76   36   72 1  
    77   37   73 1  
    78   38   74 1  
@<TRIPOS>SUBSTRUCTURE
     1 HRY         1

