### 
### Created by X-TOOL on Wed Jan  1 15:39:34 2020
### 

@<TRIPOS>MOLECULE
6e4f_ligand
   57    61     1     0     0
SMALL
GAST_HUCK


@<TRIPOS>ATOM
      1 C1         23.8790    6.5670    1.5660 C.3       1 HRA        -0.0249
      2 C2         25.0200    6.9740    0.7160 C.3       1 HRA        -0.0222
      3 C3         24.7100    8.2950    0.0590 C.3       1 HRA         0.0819
      4 C4         22.3030    7.8490    0.0760 C.3       1 HRA         0.0714
      5 C5         19.2590    7.0610    6.6360 C.ar      1 HRA        -0.0512
      6 C6         18.7940    7.1060    7.9480 C.ar      1 HRA        -0.0222
      7 C7         18.4320    5.9270    8.5760 C.ar      1 HRA         0.1220
      8 C9         19.0060    4.6800    6.6050 C.ar      1 HRA         0.0511
      9 C10        19.3670    5.8590    5.9240 C.ar      1 HRA         0.0307
     10 C11        19.8360    5.9250    4.5590 C.2       1 HRA         0.1288
     11 C12        17.7210    5.0930    3.6650 C.2       1 HRA         0.0517
     12 C13        19.0100    5.4950    3.4770 C.2       1 HRA         0.0426
     13 C14        20.3140    5.6110    1.2030 C.ar      1 HRA         0.1209
     14 C16        18.0910    4.8890    1.5430 C.ar      1 HRA         0.1414
     15 C          25.9130    8.5590   -0.8160 C.3       1 HRA         0.0704
     16 O          25.5690    9.6770   -1.6020 O.3       1 HRA        -0.3925
     17 O1         23.4440    8.2430   -0.6760 O.3       1 HRA        -0.3720
     18 C18        22.6030    6.4860    0.7210 C.3       1 HRA         0.0644
     19 N3         21.5030    6.0950    1.6140 N.pl3     1 HRA        -0.2965
     20 C15        19.2620    5.3760    2.0920 C.ar      1 HRA         0.0612
     21 N1         20.1800    5.3620   -0.1090 N.ar      1 HRA        -0.2723
     22 C17        18.9980    4.8600   -0.5760 C.ar      1 HRA         0.0510
     23 N2         17.9250    4.6200    0.2300 N.ar      1 HRA        -0.2753
     24 N          17.1720    4.7470    2.4980 N.pl3     1 HRA        -0.2561
     25 O3         20.9610    6.4060    4.3380 O.2       1 HRA        -0.3907
     26 CL         19.1110    3.1350    5.8640 Cl        1 HRA        -0.0674
     27 C8         18.5450    4.7220    7.9070 C.ar      1 HRA        -0.0085
     28 O2         17.9780    5.9330    9.8550 O.3       1 HRA        -0.2544
     29 C19        16.9630    6.8070   10.1990 C.ar      1 HRA         0.1176
     30 C24        16.9750    7.3320   11.5010 C.ar      1 HRA        -0.0281
     31 C23        15.9830    8.2280   11.9140 C.ar      1 HRA        -0.0695
     32 C22        14.9580    8.5920   11.0260 C.ar      1 HRA        -0.0721
     33 C21        14.9350    8.0610    9.7310 C.ar      1 HRA        -0.0695
     34 C20        15.9360    7.1740    9.3100 C.ar      1 HRA        -0.0281
     35 H1         23.7392    7.3069    2.3679 H         1 HRA         0.0290
     36 H2         24.0868    5.5816    2.0084 H         1 HRA         0.0290
     37 H3         25.1917    6.2110   -0.0575 H         1 HRA         0.0292
     38 H4         25.9221    7.0760    1.3371 H         1 HRA         0.0292
     39 H5         24.6298    9.0844    0.8208 H         1 HRA         0.0619
     40 H6         21.4303    7.7631   -0.5881 H         1 HRA         0.0583
     41 H7         22.0966    8.5942    0.8583 H         1 HRA         0.0583
     42 H8         19.5468    7.9861    6.1497 H         1 HRA         0.0643
     43 H9         18.7166    8.0525    8.4707 H         1 HRA         0.0568
     44 H10        17.2127    5.0590    4.6275 H         1 HRA         0.1058
     45 H11        26.1214    7.6888   -1.4558 H         1 HRA         0.0583
     46 H12        26.7962    8.7802   -0.1987 H         1 HRA         0.0583
     47 H13        24.7999    9.4732   -2.1211 H         1 HRA         0.2095
     48 H14        22.7275    5.7307   -0.0689 H         1 HRA         0.0585
     49 H15        21.6516    6.1984    2.6280 H         1 HRA         0.1863
     50 H16        18.9096    4.6430   -1.6344 H         1 HRA         0.0980
     51 H17        16.2034    4.4252    2.3594 H         1 HRA         0.2369
     52 H18        18.2693    3.8015    8.4088 H         1 HRA         0.0572
     53 H19        17.7585    7.0411   12.1913 H         1 HRA         0.0553
     54 H20        16.0056    8.6399   12.9164 H         1 HRA         0.0591
     55 H21        14.1855    9.2833   11.3429 H         1 HRA         0.0529
     56 H22        14.1385    8.3372    9.0495 H         1 HRA         0.0591
     57 H23        15.9187    6.7725    8.3033 H         1 HRA         0.0553
@<TRIPOS>BOND
     1    1    2 1  
     2   18    1 1  
     3    2    3 1  
     4    3   15 1  
     5   17    3 1  
     6    4   17 1  
     7   18    4 1  
     8    5    6 ar 
     9    9    5 ar 
    10    6    7 ar 
    11   27    7 ar 
    12    7   28 1  
    13    9    8 ar 
    14    8   26 1  
    15    8   27 ar 
    16   10    9 1  
    17   12   10 1  
    18   10   25 2  
    19   12   11 2  
    20   24   11 1  
    21   20   12 1  
    22   19   13 1  
    23   13   20 ar 
    24   13   21 ar 
    25   20   14 ar 
    26   14   23 ar 
    27   14   24 1  
    28   15   16 1  
    29   18   19 1  
    30   21   22 ar 
    31   22   23 ar 
    32   28   29 1  
    33   29   30 ar 
    34   29   34 ar 
    35   30   31 ar 
    36   31   32 ar 
    37   32   33 ar 
    38   33   34 ar 
    39    1   35 1  
    40    1   36 1  
    41    2   37 1  
    42    2   38 1  
    43    3   39 1  
    44    4   40 1  
    45    4   41 1  
    46    5   42 1  
    47    6   43 1  
    48   11   44 1  
    49   15   45 1  
    50   15   46 1  
    51   16   47 1  
    52   18   48 1  
    53   19   49 1  
    54   22   50 1  
    55   24   51 1  
    56   27   52 1  
    57   30   53 1  
    58   31   54 1  
    59   32   55 1  
    60   33   56 1  
    61   34   57 1  
@<TRIPOS>SUBSTRUCTURE
     1 HRA         1

