### 
### Created by X-TOOL on Wed Jan  1 15:39:38 2020
### 

@<TRIPOS>MOLECULE
6e4t_ligand
   59    63     1     0     0
SMALL
GAST_HUCK


@<TRIPOS>ATOM
      1 C4         49.1960  -81.6870  -38.3170 C.ar      1 HTV        -0.0408
      2 C7         46.0770  -79.8140  -39.5820 C.ar      1 HTV         0.0015
      3 C6         47.2000  -80.8110  -39.4380 C.ar      1 HTV         0.0038
      4 C9         43.7340  -79.3360  -39.6930 C.ar      1 HTV         0.0022
      5 C13        41.7750  -78.2020  -39.7980 C.2       1 HTV         0.0533
      6 C20        38.0390  -83.0630  -41.0080 C.3       1 HTV         0.1423
      7 C21        37.4840  -82.9040  -42.4130 C.2       1 HTV         0.0664
      8 C8         44.7700  -80.2820  -39.6330 C.ar      1 HTV        -0.0530
      9 C18        37.7470  -83.0050  -38.5170 C.3       1 HTV         0.1159
     10 C16        39.5280  -81.7530  -39.7080 C.3       1 HTV         0.2150
     11 C19        37.0240  -83.1550  -39.8650 C.3       1 HTV         0.1214
     12 C1         47.2430  -81.9130  -40.3300 C.ar      1 HTV        -0.0281
     13 C2         48.2400  -82.8880  -40.2070 C.ar      1 HTV        -0.0408
     14 C3         49.2290  -82.8080  -39.2050 C.ar      1 HTV        -0.0311
     15 C5         48.1970  -80.7100  -38.4230 C.ar      1 HTV        -0.0281
     16 C10        43.9940  -77.9400  -39.7130 C.ar      1 HTV         0.0768
     17 C11        45.2780  -77.4380  -39.6800 C.ar      1 HTV        -0.0210
     18 C12        46.2650  -78.3890  -39.6180 C.ar      1 HTV         0.0437
     19 CL1        47.8030  -77.7370  -39.5700 Cl        1 HTV        -0.0736
     20 N1         42.7840  -77.2680  -39.7740 N.pl3     1 HTV        -0.2659
     21 C14        42.3400  -79.4660  -39.7420 C.2       1 HTV         0.0657
     22 C15        41.7010  -80.7310  -39.6810 C.2       1 HTV         0.2394
     23 O1         42.2450  -81.8420  -39.5390 O.2       1 HTV        -0.3757
     24 O2         40.3280  -80.5700  -39.7520 O.3       1 HTV        -0.2480
     25 C17        38.5950  -81.7310  -38.4950 C.3       1 HTV         0.1384
     26 O3         38.7800  -81.8350  -40.9080 O.3       1 HTV        -0.3248
     27 O4         36.3370  -82.7390  -42.7620 O.co2     1 HTV        -0.5662
     28 O5         38.4910  -82.9340  -43.3390 O.co2     1 HTV        -0.5662
     29 O6         36.3160  -84.3920  -39.9240 O.3       1 HTV        -0.3848
     30 O7         36.8650  -83.0680  -37.3930 O.3       1 HTV        -0.3863
     31 O8         39.3080  -81.6020  -37.2600 O.3       1 HTV        -0.3837
     32 C22        50.2930  -83.9070  -39.0460 C.3       1 HTV         0.0476
     33 C23        51.6570  -83.4040  -38.5130 C.3       1 HTV        -0.0538
     34 C24        52.3680  -84.1280  -39.6530 C.3       1 HTV        -0.0654
     35 C25        51.0200  -84.3160  -40.3520 C.3       1 HTV        -0.0538
     36 O9         49.8230  -85.0320  -38.3010 O.3       1 HTV        -0.4306
     37 H1         49.9559  -81.5918  -37.5498 H         1 HTV         0.0833
     38 H2         40.7093  -77.9845  -39.8520 H         1 HTV         0.1078
     39 H3         38.6976  -83.9425  -40.9559 H         1 HTV         0.0794
     40 H4         44.5565  -81.3447  -39.6267 H         1 HTV         0.0617
     41 H5         38.4365  -83.8574  -38.4272 H         1 HTV         0.0649
     42 H6         40.1863  -82.6310  -39.6318 H         1 HTV         0.0989
     43 H7         36.3000  -82.3334  -39.9692 H         1 HTV         0.0665
     44 H8         46.4983  -82.0009  -41.1128 H         1 HTV         0.0690
     45 H9         48.2520  -83.7234  -40.8977 H         1 HTV         0.0833
     46 H10        48.1819  -79.8752  -37.7317 H         1 HTV         0.0690
     47 H11        45.4908  -76.3753  -39.7014 H         1 HTV         0.0574
     48 H12        42.6614  -76.2456  -39.7973 H         1 HTV         0.2342
     49 H13        37.9258  -80.8630  -38.5885 H         1 HTV         0.0675
     50 H14        35.6727  -84.4210  -39.2255 H         1 HTV         0.2102
     51 H15        37.3745  -83.0594  -36.5912 H         1 HTV         0.2100
     52 H16        38.6902  -81.5929  -36.5384 H         1 HTV         0.2101
     53 H17        51.9146  -83.7803  -37.5120 H         1 HTV         0.0179
     54 H18        51.7721  -82.3103  -38.5345 H         1 HTV         0.0179
     55 H19        52.8573  -85.0673  -39.3558 H         1 HTV         0.0249
     56 H20        53.0818  -83.5028  -40.2094 H         1 HTV         0.0249
     57 H21        50.8508  -83.6300  -41.1950 H         1 HTV         0.0179
     58 H22        50.8202  -85.3487  -40.6738 H         1 HTV         0.0179
     59 H23        48.9869  -85.3157  -38.6517 H         1 HTV         0.1936
@<TRIPOS>BOND
     1    1   14 ar 
     2   15    1 ar 
     3    2    3 1  
     4    8    2 ar 
     5    2   18 ar 
     6    3   12 ar 
     7    3   15 ar 
     8    4    8 ar 
     9    4   16 ar 
    10   21    4 1  
    11    5   20 1  
    12   21    5 2  
    13    6    7 1  
    14    6   11 1  
    15   26    6 1  
    16    7   27 ar 
    17    7   28 ar 
    18    9   11 1  
    19   25    9 1  
    20    9   30 1  
    21   24   10 1  
    22   10   25 1  
    23   10   26 1  
    24   11   29 1  
    25   12   13 ar 
    26   13   14 ar 
    27   14   32 1  
    28   16   17 ar 
    29   20   16 1  
    30   17   18 ar 
    31   18   19 1  
    32   22   21 1  
    33   22   23 2  
    34   22   24 1  
    35   25   31 1  
    36   32   33 1  
    37   32   35 1  
    38   32   36 1  
    39   33   34 1  
    40   34   35 1  
    41    1   37 1  
    42    5   38 1  
    43    6   39 1  
    44    8   40 1  
    45    9   41 1  
    46   10   42 1  
    47   11   43 1  
    48   12   44 1  
    49   13   45 1  
    50   15   46 1  
    51   17   47 1  
    52   20   48 1  
    53   25   49 1  
    54   29   50 1  
    55   30   51 1  
    56   31   52 1  
    57   33   53 1  
    58   33   54 1  
    59   34   55 1  
    60   34   56 1  
    61   35   57 1  
    62   35   58 1  
    63   36   59 1  
@<TRIPOS>SUBSTRUCTURE
     1 HTV         1

