### 
### Created by X-TOOL on Wed Jan  1 15:39:38 2020
### 

@<TRIPOS>MOLECULE
6e4u_ligand
   59    62     1     0     0
SMALL
GAST_HUCK


@<TRIPOS>ATOM
      1 N3         43.1020  -78.0080  -39.9050 N.pl3     1 HU7        -0.2699
      2 C4         49.5580  -82.1510  -38.1620 C.ar      1 HU7        -0.0282
      3 N2         48.7750  -83.3140  -40.1140 N.ar      1 HU7        -0.2597
      4 C7         47.8230  -82.4070  -40.2670 C.ar      1 HU7         0.1580
      5 C6         47.6200  -81.3440  -39.3530 C.ar      1 HU7         0.0201
      6 C9         46.4820  -80.3780  -39.4730 C.ar      1 HU7        -0.0246
      7 C13        45.5990  -78.1120  -39.6610 C.ar      1 HU7        -0.0287
      8 C20        37.5930  -83.4170  -39.6630 C.3       1 HU7         0.1159
      9 C21        37.3190  -83.6580  -41.1480 C.3       1 HU7         0.1214
     10 C8         47.4560  -83.2960  -42.4350 C.3       1 HU7         0.0635
     11 C18        39.8200  -82.4860  -40.2890 C.3       1 HU7         0.2150
     12 C16        42.6690  -80.2070  -39.8670 C.2       1 HU7         0.0622
     13 C19        38.5630  -82.2550  -39.4540 C.3       1 HU7         0.1384
     14 C1         51.0660  -84.6760  -37.6600 C.3       1 HU7         0.0181
     15 N1         50.5840  -84.2500  -38.9620 N.pl3     1 HU7        -0.3027
     16 C2         51.0850  -84.9490  -40.1340 C.3       1 HU7         0.0181
     17 C3         49.6240  -83.2000  -39.0860 C.ar      1 HU7         0.1011
     18 C5         48.5290  -81.2350  -38.2980 C.ar      1 HU7        -0.0564
     19 O1         47.0850  -82.3910  -41.3950 O.3       1 HU7        -0.3039
     20 C10        45.1760  -80.8750  -39.5560 C.ar      1 HU7        -0.0685
     21 C11        44.0890  -80.0180  -39.7050 C.ar      1 HU7        -0.0084
     22 C12        44.3190  -78.6320  -39.7480 C.ar      1 HU7         0.0689
     23 C14        46.6630  -78.9890  -39.5310 C.ar      1 HU7         0.0311
     24 CL1        48.2550  -78.3190  -39.4500 Cl        1 HU7        -0.0802
     25 C15        42.1210  -78.9520  -39.9690 C.2       1 HU7         0.0510
     26 C17        41.9570  -81.4970  -39.9780 C.2       1 HU7         0.2384
     27 O2         42.4940  -82.5760  -39.9110 O.2       1 HU7        -0.3761
     28 O3         40.6310  -81.3150  -40.1440 O.3       1 HU7        -0.2481
     29 C22        38.6530  -83.7440  -41.9270 C.3       1 HU7         0.1423
     30 O4         39.4850  -82.6070  -41.6610 O.3       1 HU7        -0.3248
     31 C23        38.3770  -83.7410  -43.4280 C.2       1 HU7         0.0664
     32 O5         38.3080  -82.7140  -44.0810 O.co2     1 HU7        -0.5662
     33 O6         38.2530  -84.9430  -43.9240 O.co2     1 HU7        -0.5662
     34 O7         36.5950  -84.8750  -41.2980 O.3       1 HU7        -0.3848
     35 O8         36.3700  -83.1870  -38.9690 O.3       1 HU7        -0.3863
     36 O9         38.9010  -82.1290  -38.0750 O.3       1 HU7        -0.3837
     37 H1         42.9561  -76.9901  -39.9646 H         1 HU7         0.2321
     38 H2         50.2883  -82.0588  -37.3663 H         1 HU7         0.0515
     39 H3         45.7650  -77.0413  -39.6939 H         1 HU7         0.0554
     40 H4         38.0572  -84.3246  -39.2498 H         1 HU7         0.0649
     41 H5         36.7204  -82.8259  -41.5470 H         1 HU7         0.0665
     42 H6         46.7724  -83.1742  -43.2882 H         1 HU7         0.0585
     43 H7         47.3955  -84.3288  -42.0613 H         1 HU7         0.0585
     44 H8         48.4859  -83.0823  -42.7570 H         1 HU7         0.0585
     45 H9         40.3539  -83.3837  -39.9440 H         1 HU7         0.0989
     46 H10        38.0803  -81.3239  -39.7857 H         1 HU7         0.0675
     47 H11        51.7942  -85.4906  -37.7872 H         1 HU7         0.0484
     48 H12        50.2197  -85.0321  -37.0542 H         1 HU7         0.0484
     49 H13        51.5492  -83.8281  -37.1525 H         1 HU7         0.0484
     50 H14        50.6330  -84.5175  -41.0393 H         1 HU7         0.0484
     51 H15        50.8223  -86.0149  -40.0654 H         1 HU7         0.0484
     52 H16        52.1788  -84.8434  -40.1843 H         1 HU7         0.0484
     53 H17        48.4280  -80.4281  -37.5813 H         1 HU7         0.0663
     54 H18        45.0083  -81.9447  -39.5034 H         1 HU7         0.0517
     55 H19        41.0587  -78.7419  -40.0841 H         1 HU7         0.1070
     56 H20        39.1796  -84.6665  -41.6412 H         1 HU7         0.0794
     57 H21        36.4133  -85.0226  -42.2186 H         1 HU7         0.2102
     58 H22        35.7831  -83.9201  -39.1124 H         1 HU7         0.2100
     59 H23        39.4897  -81.3922  -37.9604 H         1 HU7         0.2101
@<TRIPOS>BOND
     1    1   22 1  
     2   25    1 1  
     3    2   17 ar 
     4   18    2 ar 
     5    4    3 ar 
     6    3   17 ar 
     7    5    4 ar 
     8    4   19 1  
     9    6    5 1  
    10    5   18 ar 
    11   20    6 ar 
    12    6   23 ar 
    13   22    7 ar 
    14    7   23 ar 
    15    8    9 1  
    16   13    8 1  
    17    8   35 1  
    18    9   29 1  
    19    9   34 1  
    20   19   10 1  
    21   11   13 1  
    22   28   11 1  
    23   11   30 1  
    24   12   21 1  
    25   12   25 2  
    26   26   12 1  
    27   13   36 1  
    28   15   14 1  
    29   15   16 1  
    30   17   15 1  
    31   21   20 ar 
    32   21   22 ar 
    33   23   24 1  
    34   26   27 2  
    35   26   28 1  
    36   29   30 1  
    37   29   31 1  
    38   31   32 ar 
    39   31   33 ar 
    40    1   37 1  
    41    2   38 1  
    42    7   39 1  
    43    8   40 1  
    44    9   41 1  
    45   10   42 1  
    46   10   43 1  
    47   10   44 1  
    48   11   45 1  
    49   13   46 1  
    50   14   47 1  
    51   14   48 1  
    52   14   49 1  
    53   16   50 1  
    54   16   51 1  
    55   16   52 1  
    56   18   53 1  
    57   20   54 1  
    58   25   55 1  
    59   29   56 1  
    60   34   57 1  
    61   35   58 1  
    62   36   59 1  
@<TRIPOS>SUBSTRUCTURE
     1 HU7         1

