### 
### Created by X-TOOL on Wed Jan  1 15:39:37 2020
### 

@<TRIPOS>MOLECULE
6e4w_ligand
   62    66     1     0     0
SMALL
GAST_HUCK


@<TRIPOS>ATOM
      1 C4         48.7710  -82.9440  -39.8500 C.ar      1 HUG        -0.0593
      2 C7         46.5980  -79.9420  -39.3050 C.ar      1 HUG         0.0317
      3 C6         47.7060  -80.8840  -39.2020 C.ar      1 HUG        -0.0311
      4 C9         45.8100  -77.5980  -39.3970 C.ar      1 HUG        -0.0121
      5 C13        42.8080  -79.6310  -39.6240 C.2       1 HUG         0.0611
      6 C20        38.8860  -83.4100  -41.3360 C.3       1 HUG         0.1423
      7 C21        38.8270  -83.6020  -42.8410 C.2       1 HUG         0.0664
      8 C8         46.8250  -78.5410  -39.3020 C.ar      1 HUG         0.1250
      9 C18        37.6040  -82.6760  -39.3430 C.3       1 HUG         0.1159
     10 C16        39.9210  -81.8950  -39.8380 C.3       1 HUG         0.2150
     11 C19        37.4940  -83.0940  -40.8030 C.3       1 HUG         0.1214
     12 C26        51.6070  -85.5810  -37.6490 C.3       1 HUG         0.0506
     13 C1         48.7640  -80.6040  -38.3400 C.ar      1 HUG        -0.0642
     14 C2         49.8240  -81.4950  -38.2360 C.ar      1 HUG        -0.0593
     15 C3         49.8290  -82.6660  -38.9910 C.ar      1 HUG        -0.0160
     16 C5         47.7080  -82.0530  -39.9570 C.ar      1 HUG        -0.0642
     17 C10        44.5100  -78.1040  -39.5000 C.ar      1 HUG         0.0666
     18 C11        44.2280  -79.4900  -39.5070 C.ar      1 HUG         0.0260
     19 C12        45.2890  -80.4050  -39.4090 C.ar      1 HUG         0.1313
     20 F1         45.0250  -81.6960  -39.4160 F         1 HUG        -0.1884
     21 C14        42.2630  -78.3590  -39.6840 C.2       1 HUG         0.0479
     22 N1         43.2960  -77.4230  -39.6090 N.pl3     1 HUG        -0.2726
     23 C15        42.1190  -80.9000  -39.6670 C.2       1 HUG         0.2379
     24 O1         42.6100  -82.0140  -39.6130 O.2       1 HUG        -0.3759
     25 O2         40.7550  -80.7310  -39.7820 O.3       1 HUG        -0.2481
     26 C17        38.5920  -81.5280  -39.1890 C.3       1 HUG         0.1384
     27 O3         39.7230  -82.2540  -41.1930 O.3       1 HUG        -0.3248
     28 O4         38.7700  -82.7540  -43.7080 O.co2     1 HUG        -0.5662
     29 O5         38.8460  -84.9090  -43.1740 O.co2     1 HUG        -0.5662
     30 O6         36.6400  -84.2260  -40.9230 O.3       1 HUG        -0.3848
     31 O7         36.3260  -82.2880  -38.8500 O.3       1 HUG        -0.3863
     32 O8         38.7900  -81.2370  -37.8110 O.3       1 HUG        -0.3837
     33 F2         48.0710  -78.1030  -39.2030 F         1 HUG        -0.1912
     34 C22        50.9880  -83.6200  -38.8640 C.3       1 HUG         0.0918
     35 C23        51.2630  -84.3020  -40.1900 C.3       1 HUG        -0.0166
     36 C24        52.2940  -85.4100  -40.0180 C.3       1 HUG        -0.0468
     37 C25        51.9000  -86.3560  -38.9030 C.3       1 HUG        -0.0290
     38 O9         50.5960  -84.5870  -37.8800 O.3       1 HUG        -0.3643
     39 H1         48.7747  -83.8556  -40.4365 H         1 HUG         0.0554
     40 H2         46.0130  -76.5332  -39.3917 H         1 HUG         0.0492
     41 H3         39.3065  -84.2891  -40.8258 H         1 HUG         0.0794
     42 H4         37.9652  -83.5336  -38.7565 H         1 HUG         0.0649
     43 H5         40.3898  -82.7296  -39.2961 H         1 HUG         0.0989
     44 H6         37.0671  -82.2640  -41.3850 H         1 HUG         0.0665
     45 H7         52.5281  -85.0845  -37.3100 H         1 HUG         0.0562
     46 H8         51.2570  -86.2754  -36.8710 H         1 HUG         0.0562
     47 H9         48.7598  -79.6932  -37.7522 H         1 HUG         0.0585
     48 H10        50.6487  -81.2792  -37.5665 H         1 HUG         0.0554
     49 H11        46.8834  -82.2688  -40.6267 H         1 HUG         0.0585
     50 H12        41.2028  -78.1272  -39.7748 H         1 HUG         0.1040
     51 H13        43.1816  -76.3996  -39.6305 H         1 HUG         0.2312
     52 H14        38.1844  -80.6363  -39.6877 H         1 HUG         0.0675
     53 H15        35.7762  -84.0058  -40.5947 H         1 HUG         0.2102
     54 H16        35.7167  -83.0100  -38.9501 H         1 HUG         0.2100
     55 H17        39.3928  -80.5077  -37.7259 H         1 HUG         0.2101
     56 H18        51.8898  -83.0831  -38.5346 H         1 HUG         0.0758
     57 H19        51.6457  -83.5598  -40.9060 H         1 HUG         0.0312
     58 H20        50.3279  -84.7347  -40.5750 H         1 HUG         0.0312
     59 H21        53.2685  -84.9594  -39.7787 H         1 HUG         0.0268
     60 H22        52.3726  -85.9761  -40.9578 H         1 HUG         0.0268
     61 H23        51.0026  -86.9174  -39.2021 H         1 HUG         0.0287
     62 H24        52.7252  -87.0580  -38.7127 H         1 HUG         0.0287
@<TRIPOS>BOND
     1   15    1 ar 
     2    1   16 ar 
     3    3    2 1  
     4    2    8 ar 
     5    2   19 ar 
     6   13    3 ar 
     7   16    3 ar 
     8    8    4 ar 
     9    4   17 ar 
    10   18    5 1  
    11    5   21 2  
    12    5   23 1  
    13    6    7 1  
    14    6   11 1  
    15   27    6 1  
    16    7   28 ar 
    17    7   29 ar 
    18    8   33 1  
    19    9   11 1  
    20   26    9 1  
    21    9   31 1  
    22   25   10 1  
    23   10   26 1  
    24   10   27 1  
    25   11   30 1  
    26   12   37 1  
    27   38   12 1  
    28   14   13 ar 
    29   15   14 ar 
    30   34   15 1  
    31   18   17 ar 
    32   17   22 1  
    33   19   18 ar 
    34   19   20 1  
    35   22   21 1  
    36   23   24 2  
    37   23   25 1  
    38   26   32 1  
    39   34   35 1  
    40   34   38 1  
    41   35   36 1  
    42   36   37 1  
    43    1   39 1  
    44    4   40 1  
    45    6   41 1  
    46    9   42 1  
    47   10   43 1  
    48   11   44 1  
    49   12   45 1  
    50   12   46 1  
    51   13   47 1  
    52   14   48 1  
    53   16   49 1  
    54   21   50 1  
    55   22   51 1  
    56   26   52 1  
    57   30   53 1  
    58   31   54 1  
    59   32   55 1  
    60   34   56 1  
    61   35   57 1  
    62   35   58 1  
    63   36   59 1  
    64   36   60 1  
    65   37   61 1  
    66   37   62 1  
@<TRIPOS>SUBSTRUCTURE
     1 HUG         1

