### 
### Created by X-TOOL on Wed Jan  1 15:39:38 2020
### 

@<TRIPOS>MOLECULE
6e59_ligand
   70    73     1     0     0
SMALL
GAST_HUCK


@<TRIPOS>ATOM
      1 F7        -12.9740   53.0850   55.7000 F         1 L76        -0.1893
      2 C11       -14.2790   53.4530   55.7840 C.ar      1 L76         0.1248
      3 C10       -15.2620   52.5270   56.1470 C.ar      1 L76        -0.0347
      4 C9        -16.5990   52.9230   56.2260 C.ar      1 L76        -0.0565
      5 C12       -14.6340   54.7690   55.5010 C.ar      1 L76        -0.0347
      6 C13       -15.9650   55.1560   55.5750 C.ar      1 L76        -0.0565
      7 C8        -16.9570   54.2480   55.9430 C.ar      1 L76         0.0055
      8 C1        -18.2860   54.7170   56.0110 C.3       1 L76         0.0644
      9 N1        -19.1830   54.1740   57.0530 N.4       1 L76         0.2611
     10 C5        -18.6230   54.1610   58.4390 C.3       1 L76         0.0007
     11 C6        -17.8750   55.4280   58.8490 C.2       1 L76         0.0837
     12 C7        -18.3610   56.4650   59.4940 C.2       1 L76         0.1343
     13 C24       -19.7850   56.6710   60.0130 C.3       1 L76         0.0273
     14 N5        -19.7920   56.6370   61.4920 N.4       1 L76         0.2444
     15 C26       -21.1660   56.8180   61.9900 C.3       1 L76        -0.0419
     16 C25       -19.1910   55.3900   62.0200 C.3       1 L76        -0.0419
     17 N4        -17.3580   57.3090   59.6440 N.pl3     1 L76        -0.1873
     18 N3        -16.3340   56.7790   59.0990 N.2       1 L76        -0.1183
     19 N2        -16.5900   55.6760   58.6280 N.2       1 L76        -0.2350
     20 C4        -20.5160   54.8290   56.9800 C.3       1 L76        -0.0052
     21 C3        -21.1000   54.6560   55.5850 C.3       1 L76         0.0909
     22 O1        -20.1890   55.2050   54.6760 O.3       1 L76        -0.3395
     23 C2        -18.9560   54.4820   54.6780 C.3       1 L76         0.2149
     24 O2        -19.2050   53.0610   54.5220 O.3       1 L76        -0.3277
     25 C14       -19.4100   52.7110   53.1560 C.3       1 L76         0.1044
     26 C21       -20.1460   51.3760   53.0700 C.3       1 L76        -0.0275
     27 C15       -18.1530   52.6660   52.5580 C.ar      1 L76         0.0389
     28 C20       -17.8860   53.5540   51.5270 C.ar      1 L76        -0.0031
     29 C19       -16.6350   53.5520   50.9350 C.ar      1 L76         0.0730
     30 C23       -16.3770   54.4420   49.9220 C.3       1 L76         0.3832
     31 F6        -15.0880   54.5090   49.7510 F         1 L76        -0.2187
     32 F5        -16.8510   55.6820   50.3220 F         1 L76        -0.2187
     33 F4        -16.9760   54.0490   48.8040 F         1 L76        -0.2187
     34 C18       -15.6450   52.6820   51.3750 C.ar      1 L76        -0.0039
     35 C17       -15.9030   51.7950   52.4100 C.ar      1 L76         0.0730
     36 C16       -17.1610   51.7980   53.0140 C.ar      1 L76        -0.0031
     37 C22       -14.8860   50.9400   52.8280 C.3       1 L76         0.3832
     38 F1        -14.6320   50.0250   51.8590 F         1 L76        -0.2187
     39 F2        -13.7950   51.6430   53.0550 F         1 L76        -0.2187
     40 F3        -15.2380   50.3310   53.9580 F         1 L76        -0.2187
     41 H1        -14.9863   51.5020   56.3670 H         1 L76         0.0587
     42 H2        -17.3607   52.2046   56.5066 H         1 L76         0.0549
     43 H3        -13.8731   55.4895   55.2236 H         1 L76         0.0587
     44 H4        -16.2372   56.1794   55.3432 H         1 L76         0.0549
     45 H5        -18.2218   55.8011   56.1856 H         1 L76         0.1060
     46 H6        -19.3283   53.2056   56.8138 H         1 L76         0.2061
     47 H7        -17.9257   53.3138   58.5166 H         1 L76         0.0905
     48 H8        -19.4566   54.0153   59.1417 H         1 L76         0.0905
     49 H9        -20.4333   55.8707   59.6268 H         1 L76         0.1001
     50 H10       -20.1612   57.6457   59.6689 H         1 L76         0.1001
     51 H11       -19.2349   57.4091   61.8229 H         1 L76         0.2043
     52 H12       -21.1638   56.7917   63.0897 H         1 L76         0.0778
     53 H13       -21.8050   56.0096   61.6052 H         1 L76         0.0778
     54 H14       -21.5555   57.7879   61.6472 H         1 L76         0.0778
     55 H15       -18.1676   55.2831   61.6313 H         1 L76         0.0778
     56 H16       -19.7959   54.5281   61.7019 H         1 L76         0.0778
     57 H17       -19.1632   55.4330   63.1188 H         1 L76         0.0778
     58 H18       -17.3951   58.2250   60.1136 H         1 L76         0.2615
     59 H19       -20.4085   55.9013   57.2004 H         1 L76         0.0837
     60 H20       -21.1899   54.3688   57.7176 H         1 L76         0.0837
     61 H21       -22.0640   55.1810   55.5138 H         1 L76         0.0614
     62 H22       -21.2476   53.5875   55.3696 H         1 L76         0.0614
     63 H23       -18.3115   54.8376   53.8606 H         1 L76         0.0996
     64 H24       -20.0194   53.4816   52.6613 H         1 L76         0.0768
     65 H25       -20.3017   51.1105   52.0139 H         1 L76         0.0277
     66 H26       -21.1200   51.4611   53.5741 H         1 L76         0.0277
     67 H27       -19.5466   50.5946   53.5599 H         1 L76         0.0277
     68 H28       -18.6504   54.2437   51.1877 H         1 L76         0.0992
     69 H29       -14.6670   52.6964   50.9076 H         1 L76         0.1095
     70 H30       -17.3674   51.1251   53.8384 H         1 L76         0.0992
@<TRIPOS>BOND
     1    1    2 1  
     2    2    3 ar 
     3    2    5 ar 
     4    3    4 ar 
     5    4    7 ar 
     6    5    6 ar 
     7    6    7 ar 
     8    7    8 1  
     9    8    9 1  
    10    8   23 1  
    11    9   10 1  
    12    9   20 1  
    13   10   11 1  
    14   11   12 2  
    15   11   19 1  
    16   12   13 1  
    17   12   17 1  
    18   13   14 1  
    19   14   15 1  
    20   14   16 1  
    21   17   18 1  
    22   18   19 2  
    23   20   21 1  
    24   21   22 1  
    25   22   23 1  
    26   23   24 1  
    27   24   25 1  
    28   25   26 1  
    29   25   27 1  
    30   27   28 ar 
    31   27   36 ar 
    32   28   29 ar 
    33   29   30 1  
    34   29   34 ar 
    35   30   31 1  
    36   30   32 1  
    37   30   33 1  
    38   34   35 ar 
    39   35   36 ar 
    40   35   37 1  
    41   37   38 1  
    42   37   39 1  
    43   37   40 1  
    44    3   41 1  
    45    4   42 1  
    46    5   43 1  
    47    6   44 1  
    48    8   45 1  
    49    9   46 1  
    50   10   47 1  
    51   10   48 1  
    52   13   49 1  
    53   13   50 1  
    54   14   51 1  
    55   15   52 1  
    56   15   53 1  
    57   15   54 1  
    58   16   55 1  
    59   16   56 1  
    60   16   57 1  
    61   17   58 1  
    62   20   59 1  
    63   20   60 1  
    64   21   61 1  
    65   21   62 1  
    66   23   63 1  
    67   25   64 1  
    68   26   65 1  
    69   26   66 1  
    70   26   67 1  
    71   28   68 1  
    72   34   69 1  
    73   36   70 1  
@<TRIPOS>SUBSTRUCTURE
     1 L76         1

