### 
### Created by X-TOOL on Mon Aug  2 16:10:03 2021
### 

@<TRIPOS>MOLECULE
6e5g_ligand
   32    33     1     0     0
SMALL
GAST_HUCK


@<TRIPOS>ATOM
      1 C3         23.6050   -7.3210   16.0290 C.3       1 HUY         0.0085
      2 C4         24.4980   -7.3290   17.2610 C.2       1 HUY         0.1225
      3 O1         25.5810   -6.8520   17.2130 O.2       1 HUY        -0.3863
      4 C5         23.9850   -7.9410   18.5610 C.ar      1 HUY         0.0538
      5 C6         22.8000   -7.5010   19.1280 C.ar      1 HUY        -0.0532
      6 C7         22.3530   -8.0680   20.3110 C.ar      1 HUY        -0.0680
      7 C8         23.0930   -9.0700   20.9210 C.ar      1 HUY        -0.0675
      8 C9         24.2770   -9.5100   20.3510 C.ar      1 HUY        -0.0333
      9 C10        24.7190   -8.9430   19.1670 C.ar      1 HUY         0.0785
     10 N2         25.9550   -9.3700   18.5440 N.pl3     1 HUY        -0.2652
     11 C11        26.3420  -10.7630   18.4410 C.ar      1 HUY         0.0893
     12 C12        27.4250  -11.2050   19.1820 C.ar      1 HUY        -0.0097
     13 C13        27.8270  -12.5280   19.0980 C.ar      1 HUY        -0.0404
     14 C14        27.1500  -13.4010   18.2630 C.ar      1 HUY        -0.0422
     15 C15        26.0670  -12.9670   17.5170 C.ar      1 HUY         0.0371
     16 C16        25.3480  -13.9680   16.6090 C.3       1 HUY         0.3736
     17 F1         25.7780  -13.8450   15.3180 F         1 HUY        -0.2207
     18 F2         24.0000  -13.7560   16.6680 F         1 HUY        -0.2207
     19 F3         25.6340  -15.2360   17.0240 F         1 HUY        -0.2207
     20 C17        25.6630  -11.6400   17.6020 C.ar      1 HUY        -0.0101
     21 H1         22.6465   -7.8051   16.2678 H         1 HUY         0.0446
     22 H2         24.0998   -7.8695   15.2139 H         1 HUY         0.0446
     23 H3         23.4230   -6.2827   15.7147 H         1 HUY         0.0446
     24 H4         22.2251   -6.7169   18.6486 H         1 HUY         0.0639
     25 H5         21.4261   -7.7287   20.7590 H         1 HUY         0.0527
     26 H6         22.7437   -9.5109   21.8477 H         1 HUY         0.0623
     27 H7         24.8540  -10.2934   20.8290 H         1 HUY         0.0543
     28 H8         26.5858   -8.6532   18.1577 H         1 HUY         0.2110
     29 H9         27.9579  -10.5162   19.8274 H         1 HUY         0.0784
     30 H10        28.6688  -12.8788   19.6840 H         1 HUY         0.0671
     31 H11        27.4709  -14.4340   18.1926 H         1 HUY         0.0764
     32 H12        24.8211  -11.2895   17.0160 H         1 HUY         0.0745
@<TRIPOS>BOND
     1    1    2 1  
     2    2    3 2  
     3    2    4 1  
     4    4    5 ar 
     5    4    9 ar 
     6    5    6 ar 
     7    6    7 ar 
     8    7    8 ar 
     9    8    9 ar 
    10    9   10 1  
    11   10   11 1  
    12   11   12 ar 
    13   11   20 ar 
    14   12   13 ar 
    15   13   14 ar 
    16   14   15 ar 
    17   15   16 1  
    18   15   20 ar 
    19   16   17 1  
    20   16   18 1  
    21   16   19 1  
    22    1   21 1  
    23    1   22 1  
    24    1   23 1  
    25    5   24 1  
    26    6   25 1  
    27    7   26 1  
    28    8   27 1  
    29   10   28 1  
    30   12   29 1  
    31   13   30 1  
    32   14   31 1  
    33   20   32 1  
@<TRIPOS>SUBSTRUCTURE
     1 HUY         1

