### 
### Created by X-TOOL on Mon Aug  2 16:13:10 2021
### 

@<TRIPOS>MOLECULE
6e5l_ligand
   53    54     1     0     0
SMALL
GAST_HUCK


@<TRIPOS>ATOM
      1 C01       -12.1440   -6.5040   18.6740 C.2       1 HVD        -0.0818
      2 C02       -12.8520   -7.7210   19.2490 C.3       1 HVD        -0.0256
      3 C03       -14.0660   -8.1840   18.4430 C.3       1 HVD        -0.0272
      4 C04       -13.7390   -8.1860   16.9650 C.3       1 HVD         0.0066
      5 C05       -13.4460   -6.7400   16.5550 C.3       1 HVD         0.0036
      6 C06       -12.3750   -6.1010   17.4360 C.2       1 HVD        -0.0966
      7 C07       -11.1820   -5.7310   19.5720 C.3       1 HVD        -0.0400
      8 C08       -13.0180   -6.6420   15.0860 C.ar      1 HVD        -0.0139
      9 C09       -14.8850   -8.7510   16.1300 C.2       1 HVD        -0.0705
     10 C10       -14.5320   -9.7050   14.9930 C.3       1 HVD        -0.0295
     11 C11       -16.1470   -8.4260   16.3630 C.2       1 HVD        -0.1288
     12 C12       -13.7940   -5.9000   14.1640 C.ar      1 HVD        -0.0562
     13 C13       -13.3900   -5.8190   12.8470 C.ar      1 HVD        -0.0494
     14 C14       -12.2700   -6.4290   12.4220 C.ar      1 HVD         0.0658
     15 C15       -11.5090   -7.1630   13.2630 C.ar      1 HVD        -0.0186
     16 C16       -11.8490   -7.2760   14.5940 C.ar      1 HVD         0.0763
     17 O01       -11.0470   -8.0190   15.4590 O.3       1 HVD        -0.3411
     18 O02       -11.8950   -6.3290   11.0710 O.3       1 HVD        -0.3418
     19 C17       -15.0580   -5.1590   14.5690 C.3       1 HVD        -0.0263
     20 C18       -14.7350   -3.8840   15.3650 C.3       1 HVD        -0.0447
     21 C19       -14.0170   -2.8310   14.5180 C.3       1 HVD        -0.0517
     22 C20       -13.7750   -1.5630   15.3550 C.3       1 HVD        -0.0558
     23 C21       -12.6530   -1.7980   16.3600 C.3       1 HVD        -0.0653
     24 H1        -13.1884   -7.4745   20.2669 H         1 HVD         0.0414
     25 H2        -12.1308   -8.5504   19.2919 H         1 HVD         0.0414
     26 H3        -14.9079   -7.5008   18.6284 H         1 HVD         0.0318
     27 H4        -14.3437   -9.2014   18.7555 H         1 HVD         0.0318
     28 H5        -12.8444   -8.8030   16.7949 H         1 HVD         0.0530
     29 H6        -14.3758   -6.1654   16.6787 H         1 HVD         0.0508
     30 H7        -11.7801   -5.2841   17.0302 H         1 HVD         0.0259
     31 H8        -10.7559   -4.8860   19.0113 H         1 HVD         0.0377
     32 H9        -10.3718   -6.3981   19.9016 H         1 HVD         0.0377
     33 H10       -11.7249   -5.3517   20.4503 H         1 HVD         0.0377
     34 H11       -15.4531  -10.0270   14.4852 H         1 HVD         0.0425
     35 H12       -14.0114  -10.5842   15.4003 H         1 HVD         0.0425
     36 H13       -13.8770   -9.1917   14.2736 H         1 HVD         0.0425
     37 H14       -16.3925   -7.7445   17.1761 H         1 HVD         0.0075
     38 H15       -16.9396   -8.8402   15.7415 H         1 HVD         0.0075
     39 H16       -13.9872   -5.2526   12.1416 H         1 HVD         0.0374
     40 H17       -10.6251   -7.6665   12.8885 H         1 HVD         0.0392
     41 H18       -10.1728   -7.6476   15.4760 H         1 HVD         0.2453
     42 H19       -12.5218   -5.7848   10.6090 H         1 HVD         0.2456
     43 H20       -15.6765   -5.8218   15.1920 H         1 HVD         0.0408
     44 H21       -15.6158   -4.8822   13.6622 H         1 HVD         0.0408
     45 H22       -14.0905   -4.1525   16.2150 H         1 HVD         0.0286
     46 H23       -15.6757   -3.4540   15.7395 H         1 HVD         0.0286
     47 H24       -14.6378   -2.5792   13.6455 H         1 HVD         0.0267
     48 H25       -13.0515   -3.2331   14.1774 H         1 HVD         0.0267
     49 H26       -14.6974   -1.3033   15.8952 H         1 HVD         0.0263
     50 H27       -13.4959   -0.7350   14.6868 H         1 HVD         0.0263
     51 H28       -12.4919   -0.8838   16.9501 H         1 HVD         0.0230
     52 H29       -11.7280   -2.0557   15.8233 H         1 HVD         0.0230
     53 H30       -12.9295   -2.6240   17.0317 H         1 HVD         0.0230
@<TRIPOS>BOND
     1    1    2 1  
     2    1    6 2  
     3    1    7 1  
     4    2    3 1  
     5    3    4 1  
     6    4    5 1  
     7    4    9 1  
     8    5    6 1  
     9    5    8 1  
    10    8   12 ar 
    11    8   16 ar 
    12    9   10 1  
    13    9   11 2  
    14   12   13 ar 
    15   12   19 1  
    16   13   14 ar 
    17   14   15 ar 
    18   14   18 1  
    19   15   16 ar 
    20   16   17 1  
    21   19   20 1  
    22   20   21 1  
    23   21   22 1  
    24   22   23 1  
    25    2   24 1  
    26    2   25 1  
    27    3   26 1  
    28    3   27 1  
    29    4   28 1  
    30    5   29 1  
    31    6   30 1  
    32    7   31 1  
    33    7   32 1  
    34    7   33 1  
    35   10   34 1  
    36   10   35 1  
    37   10   36 1  
    38   11   37 1  
    39   11   38 1  
    40   13   39 1  
    41   15   40 1  
    42   17   41 1  
    43   18   42 1  
    44   19   43 1  
    45   19   44 1  
    46   20   45 1  
    47   20   46 1  
    48   21   47 1  
    49   21   48 1  
    50   22   49 1  
    51   22   50 1  
    52   23   51 1  
    53   23   52 1  
    54   23   53 1  
@<TRIPOS>SUBSTRUCTURE
     1 HVD         1

