### 
### Created by X-TOOL on Mon Aug  2 16:13:10 2021
### 

@<TRIPOS>MOLECULE
6e5t_ligand
   41    42     1     0     0
SMALL
GAST_HUCK


@<TRIPOS>ATOM
      1 C11        14.2790   46.2180  106.2370 C.ar      1 HVJ        -0.0593
      2 C12        11.3750   46.2000  111.5760 C.3       1 HVJ        -0.0400
      3 C13        12.2790   47.5930  106.5690 C.ar      1 HVJ         0.0763
      4 C14        15.0580   50.0390  106.9330 C.3       1 HVJ        -0.0295
      5 C15        16.4740   48.7210  108.3670 C.2       1 HVJ        -0.1288
      6 C16        13.9240   46.1090  104.9150 C.ar      1 HVJ        -0.0497
      7 C17        11.9660   47.4850  105.2220 C.ar      1 HVJ        -0.0186
      8 C18        15.5480   45.4760  106.6650 C.3       1 HVJ        -0.0384
      9 C19        12.7780   46.7220  104.4040 C.ar      1 HVJ         0.0658
     10 C10        15.2330   49.1220  108.1080 C.2       1 HVJ        -0.0705
     11 O01        11.4950   48.3260  107.3810 O.3       1 HVJ        -0.3411
     12 O02        12.4410   46.6200  103.0900 O.3       1 HVJ        -0.3418
     13 C03        14.0320   48.6370  108.9480 C.3       1 HVJ         0.0066
     14 C04        13.7010   47.1780  108.5890 C.3       1 HVJ         0.0036
     15 C05        14.2240   48.7060  110.4550 C.3       1 HVJ        -0.0272
     16 C06        13.0080   48.2310  111.2490 C.3       1 HVJ        -0.0256
     17 C07        12.6610   46.5830  109.4530 C.2       1 HVJ        -0.0966
     18 C08        12.3600   46.9700  110.7100 C.2       1 HVJ        -0.0818
     19 C09        13.4580   46.9920  107.1280 C.ar      1 HVJ        -0.0141
     20 H1         11.2843   46.6931  112.5551 H         1 HVJ         0.0377
     21 H2         11.7366   45.1706  111.7160 H         1 HVJ         0.0377
     22 H3         10.3917   46.1795  111.0833 H         1 HVJ         0.0377
     23 H4         16.0398   50.2532  106.4857 H         1 HVJ         0.0425
     24 H5         14.5944   50.9789  107.2672 H         1 HVJ         0.0425
     25 H6         14.4116   49.5570  106.1848 H         1 HVJ         0.0425
     26 H7         16.6669   48.0546  109.2065 H         1 HVJ         0.0075
     27 H8         17.2975   49.0589  107.7397 H         1 HVJ         0.0075
     28 H9         14.5522   45.5297  104.2480 H         1 HVJ         0.0374
     29 H10        11.0974   47.9915  104.8168 H         1 HVJ         0.0392
     30 H11        15.9848   44.9645  105.7946 H         1 HVJ         0.0373
     31 H12        15.2964   44.7347  107.4377 H         1 HVJ         0.0373
     32 H13        16.2746   46.1957  107.0700 H         1 HVJ         0.0373
     33 H14        10.6143   47.9698  107.3753 H         1 HVJ         0.2453
     34 H15        13.0757   46.0724  102.6431 H         1 HVJ         0.2456
     35 H16        13.1720   49.2720  108.6890 H         1 HVJ         0.0530
     36 H17        14.6161   46.6077  108.8064 H         1 HVJ         0.0508
     37 H18        14.4337   49.7498  110.7314 H         1 HVJ         0.0318
     38 H19        15.0837   48.0753  110.7253 H         1 HVJ         0.0318
     39 H20        12.2566   49.0343  111.2405 H         1 HVJ         0.0414
     40 H21        13.3270   48.0382  112.2839 H         1 HVJ         0.0414
     41 H22        12.0851   45.7572  109.0378 H         1 HVJ         0.0259
@<TRIPOS>BOND
     1    1    6 ar 
     2    1    8 1  
     3   19    1 ar 
     4   18    2 1  
     5    3    7 ar 
     6    3   11 1  
     7   19    3 ar 
     8   10    4 1  
     9   10    5 2  
    10    6    9 ar 
    11    7    9 ar 
    12    9   12 1  
    13   13   10 1  
    14   13   14 1  
    15   15   13 1  
    16   14   17 1  
    17   14   19 1  
    18   16   15 1  
    19   16   18 1  
    20   17   18 2  
    21    2   20 1  
    22    2   21 1  
    23    2   22 1  
    24    4   23 1  
    25    4   24 1  
    26    4   25 1  
    27    5   26 1  
    28    5   27 1  
    29    6   28 1  
    30    7   29 1  
    31    8   30 1  
    32    8   31 1  
    33    8   32 1  
    34   11   33 1  
    35   12   34 1  
    36   13   35 1  
    37   14   36 1  
    38   15   37 1  
    39   15   38 1  
    40   16   39 1  
    41   16   40 1  
    42   17   41 1  
@<TRIPOS>SUBSTRUCTURE
     1 HVJ         1

