### 
### Created by X-TOOL on Mon Aug  2 16:13:10 2021
### 

@<TRIPOS>MOLECULE
6e6j_ligand
   66    69     1     0     0
SMALL
GAST_HUCK


@<TRIPOS>ATOM
      1 N1         23.9150   -8.7110   -4.3290 N.am      1 HWV        -0.2154
      2 C4         21.7690   -9.3450   -7.8820 C.2       1 HWV        -0.0484
      3 C5         22.4870   -9.4020   -6.6590 C.2       1 HWV        -0.0252
      4 C6         22.7360  -10.3770   -5.6160 C.2       1 HWV        -0.0072
      5 C7         23.4170   -9.9760   -4.5020 C.2       1 HWV         0.0574
      6 C8         24.6430   -8.3710   -3.1060 C.3       1 HWV         0.0551
      7 C10        22.9930   -8.1120   -6.4370 C.2       1 HWV         0.1340
      8 C13        22.4910  -14.1820   -5.6930 C.ar      1 HWV        -0.0536
      9 C15        20.2900  -13.2420   -6.0560 C.ar      1 HWV         0.0037
     10 C17        18.6100  -10.9120   -6.0930 C.ar      1 HWV         0.1294
     11 C20        16.5640  -10.8750   -4.8600 C.ar      1 HWV        -0.0390
     12 C21        15.9080  -11.0930   -6.0490 C.ar      1 HWV         0.1106
     13 C22        16.5490  -11.2200   -7.2580 C.ar      1 HWV        -0.0390
     14 C24        18.6620  -11.2020   -8.6240 C.3       1 HWV        -0.0337
     15 C26        23.1240  -16.2470   -4.3620 C.3       1 HWV        -0.0723
     16 N          21.2240   -6.2600   -9.7990 N.am      1 HWV        -0.2860
     17 C          21.0530   -4.1920  -11.0910 C.3       1 HWV        -0.0450
     18 O          20.6520   -8.3620  -10.3620 O.2       1 HWV        -0.3868
     19 C1         20.6400   -5.6290  -10.9790 C.3       1 HWV         0.0273
     20 C11        22.1810  -11.7540   -5.7340 C.ar      1 HWV         0.0247
     21 C12        23.0020  -12.8850   -5.6000 C.ar      1 HWV        -0.0533
     22 C14        21.1240  -14.3370   -5.9150 C.ar      1 HWV        -0.0489
     23 C16        20.8140  -11.9550   -5.9680 C.ar      1 HWV         0.1531
     24 C18        17.9520  -10.7620   -4.8620 C.ar      1 HWV        -0.0156
     25 C19        18.6820  -10.3890   -3.5980 C.3       1 HWV        -0.0337
     26 C2         21.1680   -7.5730   -9.5760 C.2       1 HWV         0.2234
     27 C23        17.9370  -11.1290   -7.3040 C.ar      1 HWV        -0.0156
     28 C25        23.3970  -15.4130   -5.6120 C.3       1 HWV         0.0285
     29 C27        23.2540  -16.2780   -6.8620 C.3       1 HWV        -0.0723
     30 C3         21.8320   -8.0620   -8.3570 C.2       1 HWV         0.1295
     31 C9         23.7520   -7.6960   -5.2860 C.2       1 HWV         0.2439
     32 F          14.5510  -11.1800   -6.0280 F         1 HWV        -0.1940
     33 N2         22.5800   -7.3160   -7.4780 N.pl3     1 HWV        -0.2683
     34 O1         24.2540   -6.5880   -5.1030 O.2       1 HWV        -0.4018
     35 O2         19.9970  -10.8260   -6.1160 O.3       1 HWV        -0.2400
     36 O3         24.7840  -15.0170   -5.5400 O.3       1 HWV        -0.4401
     37 H1         21.2562  -10.1781   -8.3604 H         1 HWV         0.0379
     38 H2         23.5731  -10.7027   -3.7061 H         1 HWV         0.1103
     39 H3         24.6941   -9.2542   -2.4522 H         1 HWV         0.0596
     40 H4         24.1203   -7.5570   -2.5824 H         1 HWV         0.0596
     41 H5         25.6618   -8.0464   -3.3640 H         1 HWV         0.0596
     42 H6         19.2305  -13.3858   -6.2347 H         1 HWV         0.0650
     43 H7         16.0078  -10.7922   -3.9333 H         1 HWV         0.0466
     44 H8         15.9802  -11.3891   -8.1652 H         1 HWV         0.0466
     45 H9         19.7449  -11.1118   -8.4530 H         1 HWV         0.0372
     46 H10        18.3238  -10.3815   -9.2740 H         1 HWV         0.0372
     47 H11        18.4463  -12.1660   -9.1080 H         1 HWV         0.0372
     48 H12        23.7965  -17.1173   -4.3478 H         1 HWV         0.0123
     49 H13        22.0793  -16.5911   -4.3717 H         1 HWV         0.0123
     50 H14        23.2996  -15.6333   -3.4662 H         1 HWV         0.0123
     51 H15        21.6869   -5.6810   -9.1278 H         1 HWV         0.1840
     52 H16        20.5967   -3.7482  -11.9882 H         1 HWV         0.0249
     53 H17        22.1485   -4.1303  -11.1681 H         1 HWV         0.0249
     54 H18        20.7167   -3.6432  -10.1990 H         1 HWV         0.0249
     55 H19        19.5436   -5.6818  -10.9076 H         1 HWV         0.0516
     56 H20        20.9755   -6.1689  -11.8767 H         1 HWV         0.0516
     57 H21        24.0620  -12.7481   -5.4193 H         1 HWV         0.0678
     58 H22        20.7058  -15.3351   -5.9785 H         1 HWV         0.0799
     59 H23        19.7632  -10.3499   -3.7969 H         1 HWV         0.0372
     60 H24        18.4790  -11.1414   -2.8217 H         1 HWV         0.0372
     61 H25        18.3369   -9.4033   -3.2525 H         1 HWV         0.0372
     62 H26        23.4527  -15.6674   -7.7551 H         1 HWV         0.0123
     63 H27        22.2320  -16.6816   -6.9137 H         1 HWV         0.0123
     64 H28        23.9743  -17.1082   -6.8178 H         1 HWV         0.0123
     65 H29        22.7974   -6.3147   -7.5833 H         1 HWV         0.2320
     66 H30        24.9260  -14.5068   -4.7513 H         1 HWV         0.1907
@<TRIPOS>BOND
     1    5    1 1  
     2    1    6 1  
     3   31    1 am 
     4    2    3 1  
     5   30    2 2  
     6    3    4 1  
     7    3    7 2  
     8    4    5 2  
     9    4   20 1  
    10    7   31 1  
    11    7   33 1  
    12   21    8 ar 
    13    8   22 ar 
    14    8   28 1  
    15    9   22 ar 
    16   23    9 ar 
    17   10   24 ar 
    18   10   27 ar 
    19   35   10 1  
    20   11   12 ar 
    21   24   11 ar 
    22   13   12 ar 
    23   12   32 1  
    24   27   13 ar 
    25   27   14 1  
    26   28   15 1  
    27   16   19 1  
    28   26   16 am 
    29   19   17 1  
    30   26   18 2  
    31   20   21 ar 
    32   20   23 ar 
    33   23   35 1  
    34   24   25 1  
    35   26   30 1  
    36   28   29 1  
    37   28   36 1  
    38   30   33 1  
    39   31   34 2  
    40    2   37 1  
    41    5   38 1  
    42    6   39 1  
    43    6   40 1  
    44    6   41 1  
    45    9   42 1  
    46   11   43 1  
    47   13   44 1  
    48   14   45 1  
    49   14   46 1  
    50   14   47 1  
    51   15   48 1  
    52   15   49 1  
    53   15   50 1  
    54   16   51 1  
    55   17   52 1  
    56   17   53 1  
    57   17   54 1  
    58   19   55 1  
    59   19   56 1  
    60   21   57 1  
    61   22   58 1  
    62   25   59 1  
    63   25   60 1  
    64   25   61 1  
    65   29   62 1  
    66   29   63 1  
    67   29   64 1  
    68   33   65 1  
    69   36   66 1  
@<TRIPOS>SUBSTRUCTURE
     1 HWV         1

