### 
### Created by X-TOOL on Mon Aug  2 16:13:10 2021
### 

@<TRIPOS>MOLECULE
6e6m_ligand
   41    42     1     0     0
SMALL
GAST_HUCK


@<TRIPOS>ATOM
      1 O01        -6.6210   10.4020    5.1410 O.3       1 MOL        -0.3413
      2 O02        -2.9880    8.7960    2.4950 O.3       1 MOL        -0.3413
      3 C03        -5.7390    7.5550    2.3430 C.3       1 MOL         0.0066
      4 C04        -5.4350    8.0780    3.7970 C.3       1 MOL         0.0060
      5 C05        -6.2080    6.1230    2.4560 C.3       1 MOL        -0.0272
      6 C06        -5.0470    5.2610    2.8930 C.3       1 MOL        -0.0256
      7 C07        -4.5780    7.1060    4.5300 C.2       1 MOL        -0.0966
      8 C08        -4.3810    5.8150    4.1510 C.2       1 MOL        -0.0819
      9 C09        -4.8400    9.5120    3.8080 C.ar      1 MOL         0.0166
     10 C10        -6.7830    8.3990    1.6370 C.2       1 MOL        -0.0705
     11 C11        -3.6000    4.8790    5.0300 C.3       1 MOL        -0.0400
     12 C12        -5.3940   10.6530    4.4210 C.ar      1 MOL         0.0761
     13 C13        -3.6650    9.8810    3.1850 C.ar      1 MOL         0.0761
     14 C14        -8.1940    8.5240    2.1590 C.3       1 MOL        -0.0295
     15 C15        -6.4330    9.0900    0.5070 C.2       1 MOL        -0.1288
     16 C16        -4.9040   11.9400    4.4510 C.ar      1 MOL        -0.0495
     17 C17        -3.0980   11.1000    3.0990 C.ar      1 MOL        -0.0495
     18 C18        -3.6970   12.1680    3.7680 C.ar      1 MOL        -0.0698
     19 C19        -3.0490   13.5830    3.7300 C.3       1 MOL        -0.0390
     20 H1         -6.9331   11.2130    5.5249 H         1 MOL         0.2452
     21 H2         -2.1924    9.1252    2.0934 H         1 MOL         0.2452
     22 H3         -4.8114    7.5867    1.7527 H         1 MOL         0.0530
     23 H4         -6.3962    8.1300    4.3294 H         1 MOL         0.0507
     24 H5         -6.5775    5.7773    1.4793 H         1 MOL         0.0318
     25 H6         -7.0170    6.0569    3.1984 H         1 MOL         0.0318
     26 H7         -4.3044    5.2237    2.0823 H         1 MOL         0.0414
     27 H8         -5.4143    4.2452    3.1008 H         1 MOL         0.0414
     28 H9         -4.0745    7.4526    5.4313 H         1 MOL         0.0258
     29 H10        -3.1900    5.4358    5.8855 H         1 MOL         0.0377
     30 H11        -2.7757    4.4355    4.4523 H         1 MOL         0.0377
     31 H12        -4.2626    4.0807    5.3957 H         1 MOL         0.0377
     32 H13        -8.7741    9.1806    1.4940 H         1 MOL         0.0425
     33 H14        -8.1737    8.9533    3.1716 H         1 MOL         0.0425
     34 H15        -8.6623    7.5292    2.1917 H         1 MOL         0.0425
     35 H16        -5.4203    9.0137    0.1138 H         1 MOL         0.0075
     36 H17        -7.1675    9.7156    0.0019 H         1 MOL         0.0075
     37 H18        -5.4223   12.7355    4.9741 H         1 MOL         0.0374
     38 H19        -2.1932   11.2484    2.5208 H         1 MOL         0.0374
     39 H20        -3.6651   14.2841    4.3121 H         1 MOL         0.0375
     40 H21        -2.9851   13.9292    2.6879 H         1 MOL         0.0375
     41 H22        -2.0390   13.5356    4.1633 H         1 MOL         0.0375
@<TRIPOS>BOND
     1   12    1 1  
     2   13    2 1  
     3    4    3 1  
     4    3    5 1  
     5    3   10 1  
     6    4    7 1  
     7    9    4 1  
     8    5    6 1  
     9    8    6 1  
    10    7    8 2  
    11    8   11 1  
    12    9   12 ar 
    13    9   13 ar 
    14   10   14 1  
    15   10   15 2  
    16   12   16 ar 
    17   13   17 ar 
    18   16   18 ar 
    19   17   18 ar 
    20   18   19 1  
    21    1   20 1  
    22    2   21 1  
    23    3   22 1  
    24    4   23 1  
    25    5   24 1  
    26    5   25 1  
    27    6   26 1  
    28    6   27 1  
    29    7   28 1  
    30   11   29 1  
    31   11   30 1  
    32   11   31 1  
    33   14   32 1  
    34   14   33 1  
    35   14   34 1  
    36   15   35 1  
    37   15   36 1  
    38   16   37 1  
    39   17   38 1  
    40   19   39 1  
    41   19   40 1  
    42   19   41 1  
@<TRIPOS>SUBSTRUCTURE
     1 MOL         1

