### 
### Created by X-TOOL on Mon Aug  2 16:13:10 2021
### 

@<TRIPOS>MOLECULE
6e6v_ligand
   18    18     1     0     0
SMALL
GAST_HUCK


@<TRIPOS>ATOM
      1 OAF       -18.1040   16.5630   16.5580 O.co2     1 HWA        -0.5464
      2 CAE       -18.1450   16.5840   15.3140 C.2       1 HWA         0.1173
      3 OAK       -17.2620   15.9340   14.6490 O.co2     1 HWA        -0.5464
      4 CAD       -19.2090   17.3430   14.7960 C.2       1 HWA         0.1377
      5 NAC       -19.9110   18.0770   15.7780 N.2       1 HWA        -0.2585
      6 CAB       -21.0350   18.8720   15.4580 C.2       1 HWA         0.0248
      7 CAA       -21.7290   19.6060   16.4920 C.3       1 HWA        -0.0123
      8 CAG       -21.4560   18.9300   14.1210 C.2       1 HWA        -0.0052
      9 CAH       -20.7980   18.2050   13.1200 C.2       1 HWA         0.1429
     10 OAL       -21.2470   18.3060   11.9540 O.2       1 HWA        -0.4077
     11 CAI       -19.6670   17.4190   13.4720 C.3       1 HWA         0.1943
     12 OAJ       -19.0320   16.7030   12.5220 O.3       1 HWA        -0.3503
     13 H1        -22.5692   20.1597   16.0476 H         1 HWA         0.0451
     14 H2        -21.0346   20.3137   16.9684 H         1 HWA         0.0451
     15 H3        -22.1115   18.9032   17.2468 H         1 HWA         0.0451
     16 H4        -22.3108   19.5507   13.8566 H         1 HWA         0.0426
     17 H5        -19.0067   18.2788   13.2858 H         1 HWA         0.1129
     18 H6        -18.3032   16.2359   12.9133 H         1 HWA         0.2189
@<TRIPOS>BOND
     1    1    2 ar 
     2    2    3 ar 
     3    2    4 1  
     4    4    5 2  
     5    4   11 1  
     6    5    6 1  
     7    6    7 1  
     8    6    8 2  
     9    8    9 1  
    10    9   10 2  
    11    9   11 1  
    12   11   12 1  
    13    7   13 1  
    14    7   14 1  
    15    7   15 1  
    16    8   16 1  
    17   11   17 1  
    18   12   18 1  
@<TRIPOS>SUBSTRUCTURE
     1 HWA         1

