### 
### Created by X-TOOL on Mon Aug  2 16:13:10 2021
### 

@<TRIPOS>MOLECULE
6e6w_ligand
   33    35     1     0     0
SMALL
GAST_HUCK


@<TRIPOS>ATOM
      1 OAV       -17.3510   16.0530  134.6110 O.co2     1 HWJ        -0.5468
      2 CAU       -18.4070   16.3500  135.2410 C.2       1 HWJ         0.1158
      3 OAW       -18.3940   16.3990  136.4600 O.co2     1 HWJ        -0.5468
      4 CAR       -19.5640   16.8470  134.6790 C.2       1 HWJ         0.1349
      5 NAQ       -20.5710   17.0690  135.6160 N.2       1 HWJ        -0.2630
      6 CAS       -19.7720   17.1780  133.3400 C.3       1 HWJ         0.1959
      7 OAT       -18.8150   16.9660  132.4390 O.3       1 HWJ        -0.3506
      8 CAO       -20.9630   17.7450  132.9020 C.2       1 HWJ         0.1545
      9 OAP       -21.1840   18.0540  131.7140 O.2       1 HWJ        -0.3988
     10 CAN       -21.9530   17.9590  133.8600 C.2       1 HWJ         0.0057
     11 CAM       -21.7720   17.6080  135.1970 C.2       1 HWJ         0.0488
     12 CAL       -22.8260   17.8560  136.0690 C.ar      1 HWJ         0.0084
     13 CAH       -24.0780   17.2010  135.9010 C.ar      1 HWJ        -0.0268
     14 CAI       -24.3580   16.2430  134.8890 C.3       1 HWJ        -0.0271
     15 CAG       -25.1190   17.5160  136.7490 C.ar      1 HWJ        -0.0390
     16 CAK       -22.6360   18.8020  137.0800 C.ar      1 HWJ        -0.0499
     17 CAJ       -23.6930   19.0960  137.9400 C.ar      1 HWJ        -0.0472
     18 CAF       -24.9330   18.4420  137.7720 C.ar      1 HWJ         0.0361
     19 CAE       -25.9760   18.7130  138.5350 C.2       1 HWJ         0.1859
     20 NAD       -27.2440   18.4650  138.1580 N.2       1 HWJ        -0.2058
     21 NAA       -27.9520   18.8770  139.0450 N.2       1 HWJ        -0.1372
     22 NAB       -27.1710   19.4030  140.0190 N.2       1 HWJ        -0.0628
     23 NAC       -25.9490   19.3210  139.7200 N.pl3     1 HWJ        -0.1504
     24 H1        -20.1792   16.1722  133.1596 H         1 HWJ         0.1125
     25 H2        -19.1194   17.2454  131.5836 H         1 HWJ         0.2187
     26 H3        -22.8946   18.4133  133.5552 H         1 HWJ         0.0570
     27 H4        -25.3978   15.8980  134.9884 H         1 HWJ         0.0405
     28 H5        -23.6758   15.3867  134.9958 H         1 HWJ         0.0405
     29 H6        -24.2173   16.7029  133.8997 H         1 HWJ         0.0405
     30 H7        -26.0848   17.0413  136.6187 H         1 HWJ         0.0602
     31 H8        -21.6800   19.3002  137.1938 H         1 HWJ         0.0642
     32 H9        -23.5636   19.8230  138.7336 H         1 HWJ         0.0613
     33 H10       -25.1324   19.6440  140.2583 H         1 HWJ         0.2708
@<TRIPOS>BOND
     1    1    2 ar 
     2    2    3 ar 
     3    2    4 1  
     4    4    5 2  
     5    4    6 1  
     6    5   11 1  
     7    6    7 1  
     8    6    8 1  
     9    8    9 2  
    10    8   10 1  
    11   10   11 2  
    12   11   12 1  
    13   12   13 ar 
    14   12   16 ar 
    15   13   14 1  
    16   13   15 ar 
    17   15   18 ar 
    18   16   17 ar 
    19   17   18 ar 
    20   18   19 1  
    21   19   20 2  
    22   19   23 1  
    23   20   21 1  
    24   21   22 2  
    25   22   23 1  
    26    6   24 1  
    27    7   25 1  
    28   10   26 1  
    29   14   27 1  
    30   14   28 1  
    31   14   29 1  
    32   15   30 1  
    33   16   31 1  
    34   17   32 1  
    35   23   33 1  
@<TRIPOS>SUBSTRUCTURE
     1 HWJ         1

