### 
### Created by X-TOOL on Wed Jan  1 15:39:35 2020
### 

@<TRIPOS>MOLECULE
6e7j_ligand
   87    91     1     0     0
SMALL
GAST_HUCK


@<TRIPOS>ATOM
      1 C12        14.7310   21.5690   16.8720 C.3       1 HWY         0.0319
      2 C14        16.1940   22.4780   15.0250 C.3       1 HWY        -0.0612
      3 C16        15.4330   22.9730   18.8550 C.3       1 HWY         0.0578
      4 C17        16.2810   24.1710   18.3810 C.3       1 HWY         0.0967
      5 C19        17.8260   23.9980   18.7030 C.3       1 HWY         0.0807
      6 C21        19.3650   24.7160   17.0400 C.2       1 HWY         0.3202
      7 O22        19.4840   23.6830   16.3710 O.2       1 HWY        -0.3775
      8 C24        20.9190   25.4990   15.3710 C.3       1 HWY         0.0935
      9 C26        22.3030   27.4620   15.4330 C.3       1 HWY         0.1193
     10 C28        22.2170   27.8720   17.6910 C.2       1 HWY         0.3534
     11 C30        23.0950   26.3950   16.1330 C.3       1 HWY         0.1016
     12 O51        21.8170   28.4520   18.6780 O.2       1 HWY        -0.3668
     13 O27        21.7270   28.2890   16.4920 O.3       1 HWY        -0.2526
     14 N29        23.0930   26.9000   17.5110 N.am      1 HWY        -0.1891
     15 C41        23.9540   26.4430   18.5470 C.ar      1 HWY         0.0714
     16 C46        24.5650   25.2170   18.3730 C.ar      1 HWY        -0.0411
     17 C45        25.4260   24.7100   19.3670 C.ar      1 HWY        -0.0756
     18 C44        25.6240   25.4400   20.5140 C.ar      1 HWY        -0.0773
     19 C43        25.0280   26.6660   20.6940 C.ar      1 HWY        -0.0756
     20 C42        24.1530   27.1600   19.7070 C.ar      1 HWY        -0.0411
     21 C25        21.1550   26.8760   14.6650 C.3       1 HWY         0.0112
     22 C31        22.2620   25.1090   15.9200 C.3       1 HWY         0.0090
     23 O23        20.0850   25.7690   16.4650 O.3       1 HWY        -0.2604
     24 N20        18.6480   24.9590   18.0510 N.am      1 HWY        -0.2550
     25 C32        18.2210   23.9650   20.1580 C.3       1 HWY         0.0064
     26 C38        19.6670   23.6600   20.3190 C.ar      1 HWY        -0.0408
     27 C37        20.0810   22.3350   20.1080 C.ar      1 HWY        -0.0603
     28 C36        21.4260   21.9740   20.2370 C.ar      1 HWY        -0.0686
     29 C35        22.3860   22.9520   20.5540 C.ar      1 HWY        -0.0687
     30 C34        21.9610   24.2490   20.7670 C.ar      1 HWY        -0.0686
     31 C33        20.5990   24.5900   20.6860 C.ar      1 HWY        -0.0603
     32 O18        15.9180   25.3570   19.1450 O.3       1 HWY        -0.3877
     33 N11        15.7050   21.8270   17.9440 N.am      1 HWY        -0.2325
     34 C13        14.8150   22.5950   15.7070 C.3       1 HWY        -0.0296
     35 C15        13.7480   22.1660   14.7370 C.3       1 HWY        -0.0612
     36 S8         16.3550   20.4710   18.6780 S.o2      1 HWY         0.0657
     37 O9         17.1170   20.9340   19.8070 O.2       1 HWY        -0.1515
     38 O10        16.9950   19.7760   17.6000 O.2       1 HWY        -0.1515
     39 C5         15.1370   19.4650   19.2910 C.ar      1 HWY         0.0971
     40 C4         14.6370   19.6150   20.6140 C.ar      1 HWY        -0.0440
     41 C3         13.5550   18.8670   21.0090 C.ar      1 HWY        -0.0313
     42 C6         14.5490   18.5500   18.4880 C.ar      1 HWY        -0.0440
     43 C7         13.4480   17.7730   18.9120 C.ar      1 HWY        -0.0313
     44 C2         12.9670   17.9780   20.1870 C.ar      1 HWY         0.0908
     45 O39        11.8140   17.3800   20.6630 O.3       1 HWY        -0.3212
     46 C40        11.1610   16.4560   19.7920 C.3       1 HWY         0.0594
     47 H1         13.7193   21.6103   17.3017 H         1 HWY         0.0480
     48 H2         14.9162   20.5636   16.4661 H         1 HWY         0.0480
     49 H3         16.2576   23.2026   14.1998 H         1 HWY         0.0233
     50 H4         16.3222   21.4596   14.6294 H         1 HWY         0.0233
     51 H5         16.9854   22.6885   15.7595 H         1 HWY         0.0233
     52 H6         14.3650   23.2338   18.8180 H         1 HWY         0.0504
     53 H7         15.7094   22.7045   19.8853 H         1 HWY         0.0504
     54 H8         16.1242   24.3255   17.3033 H         1 HWY         0.0634
     55 H9         18.0961   23.0147   18.2906 H         1 HWY         0.0604
     56 H10        20.4981   24.7375   14.6980 H         1 HWY         0.0649
     57 H11        22.9501   28.0511   14.7665 H         1 HWY         0.0677
     58 H12        24.1176   26.2730   15.7466 H         1 HWY         0.0652
     59 H13        24.3823   24.6440   17.4711 H         1 HWY         0.0502
     60 H14        25.9249   23.7576   19.2285 H         1 HWY         0.0577
     61 H15        26.2634   25.0411   21.2932 H         1 HWY         0.0487
     62 H16        25.2296   27.2467   21.5869 H         1 HWY         0.0577
     63 H17        23.6376   28.1014   19.8594 H         1 HWY         0.0502
     64 H18        20.2631   27.5156   14.7394 H         1 HWY         0.0323
     65 H19        21.4189   26.7365   13.6063 H         1 HWY         0.0323
     66 H20        22.7764   24.4470   15.2079 H         1 HWY         0.0322
     67 H21        22.1336   24.5865   16.8794 H         1 HWY         0.0322
     68 H22        18.6588   25.8892   18.4178 H         1 HWY         0.1873
     69 H23        17.6323   23.1906   20.6715 H         1 HWY         0.0449
     70 H24        18.0095   24.9458   20.6089 H         1 HWY         0.0449
     71 H25        19.3483   21.5818   19.8416 H         1 HWY         0.0557
     72 H26        21.7280   20.9429   20.0930 H         1 HWY         0.0599
     73 H27        23.4361   22.6936   20.6295 H         1 HWY         0.0559
     74 H28        22.6896   25.0169   21.0005 H         1 HWY         0.0599
     75 H29        20.2849   25.6014   20.9171 H         1 HWY         0.0557
     76 H30        14.9960   25.5458   19.0156 H         1 HWY         0.2100
     77 H31        14.6456   23.6219   16.0630 H         1 HWY         0.0311
     78 H32        12.7618   22.2471   15.2174 H         1 HWY         0.0233
     79 H33        13.9243   21.1229   14.4356 H         1 HWY         0.0233
     80 H34        13.7777   22.8143   13.8489 H         1 HWY         0.0233
     81 H35        15.1039   20.3108   21.3017 H         1 HWY         0.0608
     82 H36        13.1633   18.9963   22.0115 H         1 HWY         0.0542
     83 H37        14.9353   18.4078   17.4852 H         1 HWY         0.0608
     84 H38        12.9958   17.0387   18.2552 H         1 HWY         0.0542
     85 H39        10.2645   16.0556   20.2879 H         1 HWY         0.0577
     86 H40        11.8471   15.6303   19.5524 H         1 HWY         0.0577
     87 H41        10.8682   16.9703   18.8648 H         1 HWY         0.0577
@<TRIPOS>BOND
     1   33    1 1  
     2    1   34 1  
     3   34    2 1  
     4    4    3 1  
     5    3   33 1  
     6    5    4 1  
     7    4   32 1  
     8   24    5 1  
     9    5   25 1  
    10    6    7 2  
    11   23    6 1  
    12    6   24 am 
    13   21    8 1  
    14    8   22 1  
    15    8   23 1  
    16    9   11 1  
    17   13    9 1  
    18    9   21 1  
    19   10   12 2  
    20   10   13 1  
    21   10   14 am 
    22   11   14 1  
    23   11   22 1  
    24   14   15 1  
    25   15   16 ar 
    26   15   20 ar 
    27   16   17 ar 
    28   17   18 ar 
    29   18   19 ar 
    30   19   20 ar 
    31   25   26 1  
    32   26   27 ar 
    33   26   31 ar 
    34   27   28 ar 
    35   28   29 ar 
    36   29   30 ar 
    37   30   31 ar 
    38   33   36 am 
    39   34   35 1  
    40   36   37 2  
    41   36   38 2  
    42   36   39 1  
    43   39   40 ar 
    44   39   42 ar 
    45   40   41 ar 
    46   41   44 ar 
    47   42   43 ar 
    48   43   44 ar 
    49   44   45 1  
    50   45   46 1  
    51    1   47 1  
    52    1   48 1  
    53    2   49 1  
    54    2   50 1  
    55    2   51 1  
    56    3   52 1  
    57    3   53 1  
    58    4   54 1  
    59    5   55 1  
    60    8   56 1  
    61    9   57 1  
    62   11   58 1  
    63   16   59 1  
    64   17   60 1  
    65   18   61 1  
    66   19   62 1  
    67   20   63 1  
    68   21   64 1  
    69   21   65 1  
    70   22   66 1  
    71   22   67 1  
    72   24   68 1  
    73   25   69 1  
    74   25   70 1  
    75   27   71 1  
    76   28   72 1  
    77   29   73 1  
    78   30   74 1  
    79   31   75 1  
    80   32   76 1  
    81   34   77 1  
    82   35   78 1  
    83   35   79 1  
    84   35   80 1  
    85   40   81 1  
    86   41   82 1  
    87   42   83 1  
    88   43   84 1  
    89   46   85 1  
    90   46   86 1  
    91   46   87 1  
@<TRIPOS>SUBSTRUCTURE
     1 HWY         1

