### 
### Created by X-TOOL on Mon Aug  2 16:10:03 2021
### 

@<TRIPOS>MOLECULE
6e7m_ligand
   52    52     1     0     0
SMALL
GAST_HUCK


@<TRIPOS>ATOM
      1 C1         12.9750   19.6330  -26.2360 C.3       1 RET        -0.0193
      2 C2         14.4240   19.7210  -25.7480 C.3       1 RET        -0.0451
      3 C3         14.8270   18.5990  -24.7960 C.3       1 RET        -0.0519
      4 C4         14.4960   17.2110  -25.3220 C.3       1 RET        -0.0477
      5 C5         13.5610   17.2150  -26.4890 C.3       1 RET        -0.0279
      6 C6         12.6870   18.2080  -26.6990 C.3       1 RET         0.0014
      7 C7         11.3640   17.9420  -27.2190 C.2       1 RET        -0.0647
      8 C8         10.4720   17.3000  -26.5300 C.2       1 RET        -0.0617
      9 C9          9.1530   16.8810  -26.9040 C.2       1 RET        -0.0602
     10 C10         8.9100   15.5430  -26.8360 C.2       1 RET        -0.0819
     11 C11         7.6980   14.8140  -27.0900 C.2       1 RET        -0.0924
     12 C12         7.6880   13.4970  -27.3690 C.2       1 RET        -0.0868
     13 C13         6.5420   12.6500  -27.5550 C.2       1 RET        -0.0733
     14 C14         6.7260   11.3200  -27.7410 C.2       1 RET        -0.0928
     15 C15         5.7170   10.2920  -27.8760 C.3       1 RET        -0.0459
     16 C16        12.7560   20.6240  -27.3840 C.3       1 RET        -0.0570
     17 C17        12.0570   20.0140  -25.0700 C.3       1 RET        -0.0570
     18 C18        13.5830   15.9300  -27.2740 C.3       1 RET        -0.0596
     19 C19         8.1660   17.9260  -27.3550 C.3       1 RET        -0.0330
     20 C20         5.1930   13.2830  -27.4400 C.3       1 RET        -0.0429
     21 H1         14.5559   20.6808  -25.2270 H         1 RET         0.0273
     22 H2         15.0872   19.6855  -26.6249 H         1 RET         0.0273
     23 H3         14.2993   18.7451  -23.8420 H         1 RET         0.0266
     24 H4         15.9124   18.6580  -24.6274 H         1 RET         0.0266
     25 H5         14.0329   16.6332  -24.5086 H         1 RET         0.0270
     26 H6         15.4331   16.7243  -25.6301 H         1 RET         0.0270
     27 H7         14.2953   17.6947  -27.1528 H         1 RET         0.0332
     28 H8         13.0964   18.3997  -27.7018 H         1 RET         0.0525
     29 H9         11.1091   18.2910  -28.2186 H         1 RET         0.0776
     30 H10        10.7698   17.0403  -25.5152 H         1 RET         0.0458
     31 H11         9.7637   14.9327  -26.5450 H         1 RET         0.0381
     32 H12         6.7497   15.3482  -27.0554 H         1 RET         0.0493
     33 H13         8.6612   13.0179  -27.4649 H         1 RET         0.0430
     34 H14         7.7604   10.9840  -27.7955 H         1 RET         0.0475
     35 H15         6.2045    9.3158  -28.0152 H         1 RET         0.0375
     36 H16         5.0829   10.5127  -28.7473 H         1 RET         0.0375
     37 H17         5.0965   10.2658  -26.9681 H         1 RET         0.0375
     38 H18        12.9679   21.6446  -27.0327 H         1 RET         0.0237
     39 H19        11.7125   20.5634  -27.7267 H         1 RET         0.0237
     40 H20        13.4304   20.3754  -28.2167 H         1 RET         0.0237
     41 H21        12.2066   19.3080  -24.2398 H         1 RET         0.0237
     42 H22        11.0086   19.9743  -25.4006 H         1 RET         0.0237
     43 H23        12.2967   21.0331  -24.7324 H         1 RET         0.0237
     44 H24        14.3952   15.2876  -26.9030 H         1 RET         0.0235
     45 H25        13.7491   16.1532  -28.3382 H         1 RET         0.0235
     46 H26        12.6208   15.4105  -27.1541 H         1 RET         0.0235
     47 H27         8.6363   18.9193  -27.3075 H         1 RET         0.0405
     48 H28         7.2845   17.9059  -26.6974 H         1 RET         0.0405
     49 H29         7.8566   17.7160  -28.3895 H         1 RET         0.0405
     50 H30         5.3080   14.3672  -27.2939 H         1 RET         0.0347
     51 H31         4.6578   12.8521  -26.5811 H         1 RET         0.0347
     52 H32         4.6204   13.0957  -28.3604 H         1 RET         0.0347
@<TRIPOS>BOND
     1    1    2 1  
     2    1    6 1  
     3    1   16 1  
     4    1   17 1  
     5    2    3 1  
     6    3    4 1  
     7    4    5 1  
     8    5    6 1  
     9    5   18 1  
    10    6    7 1  
    11    7    8 2  
    12    8    9 1  
    13    9   10 2  
    14    9   19 1  
    15   10   11 1  
    16   11   12 2  
    17   12   13 1  
    18   13   14 2  
    19   13   20 1  
    20   14   15 1  
    21    2   21 1  
    22    2   22 1  
    23    3   23 1  
    24    3   24 1  
    25    4   25 1  
    26    4   26 1  
    27    5   27 1  
    28    6   28 1  
    29    7   29 1  
    30    8   30 1  
    31   10   31 1  
    32   11   32 1  
    33   12   33 1  
    34   14   34 1  
    35   15   35 1  
    36   15   36 1  
    37   15   37 1  
    38   16   38 1  
    39   16   39 1  
    40   16   40 1  
    41   17   41 1  
    42   17   42 1  
    43   17   43 1  
    44   18   44 1  
    45   18   45 1  
    46   18   46 1  
    47   19   47 1  
    48   19   48 1  
    49   19   49 1  
    50   20   50 1  
    51   20   51 1  
    52   20   52 1  
@<TRIPOS>SUBSTRUCTURE
     1 RET         1

