### 
### Created by X-TOOL on Mon Aug  2 16:13:11 2021
### 

@<TRIPOS>MOLECULE
6e7r_ligand
   50    51     1     0     0
SMALL
GAST_HUCK


@<TRIPOS>ATOM
      1 C01       -15.3740  -66.2510  163.1940 C.ar      1 HYS         0.0477
      2 C02       -16.7090  -66.4290  162.9390 C.ar      1 HYS         0.0469
      3 C03       -17.4950  -65.3590  162.5960 C.ar      1 HYS        -0.0541
      4 C04       -16.9210  -64.1020  162.4570 C.ar      1 HYS        -0.0594
      5 C05       -15.5540  -63.9360  162.6820 C.ar      1 HYS        -0.0373
      6 C06       -14.7940  -64.9990  163.0740 C.ar      1 HYS        -0.0457
      7 C07       -14.8980  -62.5290  162.5440 C.3       1 HYS         0.0213
      8 C08       -14.2560  -62.3160  161.1660 C.3       1 HYS        -0.0239
      9 N09       -14.7400  -61.0040  160.5480 N.4       1 HYS         0.2303
     10 C10       -14.0430  -59.8820  161.1590 C.3       1 HYS        -0.0043
     11 C11       -12.5490  -60.2180  161.3160 C.3       1 HYS         0.1217
     12 C12       -11.7610  -58.9270  161.5900 C.3       1 HYS         0.0976
     13 O13       -10.8080  -59.2040  162.6400 O.3       1 HYS        -0.3262
     14 C14        -9.6470  -58.4510  162.5800 C.ar      1 HYS         0.0739
     15 C15        -8.7950  -58.4070  163.6910 C.ar      1 HYS        -0.0482
     16 C16        -7.6200  -57.6510  163.6440 C.ar      1 HYS        -0.0534
     17 C17        -7.3180  -56.9230  162.5190 C.ar      1 HYS         0.0512
     18 C18        -8.1540  -56.9820  161.3890 C.ar      1 HYS        -0.0534
     19 C19        -9.3280  -57.7410  161.4340 C.ar      1 HYS        -0.0482
     20 N20        -6.0960  -56.1110  162.4910 N.am      1 HYS        -0.1982
     21 S21        -4.7740  -56.5840  161.5160 S.o2      1 HYS         0.0553
     22 C22        -5.2970  -56.7900  159.8280 C.3       1 HYS         0.0783
     23 O23        -4.1520  -57.8050  162.0290 O.2       1 HYS        -0.1506
     24 O24        -3.6740  -55.6240  161.6230 O.2       1 HYS        -0.1506
     25 O25       -12.3750  -61.1020  162.3820 O.3       1 HYS        -0.3839
     26 CL1       -17.4020  -68.0330  163.0950 Cl        1 HYS        -0.0764
     27 CL2       -14.4020  -67.6320  163.6200 Cl        1 HYS        -0.0718
     28 H1        -18.5584  -65.4935  162.4343 H         1 HYS         0.0606
     29 H2        -17.5328  -63.2529  162.1747 H         1 HYS         0.0559
     30 H3        -13.7404  -64.8643  163.2907 H         1 HYS         0.0562
     31 H4        -14.1212  -62.4240  163.3157 H         1 HYS         0.0479
     32 H5        -15.6717  -61.7619  162.6957 H         1 HYS         0.0479
     33 H6        -14.5316  -63.1510  160.5051 H         1 HYS         0.0838
     34 H7        -13.1622  -62.2820  161.2774 H         1 HYS         0.0838
     35 H8        -15.7311  -60.9067  160.7039 H         1 HYS         0.2016
     36 H9        -14.5549  -61.0129  159.5572 H         1 HYS         0.2016
     37 H10       -14.4771  -59.6779  162.1489 H         1 HYS         0.0840
     38 H11       -14.1520  -58.9930  160.5204 H         1 HYS         0.0840
     39 H12       -12.1797  -60.6838  160.3905 H         1 HYS         0.0674
     40 H13       -12.4484  -58.1300  161.9097 H         1 HYS         0.0635
     41 H14       -11.2320  -58.6112  160.6787 H         1 HYS         0.0635
     42 H15        -9.0472  -58.9600  164.5886 H         1 HYS         0.0502
     43 H16        -6.9479  -57.6393  164.4945 H         1 HYS         0.0457
     44 H17        -7.8894  -56.4416  160.4873 H         1 HYS         0.0457
     45 H18        -9.9869  -57.7736  160.5739 H         1 HYS         0.0502
     46 H19        -6.0365  -55.2795  163.0433 H         1 HYS         0.2115
     47 H20        -4.4376  -57.0940  159.2124 H         1 HYS         0.0487
     48 H21        -5.7003  -55.8388  159.4504 H         1 HYS         0.0487
     49 H22        -6.0764  -57.5645  159.7775 H         1 HYS         0.0487
     50 H23       -12.6931  -60.6990  163.1813 H         1 HYS         0.2101
@<TRIPOS>BOND
     1    1    2 ar 
     2    1    6 ar 
     3    1   27 1  
     4    2    3 ar 
     5    2   26 1  
     6    3    4 ar 
     7    4    5 ar 
     8    5    6 ar 
     9    5    7 1  
    10    7    8 1  
    11    8    9 1  
    12    9   10 1  
    13   10   11 1  
    14   11   12 1  
    15   11   25 1  
    16   12   13 1  
    17   13   14 1  
    18   14   15 ar 
    19   14   19 ar 
    20   15   16 ar 
    21   16   17 ar 
    22   17   18 ar 
    23   17   20 1  
    24   18   19 ar 
    25   20   21 am 
    26   21   22 1  
    27   21   23 2  
    28   21   24 2  
    29    3   28 1  
    30    4   29 1  
    31    6   30 1  
    32    7   31 1  
    33    7   32 1  
    34    8   33 1  
    35    8   34 1  
    36    9   35 1  
    37    9   36 1  
    38   10   37 1  
    39   10   38 1  
    40   11   39 1  
    41   12   40 1  
    42   12   41 1  
    43   15   42 1  
    44   16   43 1  
    45   18   44 1  
    46   19   45 1  
    47   20   46 1  
    48   22   47 1  
    49   22   48 1  
    50   22   49 1  
    51   25   50 1  
@<TRIPOS>SUBSTRUCTURE
     1 HYS         1

