### 
### Created by X-TOOL on Mon Aug  2 16:13:11 2021
### 

@<TRIPOS>MOLECULE
6e7s_ligand
   56    57     1     0     0
SMALL
GAST_HUCK


@<TRIPOS>ATOM
      1 C01       -16.1030  -65.5250  162.8560 C.ar      1 HZ4        -0.0594
      2 C02       -16.7250  -66.7660  163.0760 C.ar      1 HZ4        -0.0541
      3 C03       -15.9500  -67.8850  163.4440 C.ar      1 HZ4         0.0469
      4 C04       -14.5850  -67.7590  163.6000 C.ar      1 HZ4         0.0477
      5 C05       -13.9600  -66.5130  163.3880 C.ar      1 HZ4        -0.0457
      6 C06       -14.7310  -65.4000  163.0050 C.ar      1 HZ4        -0.0373
      7 C07       -14.0400  -64.0120  162.7620 C.3       1 HZ4         0.0214
      8 C08       -14.4370  -63.3760  161.3900 C.3       1 HZ4        -0.0222
      9 N09       -14.4300  -61.9480  161.4820 N.4       1 HZ4         0.2384
     10 C10       -15.4060  -61.3870  160.5280 C.3       1 HZ4        -0.0345
     11 C11       -15.4010  -59.8490  160.5990 C.3       1 HZ4        -0.0245
     12 C12       -13.0930  -61.4400  161.1580 C.3       1 HZ4        -0.0026
     13 C13       -12.0560  -61.9190  162.1900 C.3       1 HZ4         0.1217
     14 C14       -10.7120  -61.2150  161.9100 C.3       1 HZ4         0.0976
     15 O15        -9.9320  -61.2530  163.1010 O.3       1 HZ4        -0.3262
     16 C16        -8.7930  -60.4120  163.0570 C.ar      1 HZ4         0.0739
     17 C17        -8.5720  -59.5870  161.9390 C.ar      1 HZ4        -0.0482
     18 C18        -7.4420  -58.7640  161.8910 C.ar      1 HZ4        -0.0534
     19 C19        -6.5670  -58.7370  162.9540 C.ar      1 HZ4         0.0512
     20 C20        -6.7730  -59.5820  164.0630 C.ar      1 HZ4        -0.0534
     21 C21        -7.8970  -60.4020  164.1130 C.ar      1 HZ4        -0.0482
     22 N22        -5.3520  -57.9040  162.8800 N.am      1 HZ4        -0.1982
     23 S23        -3.9980  -58.4510  161.9420 S.o2      1 HZ4         0.0553
     24 C24        -4.4450  -58.5460  160.1640 C.3       1 HZ4         0.0783
     25 O25        -3.5050  -59.7580  162.4360 O.2       1 HZ4        -0.1506
     26 O26        -2.8330  -57.5910  162.1510 O.2       1 HZ4        -0.1506
     27 O27       -12.4770  -61.6000  163.4510 O.3       1 HZ4        -0.3839
     28 CL1       -13.6160  -69.2040  164.0720 Cl        1 HZ4        -0.0718
     29 CL2       -16.7190  -69.4770  163.7180 Cl        1 HZ4        -0.0764
     30 H1        -16.6971  -64.6648  162.5695 H         1 HZ4         0.0559
     31 H2        -17.7987  -66.8627  162.9630 H         1 HZ4         0.0606
     32 H3        -12.8887  -66.4128  163.5197 H         1 HZ4         0.0562
     33 H4        -12.9493  -64.1528  162.7828 H         1 HZ4         0.0479
     34 H5        -14.3365  -63.3247  163.5680 H         1 HZ4         0.0479
     35 H6        -15.4451  -63.7163  161.1108 H         1 HZ4         0.0838
     36 H7        -13.7169  -63.6933  160.6214 H         1 HZ4         0.0838
     37 H8        -14.6774  -61.6710  162.4191 H         1 HZ4         0.2036
     38 H9        -16.4111  -61.7582  160.7770 H         1 HZ4         0.0812
     39 H10       -15.1401  -61.7038  159.5087 H         1 HZ4         0.0812
     40 H11       -16.1327  -59.4465  159.8830 H         1 HZ4         0.0281
     41 H12       -14.3979  -59.4736  160.3482 H         1 HZ4         0.0281
     42 H13       -15.6689  -59.5280  161.6164 H         1 HZ4         0.0281
     43 H14       -13.1168  -60.3403  161.1558 H         1 HZ4         0.0841
     44 H15       -12.8022  -61.8025  160.1610 H         1 HZ4         0.0841
     45 H16       -11.9291  -63.0086  162.1085 H         1 HZ4         0.0674
     46 H17       -10.8930  -60.1703  161.6169 H         1 HZ4         0.0635
     47 H18       -10.1804  -61.7362  161.1002 H         1 HZ4         0.0635
     48 H19        -9.2769  -59.5892  161.1155 H         1 HZ4         0.0502
     49 H20        -7.2554  -58.1485  161.0185 H         1 HZ4         0.0457
     50 H21        -6.0567  -59.5934  164.8766 H         1 HZ4         0.0457
     51 H22        -8.0707  -61.0321  164.9778 H         1 HZ4         0.0502
     52 H23        -5.3087  -57.0313  163.3663 H         1 HZ4         0.2115
     53 H24        -3.5764  -58.8938  159.5857 H         1 HZ4         0.0487
     54 H25        -4.7474  -57.5500  159.8082 H         1 HZ4         0.0487
     55 H26        -5.2790  -59.2511  160.0327 H         1 HZ4         0.0487
     56 H27       -11.8282  -61.8878  164.0826 H         1 HZ4         0.2101
@<TRIPOS>BOND
     1    1    2 ar 
     2    1    6 ar 
     3    2    3 ar 
     4    3    4 ar 
     5    3   29 1  
     6    4    5 ar 
     7    4   28 1  
     8    5    6 ar 
     9    6    7 1  
    10    7    8 1  
    11    8    9 1  
    12    9   10 1  
    13    9   12 1  
    14   10   11 1  
    15   12   13 1  
    16   13   14 1  
    17   13   27 1  
    18   14   15 1  
    19   15   16 1  
    20   16   17 ar 
    21   16   21 ar 
    22   17   18 ar 
    23   18   19 ar 
    24   19   20 ar 
    25   19   22 1  
    26   20   21 ar 
    27   22   23 am 
    28   23   24 1  
    29   23   25 2  
    30   23   26 2  
    31    1   30 1  
    32    2   31 1  
    33    5   32 1  
    34    7   33 1  
    35    7   34 1  
    36    8   35 1  
    37    8   36 1  
    38    9   37 1  
    39   10   38 1  
    40   10   39 1  
    41   11   40 1  
    42   11   41 1  
    43   11   42 1  
    44   12   43 1  
    45   12   44 1  
    46   13   45 1  
    47   14   46 1  
    48   14   47 1  
    49   17   48 1  
    50   18   49 1  
    51   20   50 1  
    52   21   51 1  
    53   22   52 1  
    54   24   53 1  
    55   24   54 1  
    56   24   55 1  
    57   27   56 1  
@<TRIPOS>SUBSTRUCTURE
     1 HZ4         1

