### 
### Created by X-TOOL on Mon Aug  2 16:13:12 2021
### 

@<TRIPOS>MOLECULE
6e7t_ligand
   59    60     1     0     0
SMALL
GAST_HUCK


@<TRIPOS>ATOM
      1 C01        48.4280  -66.3340   32.7660 C.ar      1 HYY        -0.0594
      2 C02        47.8550  -67.5890   32.9670 C.ar      1 HYY        -0.0541
      3 C03        48.6670  -68.6780   33.3300 C.ar      1 HYY         0.0469
      4 C04        50.0590  -68.4980   33.4970 C.ar      1 HYY         0.0477
      5 C05        50.6360  -67.2520   33.2840 C.ar      1 HYY        -0.0457
      6 C06        49.8210  -66.1570   32.9210 C.ar      1 HYY        -0.0373
      7 C07        50.4420  -64.7750   32.6970 C.3       1 HYY         0.0214
      8 C08        49.8750  -64.0840   31.4730 C.3       1 HYY        -0.0222
      9 N09        50.0340  -62.6010   31.5870 N.4       1 HYY         0.2386
     10 C10        49.0460  -61.9660   30.8070 C.3       1 HYY        -0.0319
     11 C11        49.1650  -60.3600   30.9300 C.3       1 HYY        -0.0153
     12 C12        48.0250  -59.6430   30.2360 C.3       1 HYY        -0.0605
     13 C13        51.3650  -62.2190   31.1050 C.3       1 HYY        -0.0026
     14 C14        52.4310  -62.5930   32.1340 C.3       1 HYY         0.1217
     15 C15        53.7860  -61.9760   31.7220 C.3       1 HYY         0.0976
     16 O16        54.6830  -62.1210   32.8290 O.3       1 HYY        -0.3262
     17 C17        55.8010  -61.2160   32.8010 C.ar      1 HYY         0.0739
     18 C18        56.7180  -61.2030   33.8590 C.ar      1 HYY        -0.0482
     19 C19        57.8430  -60.2990   33.8260 C.ar      1 HYY        -0.0534
     20 C20        57.9980  -59.4670   32.7880 C.ar      1 HYY         0.0512
     21 C21        57.0720  -59.4820   31.7190 C.ar      1 HYY        -0.0534
     22 C22        55.9620  -60.3750   31.7510 C.ar      1 HYY        -0.0482
     23 N23        59.1510  -58.5620   32.7420 N.am      1 HYY        -0.1982
     24 S24        60.4660  -58.9240   31.7590 S.o2      1 HYY         0.0553
     25 C25        59.9090  -59.2260   30.0680 C.3       1 HYY         0.0783
     26 O26        61.4560  -57.8750   31.8060 O.2       1 HYY        -0.1506
     27 O27        61.1990  -60.0370   32.2630 O.2       1 HYY        -0.1506
     28 O28        52.0720  -62.1050   33.3840 O.3       1 HYY        -0.3839
     29 CL1        51.0680  -69.9020   33.9610 Cl        1 HYY        -0.0718
     30 CL2        47.9670  -70.3010   33.5530 Cl        1 HYY        -0.0764
     31 H1         47.8033  -65.4922   32.4902 H         1 HYY         0.0559
     32 H2         46.7866  -67.7248   32.8438 H         1 HYY         0.0606
     33 H3         51.7062  -67.1210   33.3959 H         1 HYY         0.0562
     34 H4         51.5280  -64.8915   32.5667 H         1 HYY         0.0479
     35 H5         50.2436  -64.1501   33.5802 H         1 HYY         0.0479
     36 H6         48.8061  -64.3274   31.3826 H         1 HYY         0.0838
     37 H7         50.4085  -64.4374   30.5783 H         1 HYY         0.0838
     38 H8         49.9323  -62.3231   32.5506 H         1 HYY         0.2036
     39 H9         48.0520  -62.2820   31.1564 H         1 HYY         0.0814
     40 H10        49.1745  -62.2578   29.7542 H         1 HYY         0.0814
     41 H11        50.1136  -60.0398   30.4743 H         1 HYY         0.0314
     42 H12        49.1589  -60.0856   31.9952 H         1 HYY         0.0314
     43 H13        48.1526  -58.5563   30.3488 H         1 HYY         0.0232
     44 H14        47.0700  -59.9489   30.6881 H         1 HYY         0.0232
     45 H15        48.0247  -59.9031   29.1672 H         1 HYY         0.0232
     46 H16        51.3909  -61.1326   30.9346 H         1 HYY         0.0841
     47 H17        51.5729  -62.7433   30.1606 H         1 HYY         0.0841
     48 H18        52.5246  -63.6880   32.1810 H         1 HYY         0.0674
     49 H19        53.6554  -60.9104   31.4823 H         1 HYY         0.0635
     50 H20        54.1864  -62.5031   30.8435 H         1 HYY         0.0635
     51 H21        56.5833  -61.8710   34.7020 H         1 HYY         0.0502
     52 H22        58.5601  -60.2936   34.6389 H         1 HYY         0.0457
     53 H23        57.2066  -58.8144   30.8756 H         1 HYY         0.0457
     54 H24        55.2472  -60.3814   30.9361 H         1 HYY         0.0502
     55 H25        59.1551  -57.7292   33.2956 H         1 HYY         0.2115
     56 H26        60.7758  -59.4618   29.4331 H         1 HYY         0.0487
     57 H27        59.4053  -58.3276   29.6819 H         1 HYY         0.0487
     58 H28        59.2068  -60.0726   30.0589 H         1 HYY         0.0487
     59 H29        52.7382  -62.3419   34.0185 H         1 HYY         0.2101
@<TRIPOS>BOND
     1    1    2 ar 
     2    1    6 ar 
     3    2    3 ar 
     4    3    4 ar 
     5    3   30 1  
     6    4    5 ar 
     7    4   29 1  
     8    5    6 ar 
     9    6    7 1  
    10    7    8 1  
    11    8    9 1  
    12    9   10 1  
    13    9   13 1  
    14   10   11 1  
    15   11   12 1  
    16   13   14 1  
    17   14   15 1  
    18   14   28 1  
    19   15   16 1  
    20   16   17 1  
    21   17   18 ar 
    22   17   22 ar 
    23   18   19 ar 
    24   19   20 ar 
    25   20   21 ar 
    26   20   23 1  
    27   21   22 ar 
    28   23   24 am 
    29   24   25 1  
    30   24   26 2  
    31   24   27 2  
    32    1   31 1  
    33    2   32 1  
    34    5   33 1  
    35    7   34 1  
    36    7   35 1  
    37    8   36 1  
    38    8   37 1  
    39    9   38 1  
    40   10   39 1  
    41   10   40 1  
    42   11   41 1  
    43   11   42 1  
    44   12   43 1  
    45   12   44 1  
    46   12   45 1  
    47   13   46 1  
    48   13   47 1  
    49   14   48 1  
    50   15   49 1  
    51   15   50 1  
    52   18   51 1  
    53   19   52 1  
    54   21   53 1  
    55   22   54 1  
    56   23   55 1  
    57   25   56 1  
    58   25   57 1  
    59   25   58 1  
    60   28   59 1  
@<TRIPOS>SUBSTRUCTURE
     1 HYY         1

