### 
### Created by X-TOOL on Mon Aug  2 16:13:12 2021
### 

@<TRIPOS>MOLECULE
6e7u_ligand
   62    63     1     0     0
SMALL
GAST_HUCK


@<TRIPOS>ATOM
      1 CAB       195.4510  -57.5150  289.7520 C.3       1 HX7         0.0783
      2 SBE       196.0710  -57.3280  291.4520 S.o2      1 HX7         0.0553
      3 OAC       197.1120  -56.2980  291.5290 O.2       1 HX7        -0.1506
      4 OAD       196.8140  -58.5190  291.8740 O.2       1 HX7        -0.1506
      5 NAV       194.7770  -56.9870  292.5300 N.am      1 HX7        -0.1982
      6 CBA       193.6230  -57.8910  292.6080 C.ar      1 HX7         0.0512
      7 CAK       192.6690  -57.8920  291.6010 C.ar      1 HX7        -0.0534
      8 CAM       191.5550  -58.7270  291.6960 C.ar      1 HX7        -0.0482
      9 CAJ       193.4590  -58.7040  293.7180 C.ar      1 HX7        -0.0534
     10 CAL       192.3810  -59.5830  293.7850 C.ar      1 HX7        -0.0482
     11 CBB       191.4430  -59.6120  292.7640 C.ar      1 HX7         0.0739
     12 OAW       190.2560  -60.4150  292.9200 O.3       1 HX7        -0.3262
     13 CAT       189.5760  -60.7130  291.7170 C.3       1 HX7         0.0976
     14 CBC       188.1720  -61.2440  292.0560 C.3       1 HX7         0.1217
     15 OAE       187.4850  -60.2830  292.7790 O.3       1 HX7        -0.3839
     16 CAU       187.4270  -61.5700  290.7470 C.3       1 HX7        -0.0026
     17 NBD       185.9790  -61.4010  290.9020 N.4       1 HX7         0.2386
     18 CAR       185.6830  -60.0220  291.2300 C.3       1 HX7        -0.0317
     19 CAP       184.3510  -59.6250  290.5970 C.3       1 HX7        -0.0128
     20 CAO       184.3580  -58.1180  290.2900 C.3       1 HX7        -0.0511
     21 CAA       183.0670  -57.7430  289.5350 C.3       1 HX7        -0.0651
     22 CAS       185.4550  -62.2800  291.9520 C.3       1 HX7        -0.0222
     23 CAQ       186.4780  -63.3600  292.3090 C.3       1 HX7         0.0214
     24 CAX       185.7470  -64.6710  292.7040 C.ar      1 HX7        -0.0373
     25 CAN       186.4840  -65.7770  293.1030 C.ar      1 HX7        -0.0457
     26 CAZ       185.8430  -66.9860  293.3370 C.ar      1 HX7         0.0477
     27 CL1       186.7870  -68.4370  293.7210 Cl        1 HX7        -0.0718
     28 CAY       184.4930  -67.1160  293.1100 C.ar      1 HX7         0.0469
     29 CL2       183.7590  -68.7480  293.1590 Cl        1 HX7        -0.0764
     30 CAI       183.7410  -66.0170  292.7490 C.ar      1 HX7        -0.0541
     31 CAH       184.3680  -64.7890  292.5360 C.ar      1 HX7        -0.0594
     32 H1        194.8986  -56.6092  289.4615 H         1 HX7         0.0487
     33 H2        194.7808  -58.3857  289.6998 H         1 HX7         0.0487
     34 H3        196.2986  -57.6631  289.0668 H         1 HX7         0.0487
     35 H4        194.8102  -56.1702  293.1060 H         1 HX7         0.2115
     36 H5        192.7889  -57.2441  290.7402 H         1 HX7         0.0457
     37 H6        190.7791  -58.6864  290.9400 H         1 HX7         0.0502
     38 H7        194.1702  -58.6558  294.5346 H         1 HX7         0.0457
     39 H8        192.2749  -60.2455  294.6364 H         1 HX7         0.0502
     40 H9        190.1344  -61.4774  291.1568 H         1 HX7         0.0635
     41 H10       189.4887  -59.8019  291.1068 H         1 HX7         0.0635
     42 H11       188.2605  -62.1586  292.6607 H         1 HX7         0.0674
     43 H12       186.6174  -60.6073  292.9902 H         1 HX7         0.2101
     44 H13       187.6379  -62.6120  290.4646 H         1 HX7         0.0841
     45 H14       187.7836  -60.8959  289.9543 H         1 HX7         0.0841
     46 H15       185.5305  -61.6350  290.0302 H         1 HX7         0.2036
     47 H16       186.4817  -59.3728  290.8419 H         1 HX7         0.0814
     48 H17       185.6180  -59.9103  292.3224 H         1 HX7         0.0814
     49 H18       183.5313  -59.8533  291.2941 H         1 HX7         0.0317
     50 H19       184.2062  -60.1886  289.6635 H         1 HX7         0.0317
     51 H20       185.2313  -57.8744  289.6671 H         1 HX7         0.0264
     52 H21       184.4099  -57.5519  291.2317 H         1 HX7         0.0264
     53 H22       183.0709  -56.6653  289.3149 H         1 HX7         0.0230
     54 H23       182.1939  -57.9868  290.1581 H         1 HX7         0.0230
     55 H24       183.0152  -58.3093  288.5934 H         1 HX7         0.0230
     56 H25       184.5321  -62.7601  291.5946 H         1 HX7         0.0838
     57 H26       185.2337  -61.6813  292.8478 H         1 HX7         0.0838
     58 H27       187.0916  -63.0158  293.1545 H         1 HX7         0.0479
     59 H28       187.1250  -63.5509  291.4401 H         1 HX7         0.0479
     60 H29       187.5574  -65.6972  293.2316 H         1 HX7         0.0562
     61 H30       182.6672  -66.1073  292.6313 H         1 HX7         0.0606
     62 H31       183.7826  -63.9261  292.2397 H         1 HX7         0.0559
@<TRIPOS>BOND
     1    1    2 1  
     2    2    3 2  
     3    2    4 2  
     4    2    5 am 
     5    5    6 1  
     6    6    7 ar 
     7    6    9 ar 
     8    7    8 ar 
     9    8   11 ar 
    10    9   10 ar 
    11   10   11 ar 
    12   11   12 1  
    13   12   13 1  
    14   13   14 1  
    15   14   15 1  
    16   14   16 1  
    17   16   17 1  
    18   17   18 1  
    19   17   22 1  
    20   18   19 1  
    21   19   20 1  
    22   20   21 1  
    23   22   23 1  
    24   23   24 1  
    25   24   25 ar 
    26   24   31 ar 
    27   25   26 ar 
    28   26   27 1  
    29   26   28 ar 
    30   28   29 1  
    31   28   30 ar 
    32   30   31 ar 
    33    1   32 1  
    34    1   33 1  
    35    1   34 1  
    36    5   35 1  
    37    7   36 1  
    38    8   37 1  
    39    9   38 1  
    40   10   39 1  
    41   13   40 1  
    42   13   41 1  
    43   14   42 1  
    44   15   43 1  
    45   16   44 1  
    46   16   45 1  
    47   17   46 1  
    48   18   47 1  
    49   18   48 1  
    50   19   49 1  
    51   19   50 1  
    52   20   51 1  
    53   20   52 1  
    54   21   53 1  
    55   21   54 1  
    56   21   55 1  
    57   22   56 1  
    58   22   57 1  
    59   23   58 1  
    60   23   59 1  
    61   25   60 1  
    62   30   61 1  
    63   31   62 1  
@<TRIPOS>SUBSTRUCTURE
     1 HX7         1

