### 
### Created by X-TOOL on Mon Aug  2 16:13:13 2021
### 

@<TRIPOS>MOLECULE
6e7v_ligand
   62    63     1     0     0
SMALL
GAST_HUCK


@<TRIPOS>ATOM
      1 C01       252.5460  -68.8650  163.3710 C.ar      1 T88         0.0477
      2 C02       251.3430  -68.2150  163.1730 C.ar      1 T88         0.0469
      3 C03       251.2750  -66.8350  163.2760 C.ar      1 T88        -0.0541
      4 C04       252.4080  -66.1140  163.6180 C.ar      1 T88        -0.0594
      5 C05       253.6040  -66.7690  163.8630 C.ar      1 T88        -0.0373
      6 C06       253.6880  -68.1370  163.6640 C.ar      1 T88        -0.0457
      7 C07       254.8890  -65.9550  163.9750 C.3       1 T88         0.0214
      8 C08       255.4440  -65.6030  162.5980 C.3       1 T88        -0.0222
      9 N09       254.9150  -64.3250  162.1580 N.4       1 T88         0.2386
     10 C10       253.5480  -64.4660  161.6800 C.3       1 T88        -0.0317
     11 C11       253.0280  -63.1040  161.2180 C.3       1 T88        -0.0128
     12 C12       251.5050  -63.0370  161.1520 C.3       1 T88        -0.0511
     13 C13       251.0110  -61.6420  160.7670 C.3       1 T88        -0.0651
     14 C14       255.7320  -63.8090  161.0810 C.3       1 T88        -0.0026
     15 C15       256.0400  -62.3410  161.3480 C.3       1 T88         0.1217
     16 C16       257.3120  -62.2580  162.1800 C.3       1 T88         0.0976
     17 O17       257.1940  -61.1720  163.0470 O.3       1 T88        -0.3262
     18 C18       258.2890  -60.3170  162.9740 C.ar      1 T88         0.0739
     19 C19       259.2670  -60.3930  163.9500 C.ar      1 T88        -0.0482
     20 C20       260.4450  -59.6850  163.7990 C.ar      1 T88        -0.0534
     21 C21       260.6580  -58.9390  162.6530 C.ar      1 T88         0.0512
     22 C22       259.7640  -59.0210  161.6010 C.ar      1 T88        -0.0534
     23 C23       258.5780  -59.7110  161.7630 C.ar      1 T88        -0.0482
     24 N24       261.8980  -58.2090  162.4880 N.am      1 T88        -0.1982
     25 S25       262.9770  -58.6420  161.2410 S.o2      1 T88         0.0553
     26 C26       262.0910  -58.8070  159.6640 C.3       1 T88         0.0783
     27 O27       263.6980  -59.8720  161.5720 O.2       1 T88        -0.1506
     28 O28       264.0760  -57.6810  161.1380 O.2       1 T88        -0.1506
     29 O29       254.9850  -61.7660  162.0620 O.3       1 T88        -0.3839
     30 CL1       249.8790  -69.1720  162.8210 Cl        1 T88        -0.0764
     31 CL2       252.6050  -70.6440  163.2700 Cl        1 T88        -0.0718
     32 H1        250.3389  -66.3211  163.0897 H         1 T88         0.0606
     33 H2        252.3583  -65.0338  163.6941 H         1 T88         0.0559
     34 H3        254.6465  -68.6379  163.7374 H         1 T88         0.0562
     35 H4        255.6391  -66.5432  164.5240 H         1 T88         0.0479
     36 H5        254.6778  -65.0257  164.5244 H         1 T88         0.0479
     37 H6        255.1546  -66.3834  161.8788 H         1 T88         0.0838
     38 H7        256.5410  -65.5432  162.6524 H         1 T88         0.0838
     39 H8        254.9308  -63.6786  162.9313 H         1 T88         0.2036
     40 H9        252.9120  -64.8448  162.4936 H         1 T88         0.0814
     41 H10       253.5250  -65.1726  160.8373 H         1 T88         0.0814
     42 H11       253.4315  -62.8965  160.2159 H         1 T88         0.0317
     43 H12       253.3822  -62.3366  161.9220 H         1 T88         0.0317
     44 H13       251.0945  -63.2998  162.1381 H         1 T88         0.0264
     45 H14       251.1495  -63.7594  160.4025 H         1 T88         0.0264
     46 H15       249.9116  -61.6393  160.7314 H         1 T88         0.0230
     47 H16       251.4105  -61.3714  159.7785 H         1 T88         0.0230
     48 H17       251.3555  -60.9119  161.5141 H         1 T88         0.0230
     49 H18       255.1894  -63.9042  160.1289 H         1 T88         0.0841
     50 H19       256.6716  -64.3783  161.0261 H         1 T88         0.0841
     51 H20       256.1787  -61.8081  160.3958 H         1 T88         0.0674
     52 H21       258.1803  -62.1152  161.5200 H         1 T88         0.0635
     53 H22       257.4398  -63.1846  162.7588 H         1 T88         0.0635
     54 H23       259.1101  -61.0058  164.8303 H         1 T88         0.0502
     55 H24       261.1999  -59.7142  164.5764 H         1 T88         0.0457
     56 H25       259.9927  -58.5461  160.6538 H         1 T88         0.0457
     57 H26       257.8735  -59.7780  160.9418 H         1 T88         0.0502
     58 H27       262.1206  -57.4532  163.1037 H         1 T88         0.2115
     59 H28       262.8013  -59.0863  158.8719 H         1 T88         0.0487
     60 H29       261.6153  -57.8486  159.4086 H         1 T88         0.0487
     61 H30       261.3199  -59.5860  159.7564 H         1 T88         0.0487
     62 H31       254.8635  -62.2359  162.8787 H         1 T88         0.2101
@<TRIPOS>BOND
     1    1    2 ar 
     2    1    6 ar 
     3    1   31 1  
     4    2    3 ar 
     5    2   30 1  
     6    3    4 ar 
     7    4    5 ar 
     8    5    6 ar 
     9    5    7 1  
    10    7    8 1  
    11    8    9 1  
    12    9   10 1  
    13    9   14 1  
    14   10   11 1  
    15   11   12 1  
    16   12   13 1  
    17   14   15 1  
    18   15   16 1  
    19   15   29 1  
    20   16   17 1  
    21   17   18 1  
    22   18   19 ar 
    23   18   23 ar 
    24   19   20 ar 
    25   20   21 ar 
    26   21   22 ar 
    27   21   24 1  
    28   22   23 ar 
    29   24   25 am 
    30   25   26 1  
    31   25   27 2  
    32   25   28 2  
    33    3   32 1  
    34    4   33 1  
    35    6   34 1  
    36    7   35 1  
    37    7   36 1  
    38    8   37 1  
    39    8   38 1  
    40    9   39 1  
    41   10   40 1  
    42   10   41 1  
    43   11   42 1  
    44   11   43 1  
    45   12   44 1  
    46   12   45 1  
    47   13   46 1  
    48   13   47 1  
    49   13   48 1  
    50   14   49 1  
    51   14   50 1  
    52   15   51 1  
    53   16   52 1  
    54   16   53 1  
    55   19   54 1  
    56   20   55 1  
    57   22   56 1  
    58   23   57 1  
    59   24   58 1  
    60   26   59 1  
    61   26   60 1  
    62   26   61 1  
    63   29   62 1  
@<TRIPOS>SUBSTRUCTURE
     1 T88         1

