### 
### Created by X-TOOL on Mon Aug  2 16:13:13 2021
### 

@<TRIPOS>MOLECULE
6e7w_ligand
   59    60     1     0     0
SMALL
GAST_HUCK


@<TRIPOS>ATOM
      1 C10       187.5570  -60.3370  290.8990 C.3       1 HXM        -0.0264
      2 C12       188.0300  -58.9010  291.0820 C.3       1 HXM        -0.0218
      3 C13       189.6770  -61.3570  291.1800 C.3       1 HXM        -0.0023
      4 C14       190.7060  -61.4600  292.3000 C.3       1 HXM         0.1217
      5 C17       193.6980  -59.4890  292.9040 C.ar      1 HXM         0.0739
      6 C18       194.5800  -59.6000  293.9660 C.ar      1 HXM        -0.0482
      7 C19       195.7130  -58.8050  294.0130 C.ar      1 HXM        -0.0534
      8 C22       193.9490  -58.5790  291.8890 C.ar      1 HXM        -0.0482
      9 N23       197.1960  -57.1230  293.0000 N.am      1 HXM        -0.1982
     10 C01       185.7630  -66.0500  293.0370 C.ar      1 HXM        -0.0541
     11 C02       186.4700  -67.1650  293.4480 C.ar      1 HXM         0.0469
     12 C03       187.8330  -67.0790  293.6700 C.ar      1 HXM         0.0477
     13 C04       188.4990  -65.8770  293.4690 C.ar      1 HXM        -0.0457
     14 C05       187.7960  -64.7650  293.0350 C.ar      1 HXM        -0.0373
     15 C06       186.4290  -64.8500  292.8230 C.ar      1 HXM        -0.0594
     16 C07       188.5340  -63.4610  292.7300 C.3       1 HXM         0.0214
     17 C08       187.7210  -62.5290  291.8260 C.3       1 HXM        -0.0219
     18 N09       188.3500  -61.2200  291.7420 N.4       1 HXM         0.2403
     19 C11       186.0700  -60.4910  291.2330 C.3       1 HXM        -0.0218
     20 C15       191.9790  -60.7310  291.9010 C.3       1 HXM         0.0976
     21 O16       192.4260  -60.0410  293.0250 O.3       1 HXM        -0.3262
     22 C20       195.9510  -57.8790  293.0100 C.ar      1 HXM         0.0512
     23 C21       195.0750  -57.7730  291.9440 C.ar      1 HXM        -0.0534
     24 S24       198.3910  -57.4700  291.8240 S.o2      1 HXM         0.0553
     25 C25       197.6440  -57.5800  290.1700 C.3       1 HXM         0.0783
     26 O26       199.1170  -58.6980  292.1580 O.2       1 HXM        -0.1506
     27 O27       199.4690  -56.4780  291.8590 O.2       1 HXM        -0.1506
     28 O28       190.1860  -60.8690  293.4610 O.3       1 HXM        -0.3839
     29 CL1       188.7130  -68.5240  294.2310 Cl        1 HXM        -0.0718
     30 CL2       185.6440  -68.7350  293.6480 Cl        1 HXM        -0.0764
     31 H1        187.7070  -60.6218  289.8472 H         1 HXM         0.0846
     32 H2        187.4309  -58.2337  290.4451 H         1 HXM         0.0284
     33 H3        189.0899  -58.8250  290.7978 H         1 HXM         0.0284
     34 H4        187.9108  -58.6071  292.1353 H         1 HXM         0.0284
     35 H5        189.7191  -62.2654  290.5612 H         1 HXM         0.0841
     36 H6        189.9020  -60.4785  290.5575 H         1 HXM         0.0841
     37 H7        190.9334  -62.5187  292.4934 H         1 HXM         0.0674
     38 H8        194.3833  -60.3099  294.7613 H         1 HXM         0.0502
     39 H9        196.4134  -58.9071  294.8341 H         1 HXM         0.0457
     40 H10       193.2646  -58.4978  291.0523 H         1 HXM         0.0502
     41 H11       197.3522  -56.4041  293.6774 H         1 HXM         0.2115
     42 H12       184.6919  -66.1122  292.8822 H         1 HXM         0.0606
     43 H13       189.5654  -65.8092  293.6511 H         1 HXM         0.0562
     44 H14       185.8783  -63.9779  292.4894 H         1 HXM         0.0559
     45 H15       189.4830  -63.7009  292.2281 H         1 HXM         0.0479
     46 H16       188.7412  -62.9421  293.6775 H         1 HXM         0.0479
     47 H17       186.7079  -62.4173  292.2397 H         1 HXM         0.0838
     48 H18       187.6595  -62.9658  290.8183 H         1 HXM         0.0838
     49 H19       188.4177  -60.8243  292.6666 H         1 HXM         0.2039
     50 H20       185.4789  -59.8206  290.5918 H         1 HXM         0.0284
     51 H21       185.9024  -60.2307  292.2885 H         1 HXM         0.0284
     52 H22       185.7609  -61.5321  291.0585 H         1 HXM         0.0284
     53 H23       191.7691  -60.0251  291.0839 H         1 HXM         0.0635
     54 H24       192.7411  -61.4539  291.5744 H         1 HXM         0.0635
     55 H25       195.2696  -57.0593  291.1517 H         1 HXM         0.0457
     56 H26       198.4256  -57.8031  289.4288 H         1 HXM         0.0487
     57 H27       197.1642  -56.6223  289.9199 H         1 HXM         0.0487
     58 H28       196.8903  -58.3812  290.1606 H         1 HXM         0.0487
     59 H29       190.8251  -60.9328  294.1610 H         1 HXM         0.2101
@<TRIPOS>BOND
     1    1    2 1  
     2   18    1 1  
     3    1   19 1  
     4    4    3 1  
     5    3   18 1  
     6   20    4 1  
     7    4   28 1  
     8    5    6 ar 
     9    5    8 ar 
    10   21    5 1  
    11    6    7 ar 
    12    7   22 ar 
    13    8   23 ar 
    14   22    9 1  
    15    9   24 am 
    16   10   11 ar 
    17   15   10 ar 
    18   12   11 ar 
    19   11   30 1  
    20   13   12 ar 
    21   12   29 1  
    22   14   13 ar 
    23   14   15 ar 
    24   16   14 1  
    25   17   16 1  
    26   18   17 1  
    27   20   21 1  
    28   22   23 ar 
    29   24   25 1  
    30   24   26 2  
    31   24   27 2  
    32    1   31 1  
    33    2   32 1  
    34    2   33 1  
    35    2   34 1  
    36    3   35 1  
    37    3   36 1  
    38    4   37 1  
    39    6   38 1  
    40    7   39 1  
    41    8   40 1  
    42    9   41 1  
    43   10   42 1  
    44   13   43 1  
    45   15   44 1  
    46   16   45 1  
    47   16   46 1  
    48   17   47 1  
    49   17   48 1  
    50   18   49 1  
    51   19   50 1  
    52   19   51 1  
    53   19   52 1  
    54   20   53 1  
    55   20   54 1  
    56   23   55 1  
    57   25   56 1  
    58   25   57 1  
    59   25   58 1  
    60   28   59 1  
@<TRIPOS>SUBSTRUCTURE
     1 HXM         1

