### 
### Created by X-TOOL on Mon Aug  2 16:13:14 2021
### 

@<TRIPOS>MOLECULE
6e7x_ligand
   62    63     1     0     0
SMALL
GAST_HUCK


@<TRIPOS>ATOM
      1 C01       -15.5710  -67.6950  163.9620 C.ar      1 T97         0.0477
      2 C02       -16.9280  -67.8520  163.7530 C.ar      1 T97         0.0469
      3 C03       -17.7040  -66.7670  163.3890 C.ar      1 T97        -0.0541
      4 C04       -17.1170  -65.5220  163.2350 C.ar      1 T97        -0.0594
      5 C05       -15.7560  -65.3610  163.4450 C.ar      1 T97        -0.0373
      6 C06       -14.9790  -66.4500  163.8090 C.ar      1 T97        -0.0457
      7 C07       -15.1200  -63.9800  163.2680 C.3       1 T97         0.0214
      8 C08       -15.9600  -63.0840  162.3510 C.3       1 T97        -0.0221
      9 N09       -15.2500  -61.8610  162.0080 N.4       1 T97         0.2387
     10 C10       -15.9750  -61.1670  160.9580 C.3       1 T97        -0.0293
     11 C11       -16.9210  -60.1280  161.5570 C.3       1 T97        -0.0064
     12 C12       -17.8380  -59.5400  160.4830 C.3       1 T97        -0.0578
     13 C13       -16.1450  -59.0290  162.2820 C.3       1 T97        -0.0578
     14 C14       -13.9110  -62.1720  161.5390 C.3       1 T97        -0.0026
     15 C15       -12.9320  -62.1650  162.7110 C.3       1 T97         0.1217
     16 C16       -11.6050  -61.5320  162.3010 C.3       1 T97         0.0976
     17 O17       -10.9130  -61.2820  163.4900 O.3       1 T97        -0.3262
     18 C18        -9.7900  -60.4500  163.4010 C.ar      1 T97         0.0739
     19 C19        -9.5660  -59.6550  162.2870 C.ar      1 T97        -0.0482
     20 C20        -8.4430  -58.8410  162.2340 C.ar      1 T97        -0.0534
     21 C21        -7.5480  -58.8240  163.2950 C.ar      1 T97         0.0512
     22 C22        -7.7760  -59.6170  164.4050 C.ar      1 T97        -0.0534
     23 C23        -8.8950  -60.4290  164.4580 C.ar      1 T97        -0.0482
     24 N24        -6.3710  -57.9760  163.2530 N.am      1 T97        -0.1982
     25 S25        -5.0950  -58.3270  162.1740 S.o2      1 T97         0.0553
     26 C26        -5.7360  -58.5960  160.4960 C.3       1 T97         0.0783
     27 O27        -4.0880  -57.2630  162.1940 O.2       1 T97        -0.1506
     28 O28        -4.3100  -59.4780  162.6300 O.2       1 T97        -0.1506
     29 O29       -13.4770  -61.4200  163.7620 O.3       1 T97        -0.3839
     30 CL1       -17.6680  -69.4630  163.9540 Cl        1 T97        -0.0764
     31 CL2       -14.5940  -69.1100  164.4290 Cl        1 T97        -0.0718
     32 H1        -18.7683  -66.8904  163.2247 H         1 T97         0.0606
     33 H2        -17.7238  -64.6704  162.9493 H         1 T97         0.0559
     34 H3        -13.9143  -66.3291  163.9732 H         1 T97         0.0562
     35 H4        -14.1191  -64.1019  162.8283 H         1 T97         0.0479
     36 H5        -15.0316  -63.4990  164.2533 H         1 T97         0.0479
     37 H6        -16.8959  -62.8219  162.8662 H         1 T97         0.0838
     38 H7        -16.1916  -63.6344  161.4272 H         1 T97         0.0838
     39 H8        -15.1893  -61.2706  162.8227 H         1 T97         0.2036
     40 H9        -16.5593  -61.8968  160.3784 H         1 T97         0.0817
     41 H10       -15.2568  -60.6627  160.2948 H         1 T97         0.0817
     42 H11       -17.5543  -60.6370  162.2985 H         1 T97         0.0347
     43 H12       -18.5076  -58.7963  160.9397 H         1 T97         0.0234
     44 H13       -18.4371  -60.3446  160.0317 H         1 T97         0.0234
     45 H14       -17.2287  -59.0562  159.7054 H         1 T97         0.0234
     46 H15       -15.4961  -59.4815  163.0462 H         1 T97         0.0234
     47 H16       -16.8520  -58.3378  162.7640 H         1 T97         0.0234
     48 H17       -15.5283  -58.4767  161.5577 H         1 T97         0.0234
     49 H18       -13.5998  -61.4189  160.8001 H         1 T97         0.0841
     50 H19       -13.9111  -63.1673  161.0706 H         1 T97         0.0841
     51 H20       -12.7559  -63.1989  163.0427 H         1 T97         0.0674
     52 H21       -11.7817  -60.5924  161.7570 H         1 T97         0.0635
     53 H22       -11.0329  -62.2225  161.6639 H         1 T97         0.0635
     54 H23       -10.2662  -59.6693  161.4596 H         1 T97         0.0502
     55 H24        -8.2649  -58.2188  161.3644 H         1 T97         0.0457
     56 H25        -7.0776  -59.6023  165.2339 H         1 T97         0.0457
     57 H26        -9.0717  -61.0501  165.3287 H         1 T97         0.0502
     58 H27        -6.3070  -57.1828  163.8585 H         1 T97         0.2115
     59 H28        -4.9009  -58.8204  159.8161 H         1 T97         0.0487
     60 H29        -6.2552  -57.6893  160.1521 H         1 T97         0.0487
     61 H30        -6.4400  -59.4412  160.5035 H         1 T97         0.0487
     62 H31       -12.8754  -61.4246  164.4972 H         1 T97         0.2101
@<TRIPOS>BOND
     1    1    2 ar 
     2    1    6 ar 
     3    1   31 1  
     4    2    3 ar 
     5    2   30 1  
     6    3    4 ar 
     7    4    5 ar 
     8    5    6 ar 
     9    5    7 1  
    10    7    8 1  
    11    8    9 1  
    12    9   10 1  
    13    9   14 1  
    14   10   11 1  
    15   11   12 1  
    16   11   13 1  
    17   14   15 1  
    18   15   16 1  
    19   15   29 1  
    20   16   17 1  
    21   17   18 1  
    22   18   19 ar 
    23   18   23 ar 
    24   19   20 ar 
    25   20   21 ar 
    26   21   22 ar 
    27   21   24 1  
    28   22   23 ar 
    29   24   25 am 
    30   25   26 1  
    31   25   27 2  
    32   25   28 2  
    33    3   32 1  
    34    4   33 1  
    35    6   34 1  
    36    7   35 1  
    37    7   36 1  
    38    8   37 1  
    39    8   38 1  
    40    9   39 1  
    41   10   40 1  
    42   10   41 1  
    43   11   42 1  
    44   12   43 1  
    45   12   44 1  
    46   12   45 1  
    47   13   46 1  
    48   13   47 1  
    49   13   48 1  
    50   14   49 1  
    51   14   50 1  
    52   15   51 1  
    53   16   52 1  
    54   16   53 1  
    55   19   54 1  
    56   20   55 1  
    57   22   56 1  
    58   23   57 1  
    59   24   58 1  
    60   26   59 1  
    61   26   60 1  
    62   26   61 1  
    63   29   62 1  
@<TRIPOS>SUBSTRUCTURE
     1 T97         1

