### 
### Created by X-TOOL on Mon Aug  2 16:13:14 2021
### 

@<TRIPOS>MOLECULE
6e8x_ligand
   54    57     1     0     0
SMALL
GAST_HUCK


@<TRIPOS>ATOM
      1 CAY        -3.7340    0.9540   13.7720 C.3       1 J0A         0.0579
      2 OAX        -3.3340    2.2520   13.4420 O.3       1 J0A        -0.3224
      3 CAB        -3.8580    3.4370   13.9600 C.ar      1 J0A         0.1244
      4 CAA        -3.2100    4.5790   13.5550 C.ar      1 J0A        -0.0352
      5 CAF        -3.7780    5.7820   14.0190 C.ar      1 J0A        -0.0374
      6 CAJ        -3.2020    7.0030   13.6650 C.ar      1 J0A        -0.0424
      7 CAN        -1.9400    7.0050   12.7610 C.3       1 J0A        -0.0229
      8 CAM        -1.4890    8.3660   12.1580 C.3       1 J0A        -0.0349
      9 CAL        -2.3030    9.6670   12.4420 C.3       1 J0A         0.0086
     10 CAR        -3.2850   10.1140   11.3490 C.3       1 J0A        -0.0552
     11 CAQ        -1.4940   10.8330   12.8560 C.3       1 J0A         0.0965
     12 OAS        -0.9590   11.4400   11.7360 O.3       1 J0A        -0.2188
     13 SAT         0.6270   11.7580   11.6740 S.o2      1 J0A         0.1600
     14 OAU         1.1840   10.8560   10.4410 O.2       1 J0A        -0.1270
     15 OAV         1.3720   11.4500   13.0750 O.2       1 J0A        -0.1270
     16 NAW         0.8120   13.3560   11.1220 N.am      1 J0A        -0.2415
     17 CAP        -2.4590   11.7510   13.6610 C.3       1 J0A        -0.0218
     18 CAO        -3.4980   10.7350   14.4370 C.3       1 J0A        -0.0394
     19 CAK        -3.0140    9.4770   13.6870 C.3       1 J0A        -0.0054
     20 CAI        -3.7510    8.2330   14.1350 C.ar      1 J0A        -0.0451
     21 CAH        -4.9330    8.1730   15.0150 C.ar      1 J0A        -0.0732
     22 CAG        -5.4770    6.8440   15.3320 C.ar      1 J0A        -0.0761
     23 CAE        -4.8970    5.7340   14.8070 C.ar      1 J0A        -0.0462
     24 CAD        -5.5060    4.5830   15.2150 C.ar      1 J0A        -0.0339
     25 CAC        -4.9150    3.4810   14.7660 C.ar      1 J0A         0.1557
     26 OAZ        -5.5550    2.3470   15.1570 O.3       1 J0A        -0.1557
     27 SBA        -5.4410    1.3700   16.4720 S.o2      1 J0A         0.1774
     28 OBB        -6.9660    1.5080   16.9600 O.2       1 J0A        -0.1231
     29 OBC        -4.5850    1.6320   17.7380 O.2       1 J0A        -0.1231
     30 NBD        -4.8630   -0.1420   16.1790 N.am      1 J0A        -0.2382
     31 H1         -3.1362    0.2294   13.1996 H         1 J0A         0.0575
     32 H2         -4.7987    0.8251   13.5276 H         1 J0A         0.0575
     33 H3         -3.5818    0.7859   14.8484 H         1 J0A         0.0575
     34 H4         -2.3278    4.5561   12.9256 H         1 J0A         0.0472
     35 H5         -2.1353    6.3216   11.9215 H         1 J0A         0.0410
     36 H6         -1.1039    6.6180   13.3620 H         1 J0A         0.0410
     37 H7         -1.4725    8.2368   11.0658 H         1 J0A         0.0293
     38 H8         -0.4668    8.5483   12.5211 H         1 J0A         0.0293
     39 H9         -3.7930   11.0363   11.6674 H         1 J0A         0.0237
     40 H10        -4.0314    9.3236   11.1811 H         1 J0A         0.0237
     41 H11        -2.7340   10.3024   10.4158 H         1 J0A         0.0237
     42 H12        -0.6693   10.5106   13.5086 H         1 J0A         0.0627
     43 H13         1.7269   13.7451   11.0145 H         1 J0A         0.1654
     44 H14         0.0059   13.9065   10.9050 H         1 J0A         0.1654
     45 H15        -3.0104   12.4174   12.9814 H         1 J0A         0.0293
     46 H16        -1.8965   12.3537   14.3893 H         1 J0A         0.0293
     47 H17        -4.5554   10.9709   14.2466 H         1 J0A         0.0288
     48 H18        -3.3231   10.6848   15.5218 H         1 J0A         0.0288
     49 H19        -2.1078    9.2904   14.2819 H         1 J0A         0.0440
     50 H20        -5.3839    9.0748   15.4132 H         1 J0A         0.0520
     51 H21        -6.3387    6.7507   15.9830 H         1 J0A         0.0500
     52 H22        -6.3878    4.5691   15.8453 H         1 J0A         0.0468
     53 H23        -4.7651   -0.7942   16.9307 H         1 J0A         0.1657
     54 H24        -4.6095   -0.4089   15.2492 H         1 J0A         0.1657
@<TRIPOS>BOND
     1    1    2 1  
     2    2    3 1  
     3    3    4 ar 
     4    3   25 ar 
     5    4    5 ar 
     6    5    6 ar 
     7    5   23 ar 
     8    6    7 1  
     9    6   20 ar 
    10    7    8 1  
    11    8    9 1  
    12    9   10 1  
    13    9   11 1  
    14    9   19 1  
    15   11   12 1  
    16   11   17 1  
    17   12   13 1  
    18   13   14 2  
    19   13   15 2  
    20   13   16 am 
    21   17   18 1  
    22   18   19 1  
    23   19   20 1  
    24   20   21 ar 
    25   21   22 ar 
    26   22   23 ar 
    27   23   24 ar 
    28   24   25 ar 
    29   25   26 1  
    30   26   27 1  
    31   27   28 2  
    32   27   29 2  
    33   27   30 am 
    34    1   31 1  
    35    1   32 1  
    36    1   33 1  
    37    4   34 1  
    38    7   35 1  
    39    7   36 1  
    40    8   37 1  
    41    8   38 1  
    42   10   39 1  
    43   10   40 1  
    44   10   41 1  
    45   11   42 1  
    46   16   43 1  
    47   16   44 1  
    48   17   45 1  
    49   17   46 1  
    50   18   47 1  
    51   18   48 1  
    52   19   49 1  
    53   21   50 1  
    54   22   51 1  
    55   24   52 1  
    56   30   53 1  
    57   30   54 1  
@<TRIPOS>SUBSTRUCTURE
     1 J0A         1

