### 
### Created by X-TOOL on Mon Aug  2 16:13:14 2021
### 

@<TRIPOS>MOLECULE
6e91_ligand
   54    56     1     0     0
SMALL
GAST_HUCK


@<TRIPOS>ATOM
      1 CBB        -4.2780   13.6760   10.9170 C.3       1 J04         0.0563
      2 OBA        -3.2530   13.6430   11.8700 O.3       1 J04        -0.3297
      3 CAU        -3.1140   12.3690   12.4490 C.ar      1 J04         0.1048
      4 CAT        -3.9930   11.3370   12.1210 C.ar      1 J04        -0.0488
      5 CAV        -2.0750   12.1470   13.3380 C.ar      1 J04         0.1394
      6 OAZ        -1.1810   13.1800   13.6670 O.3       1 J04        -0.3342
      7 CBC         0.0780   13.0470   13.0760 C.3       1 J04         0.0526
      8 CAW        -1.9060   10.9040   13.9170 C.ar      1 J04         0.1048
      9 OAY        -0.8110   10.7930   14.8080 O.3       1 J04        -0.3297
     10 CBD        -0.5130    9.5440   15.3740 C.3       1 J04         0.0563
     11 CAX        -2.7950    9.8610   13.5890 C.ar      1 J04        -0.0488
     12 CAS        -3.8540   10.0630   12.6870 C.ar      1 J04        -0.0478
     13 CAR        -4.8890    8.9690   12.2870 C.3       1 J04         0.0567
     14 NAI        -4.8460    7.6960   13.0290 N.pl3     1 J04        -0.2908
     15 CAJ        -4.8110    6.4900   12.3410 C.3       1 J04         0.0571
     16 CAH        -4.8990    7.6420   14.4180 C.2       1 J04         0.0076
     17 CAG        -4.8590    6.4240   15.1260 C.2       1 J04        -0.0714
     18 CAE        -4.8020    5.2960   14.4150 C.ar      1 J04        -0.0658
     19 CAD        -4.7530    4.0810   15.1360 C.ar      1 J04        -0.0492
     20 CAF        -4.7700    5.2960   13.0610 C.ar      1 J04        -0.0411
     21 CAA        -4.6970    4.0910   12.3330 C.ar      1 J04        -0.0430
     22 CAB        -4.6600    2.9050   13.0390 C.ar      1 J04         0.1099
     23 OAK        -4.5770    1.6460   12.4020 O.3       1 J04        -0.3299
     24 CAL        -4.9000    1.6220   11.0330 C.3       1 J04         0.0557
     25 CAC        -4.6800    2.9100   14.3980 C.ar      1 J04         0.1393
     26 OAM        -4.5830    1.6430   14.9740 O.3       1 J04        -0.1649
     27 SAN        -5.2120    1.2730   16.4490 S.o2      1 J04         0.1754
     28 OAO        -6.7570    1.7460   16.4460 O.2       1 J04        -0.1234
     29 OAP        -4.3140    1.9210   17.6270 O.2       1 J04        -0.1234
     30 NAQ        -5.0750   -0.4100   16.4690 N.am      1 J04        -0.2385
     31 H1         -4.3508   14.6878   10.4917 H         1 J04         0.0572
     32 H2         -5.2321   13.4099   11.3953 H         1 J04         0.0572
     33 H3         -4.0565   12.9563   10.1151 H         1 J04         0.0572
     34 H4         -4.7961   11.5235   11.4173 H         1 J04         0.0365
     35 H5          0.7167   13.8893   13.3803 H         1 J04         0.0565
     36 H6         -0.0292   13.0450   11.9812 H         1 J04         0.0565
     37 H7          0.5378   12.1021   13.4012 H         1 J04         0.0565
     38 H8          0.3605    9.6403   16.0357 H         1 J04         0.0572
     39 H9         -0.2892    8.8229   14.5741 H         1 J04         0.0572
     40 H10        -1.3765    9.1897   15.9560 H         1 J04         0.0572
     41 H11        -2.6597    8.8849   14.0406 H         1 J04         0.0365
     42 H12        -4.7309    8.7373   11.2234 H         1 J04         0.0671
     43 H13        -5.8928    9.3976   12.4237 H         1 J04         0.0671
     44 H14        -3.9159    6.5106   11.7019 H         1 J04         0.0665
     45 H15        -5.7113    6.4538   11.7101 H         1 J04         0.0665
     46 H16        -4.9740    8.5731   14.9777 H         1 J04         0.0974
     47 H17        -4.8741    6.4040   16.2147 H         1 J04         0.0255
     48 H18        -4.7717    4.0658   16.2197 H         1 J04         0.0420
     49 H19        -4.6707    4.0954   11.2493 H         1 J04         0.0438
     50 H20        -4.7996    0.5955   10.6505 H         1 J04         0.0571
     51 H21        -4.2171    2.2865   10.4834 H         1 J04         0.0571
     52 H22        -5.9359    1.9651   10.8946 H         1 J04         0.0571
     53 H23        -5.3872   -0.9276   17.2656 H         1 J04         0.1657
     54 H24        -4.6817   -0.8890   15.6842 H         1 J04         0.1657
@<TRIPOS>BOND
     1    1    2 1  
     2    2    3 1  
     3    3    4 ar 
     4    3    5 ar 
     5    4   12 ar 
     6    5    6 1  
     7    5    8 ar 
     8    6    7 1  
     9    8    9 1  
    10    8   11 ar 
    11    9   10 1  
    12   11   12 ar 
    13   12   13 1  
    14   13   14 1  
    15   14   15 1  
    16   14   16 1  
    17   15   20 1  
    18   16   17 2  
    19   17   18 1  
    20   18   19 ar 
    21   18   20 ar 
    22   19   25 ar 
    23   20   21 ar 
    24   21   22 ar 
    25   22   23 1  
    26   22   25 ar 
    27   23   24 1  
    28   25   26 1  
    29   26   27 1  
    30   27   28 2  
    31   27   29 2  
    32   27   30 am 
    33    1   31 1  
    34    1   32 1  
    35    1   33 1  
    36    4   34 1  
    37    7   35 1  
    38    7   36 1  
    39    7   37 1  
    40   10   38 1  
    41   10   39 1  
    42   10   40 1  
    43   11   41 1  
    44   13   42 1  
    45   13   43 1  
    46   15   44 1  
    47   15   45 1  
    48   16   46 1  
    49   17   47 1  
    50   19   48 1  
    51   21   49 1  
    52   24   50 1  
    53   24   51 1  
    54   24   52 1  
    55   30   53 1  
    56   30   54 1  
@<TRIPOS>SUBSTRUCTURE
     1 J04         1

