### 
### Created by X-TOOL on Mon Aug  2 16:13:14 2021
### 

@<TRIPOS>MOLECULE
6e92_ligand
   50    52     1     0     0
SMALL
GAST_HUCK


@<TRIPOS>ATOM
      1 CAZ        -3.4870   14.4350   11.9710 C.3       1 HZY         0.0563
      2 OAW        -2.7810   13.3820   11.3720 O.3       1 HZY        -0.3297
      3 CAN        -3.3690   12.1200   11.5220 C.ar      1 HZY         0.1048
      4 CAM        -2.9520   11.3090   12.5620 C.ar      1 HZY        -0.0488
      5 CAO        -4.3510   11.6810   10.6390 C.ar      1 HZY         0.1394
      6 OAX        -4.7710   12.5090    9.5860 O.3       1 HZY        -0.3342
      7 CBA        -4.4500   12.0570    8.2980 C.3       1 HZY         0.0526
      8 CAP        -4.9230   10.4280   10.8140 C.ar      1 HZY         0.1048
      9 OAY        -5.9120    9.9660    9.9330 O.3       1 HZY        -0.3297
     10 CBB        -7.0630   10.7560    9.8540 C.3       1 HZY         0.0563
     11 CAQ        -4.5040    9.6170   11.8610 C.ar      1 HZY        -0.0488
     12 CAL        -3.5210   10.0580   12.7360 C.ar      1 HZY        -0.0475
     13 CAK        -3.0220    9.2150   13.9080 C.3       1 HZY         0.0581
     14 NAI        -3.6660    7.9340   14.1770 N.pl3     1 HZY        -0.2870
     15 CAJ        -2.8830    6.8130   14.1930 C.3       1 HZY         0.0602
     16 CAH        -5.0150    7.7910   14.4870 C.2       1 HZY         0.0138
     17 CAG        -5.5940    6.5450   14.7840 C.2       1 HZY        -0.0635
     18 CAE        -4.8030    5.4900   14.7680 C.ar      1 HZY        -0.0566
     19 CAD        -5.3570    4.2250   15.0600 C.ar      1 HZY        -0.0434
     20 CAF        -3.4930    5.6140   14.4800 C.ar      1 HZY        -0.0342
     21 CAA        -2.6600    4.5140   14.4730 C.ar      1 HZY        -0.0742
     22 CAB        -3.1960    3.2970   14.7490 C.ar      1 HZY        -0.0452
     23 CAC        -4.5040    3.1460   15.0550 C.ar      1 HZY         0.1086
     24 OAR        -4.8550    1.8130   15.2560 O.3       1 HZY        -0.1613
     25 SAS        -5.4890    1.1100   16.5890 S.o2      1 HZY         0.1772
     26 OAT        -4.7410    1.5470   17.9620 O.2       1 HZY        -0.1231
     27 OAU        -7.0880    1.3750   16.5790 O.2       1 HZY        -0.1231
     28 NAV        -5.1340   -0.5160   16.3410 N.am      1 HZY        -0.2383
     29 H1         -2.9504   15.3800   11.8004 H         1 HZY         0.0572
     30 H2         -3.5716   14.2515   13.0523 H         1 HZY         0.0572
     31 H3         -4.4927   14.4997   11.5302 H         1 HZY         0.0572
     32 H4         -2.1799   11.6524   13.2410 H         1 HZY         0.0365
     33 H5         -4.8230   12.7759    7.5536 H         1 HZY         0.0565
     34 H6         -4.9172   11.0760    8.1266 H         1 HZY         0.0565
     35 H7         -3.3580   11.9646    8.2034 H         1 HZY         0.0565
     36 H8         -7.7683   10.3060    9.1398 H         1 HZY         0.0572
     37 H9         -6.7917   11.7664    9.5141 H         1 HZY         0.0572
     38 H10        -7.5346   10.8171   10.8459 H         1 HZY         0.0572
     39 H11        -4.9462    8.6364   11.9951 H         1 HZY         0.0365
     40 H12        -3.1291    9.8274   14.8154 H         1 HZY         0.0674
     41 H13        -1.9565    9.0096   13.7279 H         1 HZY         0.0674
     42 H14        -2.0973    6.9711   14.9465 H         1 HZY         0.0667
     43 H15        -2.4233    6.7184   13.1982 H         1 HZY         0.0667
     44 H16        -5.6463    8.6783   14.5000 H         1 HZY         0.1030
     45 H17        -6.6537    6.4545   15.0180 H         1 HZY         0.0271
     46 H18        -6.4122    4.1086   15.2793 H         1 HZY         0.0440
     47 H19        -1.6038    4.6186   14.2526 H         1 HZY         0.0508
     48 H20        -2.5568    2.4219   14.7232 H         1 HZY         0.0461
     49 H21        -5.4122   -1.1974   17.0180 H         1 HZY         0.1657
     50 H22        -4.6448   -0.8009   15.5167 H         1 HZY         0.1657
@<TRIPOS>BOND
     1    1    2 1  
     2    2    3 1  
     3    3    4 ar 
     4    3    5 ar 
     5    4   12 ar 
     6    5    6 1  
     7    5    8 ar 
     8    6    7 1  
     9    8    9 1  
    10    8   11 ar 
    11    9   10 1  
    12   11   12 ar 
    13   12   13 1  
    14   13   14 1  
    15   14   15 1  
    16   14   16 1  
    17   15   20 1  
    18   16   17 2  
    19   17   18 1  
    20   18   19 ar 
    21   18   20 ar 
    22   19   23 ar 
    23   20   21 ar 
    24   21   22 ar 
    25   22   23 ar 
    26   23   24 1  
    27   24   25 1  
    28   25   26 2  
    29   25   27 2  
    30   25   28 am 
    31    1   29 1  
    32    1   30 1  
    33    1   31 1  
    34    4   32 1  
    35    7   33 1  
    36    7   34 1  
    37    7   35 1  
    38   10   36 1  
    39   10   37 1  
    40   10   38 1  
    41   11   39 1  
    42   13   40 1  
    43   13   41 1  
    44   15   42 1  
    45   15   43 1  
    46   16   44 1  
    47   17   45 1  
    48   19   46 1  
    49   21   47 1  
    50   22   48 1  
    51   28   49 1  
    52   28   50 1  
@<TRIPOS>SUBSTRUCTURE
     1 HZY         1

