### 
### Created by X-TOOL on Wed Jan  1 15:39:37 2020
### 

@<TRIPOS>MOLECULE
6e99_ligand
   56    58     1     0     0
SMALL
GAST_HUCK


@<TRIPOS>ATOM
      1 N1         -3.9520   10.1270  -14.0500 N.am      1 J0G        -0.2745
      2 N3        -12.3510    6.3750  -12.7910 N.ar      1 J0G        -0.2980
      3 C4         -6.6300    8.7850  -14.7430 C.ar      1 J0G         0.0612
      4 C5         -6.3830    9.9260  -13.9760 C.ar      1 J0G         0.0683
      5 C6         -7.2940   10.3450  -13.0250 C.ar      1 J0G        -0.0511
      6 C7         -5.1720   10.7830  -14.0870 C.2       1 J0G         0.1996
      7 C8         -2.6860   10.8360  -14.1640 C.3       1 J0G         0.0695
      8 C10        -0.9950   12.0590  -12.8440 C.ar      1 J0G        -0.0301
      9 C13        -1.7730   10.8470  -10.4950 C.ar      1 J0G        -0.0771
     10 C15         0.9880   14.0410  -12.6850 C.3       1 J0G         0.0592
     11 C17        -9.9660    7.7640  -13.2870 C.ar      1 J0G         0.0002
     12 C20       -12.3100    7.7090  -12.8810 C.ar      1 J0G         0.0110
     13 C21       -11.1640    8.4370  -13.1240 C.ar      1 J0G        -0.0264
     14 C22        -4.8030    6.8110  -17.4250 C.3       1 J0G        -0.0152
     15 C1         -8.4550    9.6400  -12.8010 C.ar      1 J0G        -0.0589
     16 O1         -5.3110   12.0010  -14.1620 O.2       1 J0G        -0.3915
     17 C2         -8.7290    8.5010  -13.5310 C.ar      1 J0G        -0.0168
     18 N2         -5.7180    8.3320  -15.7440 N.pl3     1 J0G        -0.3132
     19 O2          0.7370   13.2410  -11.5300 O.3       1 J0G        -0.3230
     20 C3         -7.8150    8.0930  -14.4890 C.ar      1 J0G        -0.0285
     21 N4         -3.7140    6.3400  -16.5900 N.4       1 J0G         0.2199
     22 C9         -2.0380   11.1550  -12.8520 C.ar      1 J0G        -0.0273
     23 C11        -0.3440   12.3660  -11.6600 C.ar      1 J0G         0.0841
     24 C12        -0.7300   11.7470  -10.4880 C.ar      1 J0G        -0.0401
     25 C14        -2.4210   10.5500  -11.6740 C.ar      1 J0G        -0.0693
     26 C16        -5.9860    7.1410  -16.5410 C.3       1 J0G         0.0650
     27 C18        -9.9820    6.3830  -13.2050 C.ar      1 J0G        -0.0264
     28 C19       -11.1820    5.7430  -12.9600 C.ar      1 J0G         0.0110
     29 C23        -1.6900    9.9800  -14.9250 C.3       1 J0G        -0.0322
     30 H1         -3.9410    9.1330  -13.9413 H         1 J0G         0.1869
     31 H2         -7.0918   11.2402  -12.4481 H         1 J0G         0.0638
     32 H3         -2.8658   11.7740  -14.7097 H         1 J0G         0.0714
     33 H4         -0.6836   12.5312  -13.7687 H         1 J0G         0.0479
     34 H5         -2.0842   10.3719   -9.5717 H         1 J0G         0.0572
     35 H6          1.8508   14.6967  -12.4964 H         1 J0G         0.0577
     36 H7          0.1023   14.6549  -12.9054 H         1 J0G         0.0577
     37 H8          1.2044   13.3880  -13.5434 H         1 J0G         0.0577
     38 H9        -13.2386    8.2538  -12.7546 H         1 J0G         0.0822
     39 H10       -11.2012    9.5186  -13.1863 H         1 J0G         0.0718
     40 H11        -5.0850    6.0265  -18.1426 H         1 J0G         0.0833
     41 H12        -4.4871    7.7117  -17.9717 H         1 J0G         0.0833
     42 H13        -9.1568    9.9807  -12.0484 H         1 J0G         0.0541
     43 H14        -4.8488    8.8600  -15.9071 H         1 J0G         0.1782
     44 H15        -8.0291    7.1998  -15.0647 H         1 J0G         0.0543
     45 H16        -2.9193    6.1168  -17.1686 H         1 J0G         0.1995
     46 H17        -4.0069    5.5158  -16.0890 H         1 J0G         0.1995
     47 H18        -3.4591    7.0601  -15.9324 H         1 J0G         0.1995
     48 H19        -0.2123   11.9692   -9.5619 H         1 J0G         0.0486
     49 H20        -3.2369    9.8363  -11.6753 H         1 J0G         0.0465
     50 H21        -6.1816    6.2930  -15.8683 H         1 J0G         0.0568
     51 H22        -6.8692    7.3200  -17.1718 H         1 J0G         0.0568
     52 H23        -9.0688    5.8127  -13.3308 H         1 J0G         0.0718
     53 H24       -11.1771    4.6606  -12.9008 H         1 J0G         0.0822
     54 H25        -0.7341   10.5176  -15.0100 H         1 J0G         0.0274
     55 H26        -2.0819    9.7678  -15.9306 H         1 J0G         0.0274
     56 H27        -1.5320    9.0343  -14.3859 H         1 J0G         0.0274
@<TRIPOS>BOND
     1    1    6 am 
     2    7    1 1  
     3   12    2 ar 
     4    2   28 ar 
     5    4    3 ar 
     6    3   18 1  
     7    3   20 ar 
     8    4    5 ar 
     9    6    4 1  
    10    5   15 ar 
    11    6   16 2  
    12   22    7 1  
    13    7   29 1  
    14   22    8 ar 
    15    8   23 ar 
    16    9   24 ar 
    17   25    9 ar 
    18   19   10 1  
    19   11   13 ar 
    20   17   11 1  
    21   11   27 ar 
    22   13   12 ar 
    23   14   21 1  
    24   26   14 1  
    25   15   17 ar 
    26   20   17 ar 
    27   18   26 1  
    28   23   19 1  
    29   22   25 ar 
    30   23   24 ar 
    31   27   28 ar 
    32    1   30 1  
    33    5   31 1  
    34    7   32 1  
    35    8   33 1  
    36    9   34 1  
    37   10   35 1  
    38   10   36 1  
    39   10   37 1  
    40   12   38 1  
    41   13   39 1  
    42   14   40 1  
    43   14   41 1  
    44   15   42 1  
    45   18   43 1  
    46   20   44 1  
    47   21   45 1  
    48   21   46 1  
    49   21   47 1  
    50   24   48 1  
    51   25   49 1  
    52   26   50 1  
    53   26   51 1  
    54   27   52 1  
    55   28   53 1  
    56   29   54 1  
    57   29   55 1  
    58   29   56 1  
@<TRIPOS>SUBSTRUCTURE
     1 J0G         1

