### 
### Created by X-TOOL on Wed Jan  1 15:39:35 2020
### 

@<TRIPOS>MOLECULE
6e9a_ligand
   77    80     1     0     0
SMALL
GAST_HUCK


@<TRIPOS>ATOM
      1 O39        21.7930   28.8720   14.7660 O.3       1 J0S        -0.3212
      2 C40        23.1520   28.9030   15.1660 C.3       1 J0S         0.0594
      3 C2         21.1920   27.6690   14.9770 C.ar      1 J0S         0.0908
      4 C3         19.8130   27.6380   14.7090 C.ar      1 J0S        -0.0313
      5 C4         19.0610   26.5070   15.0270 C.ar      1 J0S        -0.0440
      6 C5         19.6620   25.3940   15.6060 C.ar      1 J0S         0.0971
      7 C6         21.0240   25.4330   15.8480 C.ar      1 J0S        -0.0440
      8 C7         21.8120   26.5520   15.5140 C.ar      1 J0S        -0.0313
      9 S8         18.6710   24.0240   16.0770 S.o2      1 J0S         0.0657
     10 O9         17.5790   23.8470   15.0920 O.2       1 J0S        -0.1515
     11 O10        19.5800   22.8810   16.3180 O.2       1 J0S        -0.1515
     12 N11        17.9820   24.3920   17.5230 N.am      1 J0S        -0.2325
     13 C12        18.9060   24.6960   18.6070 C.3       1 J0S         0.0319
     14 C13        18.5760   24.0170   19.9500 C.3       1 J0S        -0.0296
     15 C14        18.6790   22.5000   19.8720 C.3       1 J0S        -0.0612
     16 C15        19.5050   24.5980   21.0400 C.3       1 J0S        -0.0612
     17 C16        16.6890   25.0220   17.5130 C.3       1 J0S         0.0578
     18 C17        15.6270   24.0920   18.1250 C.3       1 J0S         0.0967
     19 O18        14.4800   24.8960   18.4410 O.3       1 J0S        -0.3877
     20 C19        15.2340   22.9460   17.1900 C.3       1 J0S         0.0807
     21 N20        14.4150   21.9680   17.9660 N.am      1 J0S        -0.2550
     22 C21        14.8920   20.8390   18.4740 C.2       1 J0S         0.3202
     23 O22        16.0450   20.4350   18.3620 O.2       1 J0S        -0.3775
     24 O23        13.9720   20.0950   19.1680 O.3       1 J0S        -0.2604
     25 C24        14.4740   18.8260   19.6030 C.3       1 J0S         0.0931
     26 C25        13.4170   18.2640   20.5450 C.3       1 J0S         0.0106
     27 C26        12.3600   17.6350   19.6400 C.3       1 J0S         0.1136
     28 O27        11.3280   18.5910   19.4240 O.3       1 J0S        -0.2582
     29 C28        11.2950   19.0180   18.1530 C.2       1 J0S         0.3201
     30 O41        10.4530   19.8820   17.7830 O.2       1 J0S        -0.3775
     31 N29        12.2190   18.3560   17.4690 N.am      1 J0S        -0.2566
     32 C30        13.0100   17.4560   18.2790 C.3       1 J0S         0.0771
     33 C31        14.4590   17.8650   18.4420 C.3       1 J0S         0.0036
     34 C32        14.4290   23.4110   15.9600 C.3       1 J0S         0.0064
     35 C33        12.8730   21.5330   15.1060 C.ar      1 J0S        -0.0603
     36 C34        12.6340   20.4050   14.3250 C.ar      1 J0S        -0.0686
     37 C35        13.6090   19.9480   13.4420 C.ar      1 J0S        -0.0687
     38 C36        14.8410   20.6010   13.3410 C.ar      1 J0S        -0.0686
     39 C37        15.0850   21.7150   14.1560 C.ar      1 J0S        -0.0603
     40 C38        14.1080   22.1950   15.0500 C.ar      1 J0S        -0.0408
     41 H1         23.5702   29.9007   14.9668 H         1 J0S         0.0577
     42 H2         23.7181   28.1485   14.6001 H         1 J0S         0.0577
     43 H3         23.2227   28.6839   16.2416 H         1 J0S         0.0577
     44 H4         19.3319   28.4960   14.2535 H         1 J0S         0.0542
     45 H5         17.9969   26.4952   14.8207 H         1 J0S         0.0608
     46 H6         21.4997   24.5751   16.3093 H         1 J0S         0.0608
     47 H7         22.8840   26.5395   15.6742 H         1 J0S         0.0542
     48 H8         18.9018   25.7847   18.7644 H         1 J0S         0.0480
     49 H9         19.9117   24.3738   18.2993 H         1 J0S         0.0480
     50 H10        17.5375   24.2658   20.2136 H         1 J0S         0.0311
     51 H11        18.4348   22.0651   20.8524 H         1 J0S         0.0233
     52 H12        19.7036   22.2160   19.5899 H         1 J0S         0.0233
     53 H13        17.9730   22.1228   19.1175 H         1 J0S         0.0233
     54 H14        19.4016   25.6929   21.0644 H         1 J0S         0.0233
     55 H15        20.5480   24.3333   20.8121 H         1 J0S         0.0233
     56 H16        19.2266   24.1815   22.0193 H         1 J0S         0.0233
     57 H17        16.4092   25.2561   16.4753 H         1 J0S         0.0504
     58 H18        16.7357   25.9518   18.0989 H         1 J0S         0.0504
     59 H19        16.0301   23.6563   19.0511 H         1 J0S         0.0634
     60 H20        14.1500   25.3007   17.6474 H         1 J0S         0.2100
     61 H21        16.1520   22.4535   16.8369 H         1 J0S         0.0604
     62 H22        13.4479   22.1767   18.1117 H         1 J0S         0.1873
     63 H23        15.4677   18.9111   20.0669 H         1 J0S         0.0649
     64 H24        12.9751   19.0684   21.1513 H         1 J0S         0.0323
     65 H25        13.8571   17.5046   21.2080 H         1 J0S         0.0323
     66 H26        11.9745   16.6913   20.0532 H         1 J0S         0.0672
     67 H27        12.3559   18.4688   16.4848 H         1 J0S         0.1871
     68 H28        12.9459   16.4235   17.9051 H         1 J0S         0.0585
     69 H29        15.0846   16.9871   18.6606 H         1 J0S         0.0317
     70 H30        14.8250   18.3579   17.5293 H         1 J0S         0.0317
     71 H31        15.0202   24.1451   15.3930 H         1 J0S         0.0449
     72 H32        13.4893   23.8757   16.2931 H         1 J0S         0.0449
     73 H33        12.0957   21.9034   15.7645 H         1 J0S         0.0557
     74 H34        11.6878   19.8821   14.4045 H         1 J0S         0.0599
     75 H35        13.4108   19.0776   12.8271 H         1 J0S         0.0559
     76 H36        15.5946   20.2518   12.6444 H         1 J0S         0.0599
     77 H37        16.0441   22.2168   14.0972 H         1 J0S         0.0557
@<TRIPOS>BOND
     1    1    2 1  
     2    3    1 1  
     3    4    3 ar 
     4    8    3 ar 
     5    5    4 ar 
     6    6    5 ar 
     7    6    7 ar 
     8    9    6 1  
     9    7    8 ar 
    10    9   10 2  
    11    9   11 2  
    12   12    9 am 
    13   12   13 1  
    14   17   12 1  
    15   13   14 1  
    16   14   15 1  
    17   14   16 1  
    18   18   17 1  
    19   18   19 1  
    20   20   18 1  
    21   20   21 1  
    22   34   20 1  
    23   21   22 am 
    24   22   23 2  
    25   22   24 1  
    26   24   25 1  
    27   25   26 1  
    28   25   33 1  
    29   26   27 1  
    30   27   28 1  
    31   32   27 1  
    32   28   29 1  
    33   29   30 2  
    34   31   29 am 
    35   32   31 1  
    36   33   32 1  
    37   40   34 1  
    38   35   36 ar 
    39   35   40 ar 
    40   36   37 ar 
    41   37   38 ar 
    42   38   39 ar 
    43   39   40 ar 
    44    2   41 1  
    45    2   42 1  
    46    2   43 1  
    47    4   44 1  
    48    5   45 1  
    49    7   46 1  
    50    8   47 1  
    51   13   48 1  
    52   13   49 1  
    53   14   50 1  
    54   15   51 1  
    55   15   52 1  
    56   15   53 1  
    57   16   54 1  
    58   16   55 1  
    59   16   56 1  
    60   17   57 1  
    61   17   58 1  
    62   18   59 1  
    63   19   60 1  
    64   20   61 1  
    65   21   62 1  
    66   25   63 1  
    67   26   64 1  
    68   26   65 1  
    69   27   66 1  
    70   31   67 1  
    71   32   68 1  
    72   33   69 1  
    73   33   70 1  
    74   34   71 1  
    75   34   72 1  
    76   35   73 1  
    77   36   74 1  
    78   37   75 1  
    79   38   76 1  
    80   39   77 1  
@<TRIPOS>SUBSTRUCTURE
     1 J0S         1

