### 
### Created by X-TOOL on Wed Jan  1 15:39:37 2020
### 

@<TRIPOS>MOLECULE
6e9l_ligand
   44    47     1     0     0
SMALL
GAST_HUCK


@<TRIPOS>ATOM
      1 N1        -33.1670   -9.9750   -4.4530 N.ar      1 J0P        -0.2981
      2 C4        -23.0000  -14.3300    0.1070 C.ar      1 J0P        -0.0880
      3 C5        -21.6800  -14.3620    0.4860 C.ar      1 J0P        -0.0482
      4 C6        -21.0080  -13.1930    0.7600 C.ar      1 J0P         0.1134
      5 C7        -21.6610  -11.9810    0.6540 C.ar      1 J0P         0.1226
      6 C8        -19.6520  -10.9250    1.2370 C.3       1 J0P         0.0933
      7 C10       -27.3190  -10.2800   -0.6820 C.ar      1 J0P         0.0510
      8 C13       -29.5710  -10.2230   -2.2350 C.ar      1 J0P        -0.0051
      9 C15       -27.2960   -9.5850   -1.8700 C.ar      1 J0P        -0.0401
     10 C17       -30.8020  -10.4220   -4.3560 C.ar      1 J0P        -0.0262
     11 C20       -31.9590   -9.7830   -2.3890 C.ar      1 J0P        -0.0262
     12 O         -26.2960  -10.1340    1.3770 O.2       1 J0P        -0.3842
     13 C         -26.1310  -10.3360    0.1800 C.2       1 J0P         0.2072
     14 C14       -28.4310   -9.5680   -2.6480 C.ar      1 J0P        -0.0460
     15 C16       -30.7780  -10.1520   -3.0050 C.ar      1 J0P         0.0033
     16 C19       -33.1080   -9.7150   -3.1430 C.ar      1 J0P         0.0109
     17 C18       -32.0050  -10.3180   -5.0210 C.ar      1 J0P         0.0109
     18 C12       -29.5710  -10.9130   -1.0440 C.ar      1 J0P        -0.0460
     19 C11       -28.4430  -10.9550   -0.2670 C.ar      1 J0P        -0.0401
     20 N         -24.9500  -10.6430   -0.4830 N.am      1 J0P        -0.2768
     21 C1        -23.6810  -10.6100    0.2000 C.3       1 J0P         0.0596
     22 C2        -22.9920  -11.9380    0.2800 C.ar      1 J0P        -0.0002
     23 O1        -21.0410  -10.7700    0.9660 O.3       1 J0P        -0.3233
     24 C9        -19.4230  -12.1900    2.0110 C.3       1 J0P         0.0946
     25 O2        -19.6740  -13.2850    1.1390 O.3       1 J0P        -0.3212
     26 C3        -23.6490  -13.1210    0.0040 C.ar      1 J0P        -0.0778
     27 H1        -23.5274  -15.2519   -0.1097 H         1 J0P         0.0479
     28 H2        -21.1655  -15.3125    0.5696 H         1 J0P         0.0456
     29 H3        -19.2970  -10.0669    1.8266 H         1 J0P         0.0633
     30 H4        -19.0978  -10.9723    0.2880 H         1 J0P         0.0633
     31 H5        -26.4012   -9.0613   -2.1865 H         1 J0P         0.0672
     32 H6        -29.8986  -10.7087   -4.8821 H         1 J0P         0.0718
     33 H7        -31.9797   -9.5512   -1.3303 H         1 J0P         0.0718
     34 H8        -28.4283   -9.0357   -3.5923 H         1 J0P         0.0648
     35 H9        -34.0263   -9.4318   -2.6415 H         1 J0P         0.0822
     36 H10       -32.0100  -10.5300   -6.0841 H         1 J0P         0.0822
     37 H11       -30.4687  -11.4263   -0.7187 H         1 J0P         0.0648
     38 H12       -28.4368  -11.5129    0.6624 H         1 J0P         0.0672
     39 H13       -24.9804  -10.8913   -1.4512 H         1 J0P         0.1868
     40 H14       -23.8499  -10.2468    1.2245 H         1 J0P         0.0656
     41 H15       -23.0205   -9.9102   -0.3329 H         1 J0P         0.0656
     42 H16       -20.1079  -12.2318    2.8707 H         1 J0P         0.0635
     43 H17       -18.3833  -12.2270    2.3683 H         1 J0P         0.0635
     44 H18       -24.6899  -13.0968   -0.2978 H         1 J0P         0.0438
@<TRIPOS>BOND
     1   16    1 ar 
     2   17    1 ar 
     3    3    2 ar 
     4    2   26 ar 
     5    4    3 ar 
     6    5    4 ar 
     7    4   25 1  
     8   22    5 ar 
     9    5   23 1  
    10   23    6 1  
    11    6   24 1  
    12    7    9 ar 
    13   13    7 1  
    14    7   19 ar 
    15   14    8 ar 
    16    8   15 1  
    17   18    8 ar 
    18    9   14 ar 
    19   15   10 ar 
    20   10   17 ar 
    21   15   11 ar 
    22   11   16 ar 
    23   13   12 2  
    24   20   13 am 
    25   19   18 ar 
    26   21   20 1  
    27   21   22 1  
    28   22   26 ar 
    29   24   25 1  
    30    2   27 1  
    31    3   28 1  
    32    6   29 1  
    33    6   30 1  
    34    9   31 1  
    35   10   32 1  
    36   11   33 1  
    37   14   34 1  
    38   16   35 1  
    39   17   36 1  
    40   18   37 1  
    41   19   38 1  
    42   20   39 1  
    43   21   40 1  
    44   21   41 1  
    45   24   42 1  
    46   24   43 1  
    47   26   44 1  
@<TRIPOS>SUBSTRUCTURE
     1 J0P         1

