### 
### Created by X-TOOL on Wed Jan  1 15:39:37 2020
### 

@<TRIPOS>MOLECULE
6e9w_ligand
   44    47     1     0     0
SMALL
GAST_HUCK


@<TRIPOS>ATOM
      1 N1        -69.4510   -5.5530  -39.7750 N.ar      1 J0P        -0.2981
      2 C4        -65.7070  -10.3750  -49.9390 C.ar      1 J0P        -0.0880
      3 C5        -64.7780  -11.1030  -50.7090 C.ar      1 J0P        -0.0482
      4 C6        -63.4280  -10.6880  -50.7240 C.ar      1 J0P         0.1134
      5 C7        -62.9780   -9.5950  -49.9690 C.ar      1 J0P         0.1226
      6 C8        -60.7120  -10.1030  -50.6170 C.3       1 J0P         0.0933
      7 C10       -64.8990   -7.2160  -44.9510 C.ar      1 J0P         0.0510
      8 C13       -66.7020   -6.4880  -42.9350 C.ar      1 J0P        -0.0051
      9 C15       -65.7310   -6.0930  -45.1380 C.ar      1 J0P        -0.0401
     10 C17       -67.3300   -6.4660  -40.5320 C.ar      1 J0P        -0.0262
     11 C20       -68.8490   -5.4720  -42.1250 C.ar      1 J0P        -0.0262
     12 O         -62.7410   -7.9160  -45.5720 O.2       1 J0P        -0.3842
     13 C         -63.8500   -7.5560  -45.9410 C.2       1 J0P         0.2072
     14 C14       -66.6210   -5.7230  -44.1330 C.ar      1 J0P        -0.0460
     15 C16       -67.6410   -6.1250  -41.8570 C.ar      1 J0P         0.0033
     16 C19       -69.7080   -5.2020  -41.0560 C.ar      1 J0P         0.0109
     17 C18       -68.2690   -6.1850  -39.5420 C.ar      1 J0P         0.0109
     18 C12       -65.8870   -7.6400  -42.7990 C.ar      1 J0P        -0.0460
     19 C11       -64.9910   -7.9840  -43.7900 C.ar      1 J0P        -0.0401
     20 N         -64.1920   -7.4010  -47.2740 N.am      1 J0P        -0.2768
     21 C1        -63.3100   -7.7220  -48.3800 C.3       1 J0P         0.0596
     22 C2        -63.8860   -8.8460  -49.1940 C.ar      1 J0P        -0.0002
     23 O1        -61.6280   -9.2560  -49.9190 O.3       1 J0P        -0.3233
     24 C9        -61.3930  -10.6020  -51.8860 C.3       1 J0P         0.0946
     25 O2        -62.5540  -11.3550  -51.5360 O.3       1 J0P        -0.3212
     26 C3        -65.2810   -9.2490  -49.2030 C.ar      1 J0P        -0.0778
     27 H1        -66.7470  -10.6795  -49.9122 H         1 J0P         0.0479
     28 H2        -65.0945  -11.9679  -51.2808 H         1 J0P         0.0456
     29 H3        -60.4377  -10.9579  -49.9814 H         1 J0P         0.0633
     30 H4        -59.8068   -9.5357  -50.8792 H         1 J0P         0.0633
     31 H5        -65.6781   -5.5217  -46.0577 H         1 J0P         0.0672
     32 H6        -66.3846   -6.9354  -40.2853 H         1 J0P         0.0718
     33 H7        -69.1120   -5.1828  -43.1361 H         1 J0P         0.0718
     34 H8        -67.2527   -4.8517  -44.2629 H         1 J0P         0.0648
     35 H9        -70.6349   -4.6805  -41.2657 H         1 J0P         0.0822
     36 H10       -68.0445   -6.4879  -38.5257 H         1 J0P         0.0822
     37 H11       -65.9684   -8.2549  -41.9100 H         1 J0P         0.0648
     38 H12       -64.3563   -8.8540  -43.6661 H         1 J0P         0.0672
     39 H13       -65.1024   -7.0462  -47.4870 H         1 J0P         0.1868
     40 H14       -62.3286   -8.0246  -47.9860 H         1 J0P         0.0656
     41 H15       -63.1909   -6.8346  -49.0191 H         1 J0P         0.0656
     42 H16       -60.6970  -11.2412  -52.4490 H         1 J0P         0.0635
     43 H17       -61.6863   -9.7430  -52.5073 H         1 J0P         0.0635
     44 H18       -66.0059   -8.6763  -48.6359 H         1 J0P         0.0438
@<TRIPOS>BOND
     1   16    1 ar 
     2   17    1 ar 
     3    3    2 ar 
     4    2   26 ar 
     5    4    3 ar 
     6    5    4 ar 
     7    4   25 1  
     8   22    5 ar 
     9    5   23 1  
    10   23    6 1  
    11    6   24 1  
    12    7    9 ar 
    13   13    7 1  
    14    7   19 ar 
    15   14    8 ar 
    16    8   15 1  
    17   18    8 ar 
    18    9   14 ar 
    19   15   10 ar 
    20   10   17 ar 
    21   15   11 ar 
    22   11   16 ar 
    23   13   12 2  
    24   20   13 am 
    25   19   18 ar 
    26   21   20 1  
    27   21   22 1  
    28   22   26 ar 
    29   24   25 1  
    30    2   27 1  
    31    3   28 1  
    32    6   29 1  
    33    6   30 1  
    34    9   31 1  
    35   10   32 1  
    36   11   33 1  
    37   14   34 1  
    38   16   35 1  
    39   17   36 1  
    40   18   37 1  
    41   19   38 1  
    42   20   39 1  
    43   21   40 1  
    44   21   41 1  
    45   24   42 1  
    46   24   43 1  
    47   26   44 1  
@<TRIPOS>SUBSTRUCTURE
     1 J0P         1

