### 
### Created by X-TOOL on Wed Jan  1 15:39:35 2020
### 

@<TRIPOS>MOLECULE
6ea1_ligand
   40    41     1     0     0
SMALL
GAST_HUCK


@<TRIPOS>ATOM
      1 FBA       -16.5960    9.0250   -9.0150 F         1 J0Y        -0.1653
      2 CAZ       -17.5150    8.3890   -9.7770 C.3       1 J0Y         0.4385
      3 FBB       -18.5430    9.1040   -9.8280 F         1 J0Y        -0.1653
      4 FBC       -17.8480    7.2070   -9.1620 F         1 J0Y        -0.1653
      5 CAQ       -16.9830    8.1440  -11.2300 C.3       1 J0Y         0.2831
      6 FAY       -15.8990    7.3290  -11.2110 F         1 J0Y        -0.2123
      7 CAP       -16.5350    9.4890  -11.8140 C.2       1 J0Y         0.2236
      8 OAR       -17.3670   10.3460  -12.0780 O.2       1 J0Y        -0.3933
      9 N         -15.2130    9.6370  -11.9830 N.am      1 J0Y        -0.2523
     10 CA        -14.6280   10.9500  -12.3460 C.3       1 J0Y         0.1662
     11 C         -13.6720   11.2990  -11.2070 C.2       1 J0Y         0.2364
     12 O         -12.7810   10.5130  -10.8680 O.2       1 J0Y        -0.3913
     13 NAS       -14.0000   12.4140  -10.5730 N.am      1 J0Y        -0.1606
     14 OAU       -13.1830   12.8000   -9.4900 O.3       1 J0Y        -0.2715
     15 CAJ       -14.1230   11.1100  -13.6690 C.ar      1 J0Y         0.0014
     16 CAK       -14.0080   10.0550  -14.5630 C.ar      1 J0Y        -0.0550
     17 CAL       -13.5630   10.2810  -15.8740 C.ar      1 J0Y        -0.0606
     18 CAI       -13.8040   12.3950  -14.0970 C.ar      1 J0Y        -0.0550
     19 CAH       -13.3740   12.6400  -15.4170 C.ar      1 J0Y        -0.0606
     20 CAG       -13.2240   11.5690  -16.2990 C.ar      1 J0Y        -0.0282
     21 CAC       -12.8660   11.7960  -17.6360 C.ar      1 J0Y        -0.0293
     22 CAB       -11.7700   11.2640  -18.2890 C.ar      1 J0Y        -0.0274
     23 CAA       -11.5690   11.5680  -19.6360 C.ar      1 J0Y         0.1638
     24 FAV       -10.5150   11.0800  -20.2530 F         1 J0Y        -0.1855
     25 CAF       -12.4500   12.3830  -20.3330 C.ar      1 J0Y         0.1978
     26 FAW       -12.2660   12.6920  -21.6940 F         1 J0Y        -0.1851
     27 CAE       -13.5480   12.9080  -19.6940 C.ar      1 J0Y         0.1638
     28 FAX       -14.4260   13.7060  -20.4230 F         1 J0Y        -0.1855
     29 CAD       -13.7560   12.6260  -18.3480 C.ar      1 J0Y        -0.0274
     30 H1        -17.7771    7.7008  -11.8487 H         1 J0Y         0.0991
     31 H2        -14.6110    8.8477  -11.8620 H         1 J0Y         0.1909
     32 H3        -15.4531   11.6752  -12.2887 H         1 J0Y         0.0962
     33 H4        -14.7919   12.9584  -10.8497 H         1 J0Y         0.2219
     34 H5        -13.5144   13.6085   -9.1171 H         1 J0Y         0.2490
     35 H6        -14.2636    9.0502  -14.2464 H         1 J0Y         0.0564
     36 H7        -13.4812    9.4490  -16.5641 H         1 J0Y         0.0605
     37 H8        -13.8877   13.2231  -13.4025 H         1 J0Y         0.0564
     38 H9        -13.1617   13.6515  -15.7440 H         1 J0Y         0.0605
     39 H10       -11.0760   10.6194  -17.7618 H         1 J0Y         0.0558
     40 H11       -14.6142   13.0502  -17.8394 H         1 J0Y         0.0558
@<TRIPOS>BOND
     1    1    2 1  
     2    2    3 1  
     3    2    4 1  
     4    2    5 1  
     5    5    6 1  
     6    5    7 1  
     7    7    8 2  
     8    7    9 am 
     9    9   10 1  
    10   10   11 1  
    11   10   15 1  
    12   11   12 2  
    13   11   13 am 
    14   13   14 1  
    15   15   16 ar 
    16   15   18 ar 
    17   16   17 ar 
    18   17   20 ar 
    19   18   19 ar 
    20   19   20 ar 
    21   20   21 1  
    22   21   22 ar 
    23   21   29 ar 
    24   22   23 ar 
    25   23   24 1  
    26   23   25 ar 
    27   25   26 1  
    28   25   27 ar 
    29   27   28 1  
    30   27   29 ar 
    31    5   30 1  
    32    9   31 1  
    33   10   32 1  
    34   13   33 1  
    35   14   34 1  
    36   16   35 1  
    37   17   36 1  
    38   18   37 1  
    39   19   38 1  
    40   22   39 1  
    41   29   40 1  
@<TRIPOS>SUBSTRUCTURE
     1 J0Y         1

