### 
### Created by X-TOOL on Wed Jan  1 15:39:35 2020
### 

@<TRIPOS>MOLECULE
6ea2_ligand
   47    49     1     0     0
SMALL
GAST_HUCK


@<TRIPOS>ATOM
      1 N          15.3140  118.6280  130.0520 N.am      1 J1G        -0.2547
      2 CA         14.6670  119.8980  130.4620 C.3       1 J1G         0.1661
      3 C          13.7140  120.2610  129.3430 C.2       1 J1G         0.2364
      4 O          12.8120  119.5140  128.9970 O.2       1 J1G        -0.3913
      5 CAG        13.5640  119.1990  133.9980 C.ar      1 J1G        -0.0606
      6 CAH        13.4390  121.5470  133.5440 C.ar      1 J1G        -0.0606
      7 CAI        14.0050  118.9500  132.6810 C.ar      1 J1G        -0.0550
      8 CAJ        13.8830  121.2950  132.2430 C.ar      1 J1G        -0.0550
      9 CAK        13.7870  121.5190  136.5100 C.ar      1 J1G        -0.0274
     10 CAL        11.7760  120.1860  136.4030 C.ar      1 J1G        -0.0274
     11 CAM        17.3330  118.0220  126.8410 C.3       1 J1G        -0.0506
     12 CAN        15.9650  117.4160  127.1520 C.3       1 J1G        -0.0506
     13 CAO        18.2000  117.5890  128.0500 C.3       1 J1G        -0.0332
     14 CAP        16.1880  116.5190  128.3620 C.3       1 J1G        -0.0332
     15 CAT        16.6410  118.5760  129.7880 C.2       1 J1G         0.1830
     16 CAU        13.5480  121.7940  137.8490 C.ar      1 J1G         0.1638
     17 CAV        11.5510  120.4860  137.7510 C.ar      1 J1G         0.1638
     18 CAW        13.2540  120.4880  134.4310 C.ar      1 J1G        -0.0282
     19 CAX        12.8850  120.7300  135.7640 C.ar      1 J1G        -0.0293
     20 CAY        14.1590  120.0100  131.7890 C.ar      1 J1G         0.0014
     21 CAZ        12.4330  121.2820  138.4640 C.ar      1 J1G         0.1978
     22 CBA        17.2010  117.2720  129.1780 C.3       1 J1G         0.0489
     23 FAD        14.4110  122.5690  138.6210 F         1 J1G        -0.1855
     24 FAE        10.5110  120.0260  138.3720 F         1 J1G        -0.1855
     25 FAF        12.2070  121.5680  139.8030 F         1 J1G        -0.1851
     26 NAQ        14.0010  121.3990  128.7130 N.am      1 J1G        -0.1606
     27 OAB        17.4280  119.4680  130.0810 O.2       1 J1G        -0.3965
     28 OAC        13.1410  121.7580  127.6910 O.3       1 J1G        -0.2715
     29 H1         14.7622  117.7981  129.9693 H         1 J1G         0.1908
     30 H2         15.4656  120.6538  130.4314 H         1 J1G         0.0962
     31 H3         13.4639  118.3697  134.6888 H         1 J1G         0.0605
     32 H4         13.2390  122.5637  133.8624 H         1 J1G         0.0605
     33 H5         14.2235  117.9368  132.3637 H         1 J1G         0.0564
     34 H6         14.0168  122.1299  131.5646 H         1 J1G         0.0564
     35 H7         14.6759  121.9143  136.0318 H         1 J1G         0.0558
     36 H8         11.0947  119.5379  135.8637 H         1 J1G         0.0558
     37 H9         17.2718  119.1182  126.7729 H         1 J1G         0.0267
     38 H10        17.7381  117.6183  125.9014 H         1 J1G         0.0267
     39 H11        15.6015  116.8266  126.2974 H         1 J1G         0.0267
     40 H12        15.2379  118.2070  127.3877 H         1 J1G         0.0267
     41 H13        18.8745  118.4040  128.3513 H         1 J1G         0.0292
     42 H14        18.7923  116.6968  127.7988 H         1 J1G         0.0292
     43 H15        16.5806  115.5379  128.0566 H         1 J1G         0.0292
     44 H16        15.2538  116.3808  128.9260 H         1 J1G         0.0292
     45 H17        17.6399  116.6492  129.9714 H         1 J1G         0.0538
     46 H18        14.7902  121.9596  128.9637 H         1 J1G         0.2219
     47 H19        13.4304  122.5780  127.3085 H         1 J1G         0.2490
@<TRIPOS>BOND
     1    2    1 1  
     2    1   15 am 
     3    2    3 1  
     4   20    2 1  
     5    3    4 2  
     6    3   26 am 
     7    5    7 ar 
     8   18    5 ar 
     9    6    8 ar 
    10   18    6 ar 
    11    7   20 ar 
    12    8   20 ar 
    13    9   16 ar 
    14   19    9 ar 
    15   10   17 ar 
    16   19   10 ar 
    17   12   11 1  
    18   13   11 1  
    19   14   12 1  
    20   22   13 1  
    21   22   14 1  
    22   15   22 1  
    23   15   27 2  
    24   16   21 ar 
    25   16   23 1  
    26   17   21 ar 
    27   17   24 1  
    28   18   19 1  
    29   21   25 1  
    30   26   28 1  
    31    1   29 1  
    32    2   30 1  
    33    5   31 1  
    34    6   32 1  
    35    7   33 1  
    36    8   34 1  
    37    9   35 1  
    38   10   36 1  
    39   11   37 1  
    40   11   38 1  
    41   12   39 1  
    42   12   40 1  
    43   13   41 1  
    44   13   42 1  
    45   14   43 1  
    46   14   44 1  
    47   22   45 1  
    48   26   46 1  
    49   28   47 1  
@<TRIPOS>SUBSTRUCTURE
     1 J1G         1

