### 
### Created by X-TOOL on Wed Jan  1 15:39:35 2020
### 

@<TRIPOS>MOLECULE
6eaa_ligand
   50    52     1     0     0
SMALL
GAST_HUCK


@<TRIPOS>ATOM
      1 CAP        16.2480    7.4940   10.2970 C.3       1 J1V        -0.0332
      2 CAN        16.1350    8.3780    8.9850 C.3       1 J1V        -0.0507
      3 CAM        17.5710    8.7080    8.4310 C.3       1 J1V        -0.0528
      4 CAO        18.5860    9.1760    9.5510 C.3       1 J1V        -0.0507
      5 CAQ        18.5470    8.2900   10.8330 C.3       1 J1V        -0.0332
      6 CBB        17.1380    8.3620   11.0660 C.3       1 J1V         0.0489
      7 CAU        16.6310    9.4880   11.9060 C.2       1 J1V         0.1830
      8 OAB        17.4220   10.3660   12.1800 O.2       1 J1V        -0.3965
      9 N          15.3000    9.6070   11.9460 N.am      1 J1V        -0.2547
     10 CA         14.6650   10.8790   12.3380 C.3       1 J1V         0.1661
     11 C          13.7250   11.2680   11.1880 C.2       1 J1V         0.2364
     12 O          12.8270   10.5190   10.7640 O.2       1 J1V        -0.3913
     13 NAR        14.0630   12.3960   10.6100 N.am      1 J1V        -0.1606
     14 OAC        13.2480   12.8190    9.5540 O.3       1 J1V        -0.2715
     15 CAZ        14.1550   11.0190   13.6490 C.ar      1 J1V         0.0014
     16 CAJ        13.8760   12.3170   14.0500 C.ar      1 J1V        -0.0550
     17 CAH        13.4330   12.6050   15.3610 C.ar      1 J1V        -0.0606
     18 CAI        14.0340    9.9560   14.5390 C.ar      1 J1V        -0.0550
     19 CAG        13.5950   10.2410   15.8530 C.ar      1 J1V        -0.0606
     20 CAX        13.2890   11.5440   16.2590 C.ar      1 J1V        -0.0282
     21 CAY        12.9230   11.7880   17.5950 C.ar      1 J1V        -0.0293
     22 CAK        13.8410   12.6000   18.3060 C.ar      1 J1V        -0.0274
     23 CAV        13.6140   12.8760   19.6600 C.ar      1 J1V         0.1638
     24 FAD        14.4610   13.6480   20.4180 F         1 J1V        -0.1855
     25 CBA        12.5080   12.3510   20.2760 C.ar      1 J1V         0.1978
     26 FAF        12.2660   12.6270   21.6430 F         1 J1V        -0.1851
     27 CAW        11.6240   11.5470   19.5780 C.ar      1 J1V         0.1638
     28 FAE        10.5810   11.0820   20.2270 F         1 J1V        -0.1855
     29 CAL        11.8240   11.2280   18.2360 C.ar      1 J1V        -0.0274
     30 H1         16.6988    6.5108   10.0969 H         1 J1V         0.0292
     31 H2         15.2742    7.3574   10.7901 H         1 J1V         0.0292
     32 H3         15.6119    9.3162    9.2221 H         1 J1V         0.0267
     33 H4         15.5684    7.8252    8.2212 H         1 J1V         0.0267
     34 H5         17.4806    9.5114    7.6851 H         1 J1V         0.0265
     35 H6         17.9750    7.8049    7.9501 H         1 J1V         0.0265
     36 H7         18.3397   10.2099    9.8344 H         1 J1V         0.0267
     37 H8         19.6038    9.1423    9.1350 H         1 J1V         0.0267
     38 H9         19.1307    8.7225   11.6590 H         1 J1V         0.0292
     39 H10        18.8879    7.2618   10.6421 H         1 J1V         0.0292
     40 H11        17.1704    7.6651   11.9164 H         1 J1V         0.0538
     41 H12        14.7273    8.8229   11.7069 H         1 J1V         0.1908
     42 H13        15.4784   11.6190   12.3112 H         1 J1V         0.0962
     43 H14        14.8585   12.9240   10.9073 H         1 J1V         0.2219
     44 H15        13.5791   13.6400    9.2092 H         1 J1V         0.2490
     45 H16        14.0004   13.1287   13.3423 H         1 J1V         0.0564
     46 H17        13.2108   13.6224   15.6620 H         1 J1V         0.0605
     47 H18        14.2686    8.9423   14.2350 H         1 J1V         0.0564
     48 H19        13.4931    9.4288   16.5636 H         1 J1V         0.0605
     49 H20        14.7131   13.0048   17.8053 H         1 J1V         0.0558
     50 H21        11.1457   10.5658   17.7101 H         1 J1V         0.0558
@<TRIPOS>BOND
     1    1    2 1  
     2    1    6 1  
     3    2    3 1  
     4    3    4 1  
     5    4    5 1  
     6    5    6 1  
     7    6    7 1  
     8    7    8 2  
     9    7    9 am 
    10    9   10 1  
    11   10   11 1  
    12   10   15 1  
    13   11   12 2  
    14   11   13 am 
    15   13   14 1  
    16   15   16 ar 
    17   15   18 ar 
    18   16   17 ar 
    19   17   20 ar 
    20   18   19 ar 
    21   19   20 ar 
    22   20   21 1  
    23   21   22 ar 
    24   21   29 ar 
    25   22   23 ar 
    26   23   24 1  
    27   23   25 ar 
    28   25   26 1  
    29   25   27 ar 
    30   27   28 1  
    31   27   29 ar 
    32    1   30 1  
    33    1   31 1  
    34    2   32 1  
    35    2   33 1  
    36    3   34 1  
    37    3   35 1  
    38    4   36 1  
    39    4   37 1  
    40    5   38 1  
    41    5   39 1  
    42    6   40 1  
    43    9   41 1  
    44   10   42 1  
    45   13   43 1  
    46   14   44 1  
    47   16   45 1  
    48   17   46 1  
    49   18   47 1  
    50   19   48 1  
    51   22   49 1  
    52   29   50 1  
@<TRIPOS>SUBSTRUCTURE
     1 J1V         1

