### 
### Created by X-TOOL on Wed Jan  1 15:39:35 2020
### 

@<TRIPOS>MOLECULE
6eab_ligand
   48    50     1     0     0
SMALL
GAST_HUCK


@<TRIPOS>ATOM
      1 CAO       -18.4600    8.2440  -10.7280 C.3       1 J2D        -0.0096
      2 CAM       -18.7730    9.1530   -9.5300 C.3       1 J2D         0.0500
      3 OAS       -17.9570    8.9060   -8.3310 O.3       1 J2D        -0.3794
      4 CAN       -16.5620    9.0570   -8.6420 C.3       1 J2D         0.0500
      5 CAP       -16.1720    8.0200   -9.7320 C.3       1 J2D        -0.0096
      6 CBB       -16.9580    8.2520  -11.0540 C.3       1 J2D         0.0530
      7 CAU       -16.5080    9.5960  -11.6580 C.2       1 J2D         0.1832
      8 OAB       -17.3180   10.4680  -11.9190 O.2       1 J2D        -0.3965
      9 N         -15.2000    9.6820  -11.9090 N.am      1 J2D        -0.2547
     10 CA        -14.6030   10.9780  -12.3040 C.3       1 J2D         0.1661
     11 C         -13.6250   11.3550  -11.1770 C.2       1 J2D         0.2364
     12 O         -12.7220   10.6030  -10.8030 O.2       1 J2D        -0.3913
     13 NAQ       -13.9220   12.5070  -10.5820 N.am      1 J2D        -0.1606
     14 OAC       -13.0280   12.8770   -9.5170 O.3       1 J2D        -0.2715
     15 CAZ       -14.1060   11.0920  -13.6400 C.ar      1 J2D         0.0014
     16 CAJ       -14.0100   10.0230  -14.5260 C.ar      1 J2D        -0.0550
     17 CAH       -13.5690   10.2200  -15.8500 C.ar      1 J2D        -0.0606
     18 CAI       -13.7630   12.3680  -14.0980 C.ar      1 J2D        -0.0550
     19 CAG       -13.3200   12.5600  -15.4180 C.ar      1 J2D        -0.0606
     20 CAX       -13.2010   11.4890  -16.2930 C.ar      1 J2D        -0.0282
     21 CAY       -12.8270   11.7240  -17.6310 C.ar      1 J2D        -0.0293
     22 CAK       -13.7200   12.5570  -18.3370 C.ar      1 J2D        -0.0274
     23 CAV       -13.5050   12.8650  -19.6850 C.ar      1 J2D         0.1638
     24 FAD       -14.3750   13.6510  -20.4310 F         1 J2D        -0.1855
     25 CBA       -12.3920   12.3590  -20.3180 C.ar      1 J2D         0.1978
     26 FAF       -12.2050   12.7040  -21.7190 F         1 J2D        -0.1851
     27 CAW       -11.5030   11.5290  -19.6280 C.ar      1 J2D         0.1638
     28 FAE       -10.4460   11.0520  -20.2450 F         1 J2D        -0.1855
     29 CAL       -11.7090   11.1900  -18.2690 C.ar      1 J2D        -0.0274
     30 H1        -19.0194    8.6010  -11.6052 H         1 J2D         0.0314
     31 H2        -18.7698    7.2160  -10.4890 H         1 J2D         0.0314
     32 H3        -19.8293    9.0087   -9.2592 H         1 J2D         0.0561
     33 H4        -18.6135   10.1956   -9.8421 H         1 J2D         0.0561
     34 H5        -15.9614    8.8842   -7.7368 H         1 J2D         0.0561
     35 H6        -16.3756   10.0741   -9.0171 H         1 J2D         0.0561
     36 H7        -16.3935    7.0095   -9.3582 H         1 J2D         0.0314
     37 H8        -15.0949    8.1070   -9.9377 H         1 J2D         0.0314
     38 H9        -16.7382    7.4439  -11.7672 H         1 J2D         0.0539
     39 H10       -14.6222    8.8697  -11.8301 H         1 J2D         0.1908
     40 H11       -15.4197   11.7136  -12.2600 H         1 J2D         0.0962
     41 H12       -14.7029   13.0700  -10.8528 H         1 J2D         0.2219
     42 H13       -13.3059   13.7060   -9.1454 H         1 J2D         0.2490
     43 H14       -14.2777    9.0266  -14.1936 H         1 J2D         0.0564
     44 H15       -13.5156    9.3772  -16.5296 H         1 J2D         0.0605
     45 H16       -13.8395   13.2172  -13.4286 H         1 J2D         0.0564
     46 H17       -13.0678   13.5581  -15.7574 H         1 J2D         0.0605
     47 H18       -14.5857   12.9646  -17.8277 H         1 J2D         0.0558
     48 H19       -11.0211   10.5378  -17.7431 H         1 J2D         0.0558
@<TRIPOS>BOND
     1    1    2 1  
     2    1    6 1  
     3    2    3 1  
     4    3    4 1  
     5    4    5 1  
     6    5    6 1  
     7    6    7 1  
     8    7    8 2  
     9    7    9 am 
    10    9   10 1  
    11   10   11 1  
    12   10   15 1  
    13   11   12 2  
    14   11   13 am 
    15   13   14 1  
    16   15   16 ar 
    17   15   18 ar 
    18   16   17 ar 
    19   17   20 ar 
    20   18   19 ar 
    21   19   20 ar 
    22   20   21 1  
    23   21   22 ar 
    24   21   29 ar 
    25   22   23 ar 
    26   23   24 1  
    27   23   25 ar 
    28   25   26 1  
    29   25   27 ar 
    30   27   28 1  
    31   27   29 ar 
    32    1   30 1  
    33    1   31 1  
    34    2   32 1  
    35    2   33 1  
    36    4   34 1  
    37    4   35 1  
    38    5   36 1  
    39    5   37 1  
    40    6   38 1  
    41    9   39 1  
    42   10   40 1  
    43   13   41 1  
    44   14   42 1  
    45   16   43 1  
    46   17   44 1  
    47   18   45 1  
    48   19   46 1  
    49   22   47 1  
    50   29   48 1  
@<TRIPOS>SUBSTRUCTURE
     1 J2D         1

