### 
### Created by X-TOOL on Mon Aug  2 16:13:14 2021
### 

@<TRIPOS>MOLECULE
6eb1_ligand
   63    67     1     0     0
SMALL
GAST_HUCK


@<TRIPOS>ATOM
      1 C10       -35.5140   33.1810  -28.4820 C.ar      1 J3M         0.0376
      2 C13       -34.8010   29.9260  -27.4550 C.ar      1 J3M        -0.0689
      3 C15       -33.5220   28.4850  -28.9570 C.ar      1 J3M         0.0943
      4 C17       -31.8590   27.3210  -30.2410 C.3       1 J3M         0.0708
      5 C20       -33.8850   29.2930  -30.0390 C.ar      1 J3M        -0.0124
      6 C21       -34.7140   30.4060  -29.8350 C.ar      1 J3M        -0.0607
      7 C24       -39.5320   32.2490  -27.9200 C.ar      1 J3M        -0.0033
      8 C26       -41.4600   31.9740  -26.4990 C.ar      1 J3M        -0.0598
      9 C28       -41.5640   31.3570  -28.8350 C.ar      1 J3M        -0.0598
     10 C01       -32.0410   34.7940  -25.8780 C.3       1 J3M        -0.0359
     11 C02       -32.8590   33.7210  -26.5820 C.3       1 J3M         0.0668
     12 C03       -31.9710   32.5060  -26.9360 C.3       1 J3M        -0.0359
     13 C04       -33.9820   33.2740  -25.6360 C.3       1 J3M        -0.0359
     14 O05       -33.4090   34.3260  -27.7820 O.3       1 J3M        -0.3421
     15 C06       -33.9650   33.4000  -28.7220 C.3       1 J3M         0.1530
     16 C07       -33.7410   33.9000  -30.1570 C.2       1 J3M         0.0788
     17 O08       -32.8950   34.7960  -30.4270 O.co2     1 J3M        -0.5635
     18 O09       -34.4320   33.3770  -31.0590 O.co2     1 J3M        -0.5635
     19 C11       -36.0090   31.8700  -28.3920 C.ar      1 J3M         0.0454
     20 C12       -35.1530   30.7460  -28.5380 C.ar      1 J3M        -0.0260
     21 C14       -33.9790   28.8060  -27.6750 C.ar      1 J3M        -0.0379
     22 O16       -32.6740   27.3350  -29.1140 O.3       1 J3M        -0.3205
     23 C18       -32.6070   27.6200  -31.5100 C.3       1 J3M        -0.0170
     24 C19       -33.3690   28.9390  -31.4660 C.3       1 J3M        -0.0184
     25 N22       -37.3030   31.6250  -28.2180 N.ar      1 J3M        -0.2996
     26 C23       -38.1800   32.6110  -28.1060 C.ar      1 J3M         0.0500
     27 C25       -40.1350   32.3570  -26.6710 C.ar      1 J3M        -0.0516
     28 C27       -42.1690   31.4700  -27.5860 C.ar      1 J3M        -0.0605
     29 C29       -40.2390   31.7440  -29.0030 C.ar      1 J3M        -0.0516
     30 C30       -37.7760   33.9570  -28.1860 C.ar      1 J3M         0.0087
     31 C31       -38.7470   34.9830  -28.0730 C.ar      1 J3M        -0.0483
     32 C32       -38.3360   36.3180  -28.1620 C.ar      1 J3M        -0.0575
     33 C33       -36.9800   36.6320  -28.3530 C.ar      1 J3M        -0.0574
     34 C34       -36.0310   35.6090  -28.4630 C.ar      1 J3M        -0.0477
     35 C35       -36.4430   34.2530  -28.3720 C.ar      1 J3M         0.0070
     36 H1        -35.1594   30.1537  -26.4576 H         1 J3M         0.0540
     37 H2        -31.4013   26.3248  -30.3303 H         1 J3M         0.0613
     38 H3        -31.0702   28.0768  -30.1127 H         1 J3M         0.0613
     39 H4        -35.0200   31.0102  -30.6814 H         1 J3M         0.0528
     40 H5        -41.9359   32.0667  -25.5295 H         1 J3M         0.0621
     41 H6        -42.1258   30.9674  -29.6762 H         1 J3M         0.0621
     42 H7        -31.6035   34.3773  -24.9588 H         1 J3M         0.0257
     43 H8        -32.6923   35.6427  -25.6220 H         1 J3M         0.0257
     44 H9        -31.2359   35.1375  -26.5442 H         1 J3M         0.0257
     45 H10       -32.5793   31.7427  -27.4433 H         1 J3M         0.0257
     46 H11       -31.5448   32.0824  -26.0146 H         1 J3M         0.0257
     47 H12       -31.1571   32.8283  -27.6021 H         1 J3M         0.0257
     48 H13       -34.6144   34.1379  -25.3836 H         1 J3M         0.0257
     49 H14       -33.5435   32.8595  -24.7163 H         1 J3M         0.0257
     50 H15       -34.5931   32.5043  -26.1301 H         1 J3M         0.0257
     51 H16       -33.4529   32.4342  -28.5994 H         1 J3M         0.0963
     52 H17       -33.6949   28.1809  -26.8362 H         1 J3M         0.0527
     53 H18       -33.3262   26.8076  -31.6907 H         1 J3M         0.0311
     54 H19       -31.8851   27.6618  -32.3389 H         1 J3M         0.0311
     55 H20       -32.6997   29.7427  -31.8068 H         1 J3M         0.0404
     56 H21       -34.2323   28.8685  -32.1441 H         1 J3M         0.0404
     57 H22       -39.5698   32.7410  -25.8294 H         1 J3M         0.0635
     58 H23       -43.2008   31.1629  -27.4589 H         1 J3M         0.0628
     59 H24       -39.7618   31.6521  -29.9720 H         1 J3M         0.0635
     60 H25       -39.7917   34.7377  -27.9200 H         1 J3M         0.0643
     61 H26       -39.0678   37.1138  -28.0831 H         1 J3M         0.0638
     62 H27       -36.6682   37.6683  -28.4153 H         1 J3M         0.0636
     63 H28       -34.9856   35.8509  -28.6171 H         1 J3M         0.0647
@<TRIPOS>BOND
     1    1   15 1  
     2   19    1 ar 
     3    1   35 ar 
     4   20    2 ar 
     5    2   21 ar 
     6    5    3 ar 
     7   21    3 ar 
     8    3   22 1  
     9   22    4 1  
    10   23    4 1  
    11    6    5 ar 
    12    5   24 1  
    13   20    6 ar 
    14   26    7 1  
    15    7   27 ar 
    16    7   29 ar 
    17   27    8 ar 
    18    8   28 ar 
    19    9   28 ar 
    20   29    9 ar 
    21   11   10 1  
    22   11   12 1  
    23   11   13 1  
    24   14   11 1  
    25   15   14 1  
    26   15   16 1  
    27   16   17 ar 
    28   16   18 ar 
    29   19   20 1  
    30   25   19 ar 
    31   24   23 1  
    32   25   26 ar 
    33   26   30 ar 
    34   30   31 ar 
    35   30   35 ar 
    36   31   32 ar 
    37   32   33 ar 
    38   33   34 ar 
    39   34   35 ar 
    40    2   36 1  
    41    4   37 1  
    42    4   38 1  
    43    6   39 1  
    44    8   40 1  
    45    9   41 1  
    46   10   42 1  
    47   10   43 1  
    48   10   44 1  
    49   12   45 1  
    50   12   46 1  
    51   12   47 1  
    52   13   48 1  
    53   13   49 1  
    54   13   50 1  
    55   15   51 1  
    56   21   52 1  
    57   23   53 1  
    58   23   54 1  
    59   24   55 1  
    60   24   56 1  
    61   27   57 1  
    62   28   58 1  
    63   29   59 1  
    64   31   60 1  
    65   32   61 1  
    66   33   62 1  
    67   34   63 1  
@<TRIPOS>SUBSTRUCTURE
     1 J3M         1

