### 
### Created by X-TOOL on Mon Aug  2 16:13:15 2021
### 

@<TRIPOS>MOLECULE
6eb2_ligand
   73    78     1     0     0
SMALL
GAST_HUCK


@<TRIPOS>ATOM
      1 C10       -35.4500   33.1730  -28.5760 C.ar      1 J3P         0.0303
      2 C13       -34.6030   29.8560  -27.5990 C.ar      1 J3P        -0.0691
      3 C15       -33.2530   28.4470  -29.0340 C.ar      1 J3P         0.0942
      4 C17       -31.6810   27.1330  -30.3120 C.3       1 J3P         0.0708
      5 C20       -33.5950   29.2200  -30.1530 C.ar      1 J3P        -0.0124
      6 C21       -34.4330   30.3130  -29.9420 C.ar      1 J3P        -0.0609
      7 C24       -39.4220   31.7600  -27.8500 C.2       1 J3P         0.0190
      8 C28       -41.7890   28.7530  -28.3360 C.3       1 J3P         0.1068
      9 C01       -32.1530   32.3590  -26.9230 C.3       1 J3P        -0.0360
     10 C02       -32.7180   33.7780  -26.7290 C.3       1 J3P         0.0666
     11 C03       -33.6830   33.8060  -25.5710 C.3       1 J3P        -0.0360
     12 C04       -31.5680   34.6930  -26.3780 C.3       1 J3P        -0.0360
     13 O05       -33.3260   34.3170  -27.8870 O.3       1 J3P        -0.3433
     14 C06       -33.9330   33.4500  -28.8350 C.3       1 J3P         0.1497
     15 C07       -33.6220   34.0010  -30.2390 C.2       1 J3P         0.0776
     16 O08       -34.2770   33.4150  -31.1630 O.co2     1 J3P        -0.5637
     17 O09       -32.7860   34.8890  -30.3610 O.co2     1 J3P        -0.5637
     18 C11       -35.8640   31.8500  -28.4890 C.ar      1 J3P         0.0352
     19 C12       -34.9620   30.6650  -28.6930 C.ar      1 J3P        -0.0282
     20 C14       -33.7530   28.7740  -27.7740 C.ar      1 J3P        -0.0379
     21 O16       -32.4360   27.3960  -29.0990 O.3       1 J3P        -0.3205
     22 C18       -32.4280   27.4540  -31.6000 C.3       1 J3P        -0.0170
     23 C19       -33.0780   28.8450  -31.4870 C.3       1 J3P        -0.0184
     24 N22       -37.1420   31.4850  -28.2660 N.ar      1 J3P        -0.3131
     25 C23       -38.0850   32.3830  -28.0900 C.ar      1 J3P         0.0329
     26 C25       -40.5460   32.1630  -27.0750 C.2       1 J3P         0.0103
     27 N26       -41.5410   31.1680  -27.1390 N.2       1 J3P        -0.2086
     28 N27       -41.0230   30.1120  -27.9400 N.pl3     1 J3P        -0.1879
     29 C29       -40.9070   27.4250  -28.6100 C.ar      1 J3P        -0.0103
     30 C30       -39.8900   27.3780  -29.5920 C.ar      1 J3P        -0.0575
     31 C31       -39.1060   26.1950  -29.8420 C.ar      1 J3P        -0.0685
     32 C32       -39.3000   24.9900  -29.1070 C.ar      1 J3P        -0.0687
     33 C33       -40.3010   25.0090  -28.1130 C.ar      1 J3P        -0.0685
     34 C34       -41.0830   26.1980  -27.8890 C.ar      1 J3P        -0.0575
     35 C35       -39.7310   30.4890  -28.3470 C.2       1 J3P         0.0725
     36 C36       -37.8340   33.8150  -28.1470 C.ar      1 J3P         0.0027
     37 C37       -38.8180   34.8360  -27.9630 C.ar      1 J3P        -0.0501
     38 C38       -38.4800   36.1800  -28.0270 C.ar      1 J3P        -0.0588
     39 C39       -37.1210   36.5770  -28.2800 C.ar      1 J3P        -0.0589
     40 C40       -36.1680   35.6030  -28.4550 C.ar      1 J3P        -0.0500
     41 C41       -36.4530   34.1820  -28.3970 C.ar      1 J3P         0.0012
     42 H1        -34.9934   30.0799  -26.6128 H         1 J3P         0.0539
     43 H2        -31.4134   26.0661  -30.3262 H         1 J3P         0.0613
     44 H3        -30.7644   27.7406  -30.2853 H         1 J3P         0.0613
     45 H4        -34.6915   30.9285  -30.7960 H         1 J3P         0.0528
     46 H5        -42.3619   28.9577  -29.2524 H         1 J3P         0.0811
     47 H6        -42.4823   28.5192  -27.5146 H         1 J3P         0.0811
     48 H7        -31.6997   32.0131  -25.9823 H         1 J3P         0.0257
     49 H8        -31.3892   32.3735  -27.7144 H         1 J3P         0.0257
     50 H9        -32.9664   31.6766  -27.2107 H         1 J3P         0.0257
     51 H10       -34.0767   34.8255  -25.4464 H         1 J3P         0.0257
     52 H11       -33.1620   33.4993  -24.6520 H         1 J3P         0.0257
     53 H12       -34.5144   33.1137  -25.7697 H         1 J3P         0.0257
     54 H13       -30.8396   34.6992  -27.2023 H         1 J3P         0.0257
     55 H14       -31.0800   34.3331  -25.4602 H         1 J3P         0.0257
     56 H15       -31.9471   35.7128  -26.2161 H         1 J3P         0.0257
     57 H16       -33.4306   32.4751  -28.7506 H         1 J3P         0.0948
     58 H17       -33.4727   28.1725  -26.9169 H         1 J3P         0.0527
     59 H18       -33.2088   26.6977  -31.7686 H         1 J3P         0.0311
     60 H19       -31.7224   27.4471  -32.4439 H         1 J3P         0.0311
     61 H20       -32.3240   29.5918  -31.7764 H         1 J3P         0.0404
     62 H21       -33.9194   28.8802  -32.1947 H         1 J3P         0.0404
     63 H22       -40.6245   33.0960  -26.5188 H         1 J3P         0.0686
     64 H23       -39.6925   28.2671  -30.1798 H         1 J3P         0.0558
     65 H24       -38.3449   26.2228  -30.6134 H         1 J3P         0.0599
     66 H25       -38.7081   24.1030  -29.3018 H         1 J3P         0.0559
     67 H26       -40.4828   24.1238  -27.5143 H         1 J3P         0.0599
     68 H27       -41.8533   26.1629  -27.1271 H         1 J3P         0.0558
     69 H28       -39.0675   29.8805  -28.9597 H         1 J3P         0.1083
     70 H29       -39.8469   34.5547  -27.7700 H         1 J3P         0.0643
     71 H30       -39.2446   36.9353  -27.8855 H         1 J3P         0.0625
     72 H31       -36.8534   37.6262  -28.3317 H         1 J3P         0.0634
     73 H32       -35.1473   35.9135  -28.6469 H         1 J3P         0.0635
@<TRIPOS>BOND
     1    1   14 1  
     2   18    1 ar 
     3    1   41 ar 
     4   19    2 ar 
     5    2   20 ar 
     6    5    3 ar 
     7   20    3 ar 
     8    3   21 1  
     9   21    4 1  
    10   22    4 1  
    11    6    5 ar 
    12    5   23 1  
    13   19    6 ar 
    14    7   25 1  
    15   26    7 1  
    16    7   35 2  
    17   28    8 1  
    18    8   29 1  
    19   10    9 1  
    20   10   11 1  
    21   10   12 1  
    22   13   10 1  
    23   14   13 1  
    24   14   15 1  
    25   15   16 ar 
    26   15   17 ar 
    27   18   19 1  
    28   24   18 ar 
    29   23   22 1  
    30   25   24 ar 
    31   25   36 ar 
    32   27   26 2  
    33   27   28 1  
    34   28   35 1  
    35   29   30 ar 
    36   29   34 ar 
    37   30   31 ar 
    38   31   32 ar 
    39   32   33 ar 
    40   33   34 ar 
    41   36   37 ar 
    42   36   41 ar 
    43   37   38 ar 
    44   38   39 ar 
    45   39   40 ar 
    46   40   41 ar 
    47    2   42 1  
    48    4   43 1  
    49    4   44 1  
    50    6   45 1  
    51    8   46 1  
    52    8   47 1  
    53    9   48 1  
    54    9   49 1  
    55    9   50 1  
    56   11   51 1  
    57   11   52 1  
    58   11   53 1  
    59   12   54 1  
    60   12   55 1  
    61   12   56 1  
    62   14   57 1  
    63   20   58 1  
    64   22   59 1  
    65   22   60 1  
    66   23   61 1  
    67   23   62 1  
    68   26   63 1  
    69   30   64 1  
    70   31   65 1  
    71   32   66 1  
    72   33   67 1  
    73   34   68 1  
    74   35   69 1  
    75   37   70 1  
    76   38   71 1  
    77   39   72 1  
    78   40   73 1  
@<TRIPOS>SUBSTRUCTURE
     1 J3P         1

