### 
### Created by X-TOOL on Mon Aug  2 16:13:15 2021
### 

@<TRIPOS>MOLECULE
6ebw_ligand
   57    61     1     0     0
SMALL
GAST_HUCK


@<TRIPOS>ATOM
      1 C5        -19.9790   -9.6370    6.3950 C.ar      1 J3Y         0.0984
      2 C6        -20.4100   -8.4510    5.8030 C.ar      1 J3Y        -0.0285
      3 C7        -21.6560   -7.9610    6.1010 C.ar      1 J3Y        -0.0605
      4 C8        -22.4580   -8.6720    6.9960 C.ar      1 J3Y         0.0110
      5 C10       -24.0220   -9.5310    8.3890 C.2       1 J3Y         0.0699
      6 C13       -21.8820  -12.4750    9.0560 C.2       1 J3Y        -0.0155
      7 C15       -21.3460  -14.7110   10.2330 C.3       1 J3Y        -0.0313
      8 C21       -24.7120   -7.3350    7.2490 C.2       1 J3Y         0.1822
      9 C24       -26.8150   -6.1220    6.9960 C.3       1 J3Y         0.0561
     10 C28       -26.8810   -8.5240    7.7140 C.3       1 J3Y         0.0561
     11 C1        -17.0170  -11.8950    5.9290 C.3       1 J3Y        -0.0305
     12 C12       -22.8530  -11.5260    9.1470 C.2       1 J3Y         0.2040
     13 C14       -22.1640  -13.4690    9.9950 C.2       1 J3Y        -0.0078
     14 C19       -21.9680   -9.8620    7.5570 C.ar      1 J3Y         0.1460
     15 C2        -18.2710  -11.4200    6.6650 C.3       1 J3Y         0.0816
     16 C25       -27.9490   -6.4470    6.0160 C.3       1 J3Y         0.0679
     17 C27       -27.9840   -8.7440    6.6690 C.3       1 J3Y         0.0679
     18 C29       -17.9690  -11.2740    8.1380 C.ar      1 J3Y         0.0487
     19 C30       -18.0120  -12.3910    8.9500 C.ar      1 J3Y        -0.0318
     20 C31       -17.7380  -12.2550   10.3020 C.ar      1 J3Y        -0.0149
     21 C32       -17.4300  -10.9920   10.7920 C.ar      1 J3Y         0.1528
     22 C34       -17.4070   -9.9190    9.9180 C.ar      1 J3Y         0.0363
     23 C9        -23.8170   -8.4760    7.5460 C.2       1 J3Y         0.0537
     24 F33       -17.1570  -10.8160   12.1030 F         1 J3Y        -0.1798
     25 N11       -22.9460  -10.3540    8.3920 N.pl3     1 J3Y        -0.1790
     26 N16       -23.2560  -13.1360   10.6320 N.2       1 J3Y        -0.2445
     27 N17       -23.7120  -11.9150   10.1230 N.pl3     1 J3Y        -0.2024
     28 N20       -20.7550  -10.2970    7.2360 N.ar      1 J3Y        -0.2710
     29 N23       -26.0710   -7.3530    7.3200 N.am      1 J3Y        -0.2734
     30 N35       -17.6740  -10.0900    8.6370 N.ar      1 J3Y        -0.2981
     31 N4        -18.7150  -10.1390    6.1000 N.pl3     1 J3Y        -0.2968
     32 O22       -24.1860   -6.2910    6.9100 O.2       1 J3Y        -0.4014
     33 O26       -28.7250   -7.5310    6.5300 O.3       1 J3Y        -0.3758
     34 H1        -19.7653   -7.9198    5.1122 H         1 J3Y         0.0536
     35 H2        -22.0108   -7.0408    5.6510 H         1 J3Y         0.0651
     36 H3        -24.9250   -9.6886    8.9770 H         1 J3Y         0.1049
     37 H4        -21.0349  -12.4615    8.3718 H         1 J3Y         0.0238
     38 H5        -21.8098  -15.3079   11.0322 H         1 J3Y         0.0373
     39 H6        -20.3264  -14.4268   10.5323 H         1 J3Y         0.0373
     40 H7        -21.3045  -15.3055    9.3084 H         1 J3Y         0.0373
     41 H8        -27.2388   -5.6974    7.9180 H         1 J3Y         0.0543
     42 H9        -26.1322   -5.3923    6.5363 H         1 J3Y         0.0543
     43 H10       -26.2390   -9.4157    7.7658 H         1 J3Y         0.0543
     44 H11       -27.3368   -8.3426    8.6985 H         1 J3Y         0.0543
     45 H12       -17.2391  -12.0006    4.8568 H         1 J3Y         0.0276
     46 H13       -16.6994  -12.8667    6.3351 H         1 J3Y         0.0276
     47 H14       -16.2108  -11.1593    6.0657 H         1 J3Y         0.0276
     48 H15       -19.0702  -12.1647    6.5357 H         1 J3Y         0.0736
     49 H16       -27.5226   -6.7303    5.0424 H         1 J3Y         0.0580
     50 H17       -28.5912   -5.5627    5.8917 H         1 J3Y         0.0580
     51 H18       -28.6532   -9.5517    7.0003 H         1 J3Y         0.0580
     52 H19       -27.5318   -9.0152    5.7036 H         1 J3Y         0.0580
     53 H20       -18.2570  -13.3619    8.5349 H         1 J3Y         0.0642
     54 H21       -17.7635  -13.1146   10.9620 H         1 J3Y         0.0707
     55 H22       -17.1675   -8.9291   10.2892 H         1 J3Y         0.0788
     56 H23       -24.5500  -11.4029   10.4336 H         1 J3Y         0.2494
     57 H24       -18.0860   -9.6082    5.4807 H         1 J3Y         0.1824
@<TRIPOS>BOND
     1    1    2 ar 
     2    1   28 ar 
     3   31    1 1  
     4    2    3 ar 
     5    3    4 ar 
     6   14    4 ar 
     7    4   23 1  
     8    5   23 2  
     9   25    5 1  
    10   12    6 2  
    11    6   13 1  
    12   13    7 1  
    13   23    8 1  
    14    8   29 am 
    15    8   32 2  
    16    9   16 1  
    17   29    9 1  
    18   10   17 1  
    19   29   10 1  
    20   15   11 1  
    21   25   12 1  
    22   12   27 1  
    23   13   26 2  
    24   14   25 1  
    25   28   14 ar 
    26   15   18 1  
    27   15   31 1  
    28   16   33 1  
    29   17   33 1  
    30   18   19 ar 
    31   18   30 ar 
    32   19   20 ar 
    33   20   21 ar 
    34   21   22 ar 
    35   21   24 1  
    36   22   30 ar 
    37   26   27 1  
    38    2   34 1  
    39    3   35 1  
    40    5   36 1  
    41    6   37 1  
    42    7   38 1  
    43    7   39 1  
    44    7   40 1  
    45    9   41 1  
    46    9   42 1  
    47   10   43 1  
    48   10   44 1  
    49   11   45 1  
    50   11   46 1  
    51   11   47 1  
    52   15   48 1  
    53   16   49 1  
    54   16   50 1  
    55   17   51 1  
    56   17   52 1  
    57   19   53 1  
    58   20   54 1  
    59   22   55 1  
    60   27   56 1  
    61   31   57 1  
@<TRIPOS>SUBSTRUCTURE
     1 J3Y         1

