### 
### Created by X-TOOL on Wed Jan  1 15:39:35 2020
### 

@<TRIPOS>MOLECULE
6ecz_ligand
   36    37     1     0     0
SMALL
GAST_HUCK


@<TRIPOS>ATOM
      1 C13        -0.9510    8.6300   13.6930 C.ar      1 J4D         0.3115
      2 C15         1.1530    8.1840   12.5490 C.ar      1 J4D         0.2936
      3 C17        -0.7810    6.7980   12.1400 C.ar      1 J4D         0.3115
      4 C01        -4.9860    1.1610   13.8650 C.ar      1 J4D         0.0048
      5 C02        -4.7250    1.7520   12.6450 C.ar      1 J4D         0.1371
      6 C03        -4.6500    3.1380   12.5850 C.ar      1 J4D         0.2006
      7 C04        -4.8460    3.9170   13.7360 C.ar      1 J4D         0.1811
      8 C05        -5.1140    3.3090   14.9550 C.ar      1 J4D         0.0248
      9 C06        -5.1830    1.9230   15.0030 C.ar      1 J4D         0.1217
     10 O07        -4.3750    3.7430   11.3550 O.3       1 J4D        -0.3027
     11 N08        -4.7350    5.3620   13.6280 N.am      1 J4D        -0.1528
     12 C09        -3.3590    5.8010   13.4270 C.2       1 J4D         0.4413
     13 N10        -2.9520    7.1970   13.2720 N.am      1 J4D        -0.0985
     14 O11        -2.5270    4.9530   13.3870 O.2       1 J4D        -0.3497
     15 C12        -1.5460    7.5470   13.0470 C.ar      1 J4D         0.3197
     16 C14         0.3900    8.9480   13.4490 C.ar      1 J4D         0.2836
     17 C16         0.5580    7.1010   11.8950 C.ar      1 J4D         0.2836
     18 F18        -1.3250    5.7270   11.4810 F         1 J4D        -0.1322
     19 F19         1.2720    6.3280   11.0070 F         1 J4D        -0.1602
     20 F20         2.4760    8.4890   12.3080 F         1 J4D        -0.1059
     21 F21         0.9540   10.0170   14.1030 F         1 J4D        -0.1602
     22 F22        -1.6700    9.3860   14.5740 F         1 J4D        -0.1322
     23 N23        -4.5470    0.8810   11.4760 N.2       1 J4D        -0.2190
     24 O24        -4.8720    1.2330   10.3960 O.2       1 J4D        -0.4942
     25 O25        -4.0170   -0.4130   11.6500 O.2       1 J4D        -0.4942
     26 S26        -5.5450    1.0110   16.5240 S.o2      1 J4D         0.0674
     27 O27        -6.9170    1.2620   16.9390 O.2       1 J4D        -0.1504
     28 O28        -4.7520    1.4500   17.6710 O.2       1 J4D        -0.1504
     29 N29        -5.3390   -0.6570   16.2380 N.am      1 J4D        -0.2609
     30 H1         -5.0375    0.0803   13.9326 H         1 J4D         0.0774
     31 H2         -5.2659    3.9028   15.8491 H         1 J4D         0.0689
     32 H3         -4.2717    3.0727   10.6897 H         1 J4D         0.2648
     33 H4         -5.5148    5.9854   13.6851 H         1 J4D         0.2782
     34 H5         -3.6402    7.9209   13.3200 H         1 J4D         0.3652
     35 H6         -5.4982   -1.3140   16.9748 H         1 J4D         0.1635
     36 H7         -5.0589   -0.9784   15.3334 H         1 J4D         0.1635
@<TRIPOS>BOND
     1   15    1 ar 
     2    1   16 ar 
     3    1   22 1  
     4   16    2 ar 
     5   17    2 ar 
     6    2   20 1  
     7   15    3 ar 
     8    3   17 ar 
     9    3   18 1  
    10    5    4 ar 
    11    9    4 ar 
    12    6    5 ar 
    13    5   23 1  
    14    7    6 ar 
    15    6   10 1  
    16    7    8 ar 
    17   11    7 1  
    18    8    9 ar 
    19    9   26 1  
    20   12   11 am 
    21   13   12 am 
    22   12   14 2  
    23   13   15 1  
    24   16   21 1  
    25   17   19 1  
    26   23   24 2  
    27   23   25 2  
    28   26   27 2  
    29   26   28 2  
    30   26   29 am 
    31    4   30 1  
    32    8   31 1  
    33   10   32 1  
    34   11   33 1  
    35   13   34 1  
    36   29   35 1  
    37   29   36 1  
@<TRIPOS>SUBSTRUCTURE
     1 J4D         1

