### 
### Created by X-TOOL on Wed Jan  1 15:39:37 2020
### 

@<TRIPOS>MOLECULE
6ed6_ligand
   44    47     1     0     0
SMALL
GAST_HUCK


@<TRIPOS>ATOM
      1 N1         32.0220   43.8710   58.0870 N.ar      1 J0P        -0.2981
      2 C4         27.3180   49.0310   48.6470 C.ar      1 J0P        -0.0880
      3 C5         26.4320   49.9440   48.0480 C.ar      1 J0P        -0.0482
      4 C6         25.0320   49.7580   48.2480 C.ar      1 J0P         0.1134
      5 C7         24.5530   48.7430   49.0810 C.ar      1 J0P         0.1226
      6 C8         22.2730   49.4350   48.6450 C.3       1 J0P         0.0933
      7 C10        26.7570   46.2870   53.8980 C.ar      1 J0P         0.0510
      8 C13        28.8040   45.3040   55.5600 C.ar      1 J0P        -0.0051
      9 C15        27.1310   44.9400   53.8160 C.ar      1 J0P        -0.0401
     10 C17        30.1360   45.3940   57.7050 C.ar      1 J0P        -0.0262
     11 C20        30.7680   43.7540   55.9810 C.ar      1 J0P        -0.0262
     12 O          25.0400   47.7600   53.2580 O.2       1 J0P        -0.3842
     13 C          25.7800   46.8560   52.9440 C.2       1 J0P         0.2072
     14 C14        28.1530   44.4490   54.6430 C.ar      1 J0P        -0.0460
     15 C16        29.9140   44.8210   56.4060 C.ar      1 J0P         0.0033
     16 C19        31.7960   43.3210   56.8560 C.ar      1 J0P         0.0109
     17 C18        31.1910   44.8870   58.4880 C.ar      1 J0P         0.0109
     18 C12        28.3670   46.6330   55.6530 C.ar      1 J0P        -0.0460
     19 C11        27.3520   47.1210   54.8380 C.ar      1 J0P        -0.0401
     20 N          25.8000   46.3780   51.6570 N.am      1 J0P        -0.2768
     21 C1         24.8750   46.8270   50.6200 C.3       1 J0P         0.0596
     22 C2         25.4500   47.8560   49.6990 C.ar      1 J0P        -0.0002
     23 O1         23.1960   48.5660   49.3060 O.3       1 J0P        -0.3233
     24 C9         22.9230   50.7710   48.2470 C.3       1 J0P         0.0946
     25 O2         24.1370   50.5340   47.5420 O.3       1 J0P        -0.3212
     26 C3         26.8220   47.9930   49.4410 C.ar      1 J0P        -0.0778
     27 H1         28.3862   49.1322   48.4929 H         1 J0P         0.0479
     28 H2         26.8034   50.7680   47.4496 H         1 J0P         0.0456
     29 H3         21.4297   49.6381   49.3214 H         1 J0P         0.0633
     30 H4         21.9030   48.9358   47.7373 H         1 J0P         0.0633
     31 H5         26.6328   44.2789   53.1162 H         1 J0P         0.0672
     32 H6         29.5070   46.1965   58.0730 H         1 J0P         0.0718
     33 H7         30.6319   43.2875   55.0120 H         1 J0P         0.0718
     34 H8         28.4447   43.4070   54.5777 H         1 J0P         0.0648
     35 H9         32.4376   42.5098   56.5313 H         1 J0P         0.0822
     36 H10        31.3566   45.3253   59.4655 H         1 J0P         0.0822
     37 H11        28.8306   47.2943   56.3761 H         1 J0P         0.0648
     38 H12        27.0250   48.1499   54.9352 H         1 J0P         0.0672
     39 H13        26.4825   45.6874   51.4177 H         1 J0P         0.1868
     40 H14        23.9884   47.2568   51.1091 H         1 J0P         0.0656
     41 H15        24.5763   45.9542   50.0208 H         1 J0P         0.0656
     42 H16        23.1372   51.3557   49.1537 H         1 J0P         0.0635
     43 H17        22.2320   51.3340   47.6023 H         1 J0P         0.0635
     44 H18        27.5145   47.2765   49.8678 H         1 J0P         0.0438
@<TRIPOS>BOND
     1   16    1 ar 
     2   17    1 ar 
     3    3    2 ar 
     4    2   26 ar 
     5    4    3 ar 
     6    5    4 ar 
     7    4   25 1  
     8   22    5 ar 
     9    5   23 1  
    10   23    6 1  
    11    6   24 1  
    12    7    9 ar 
    13   13    7 1  
    14    7   19 ar 
    15   14    8 ar 
    16    8   15 1  
    17   18    8 ar 
    18    9   14 ar 
    19   15   10 ar 
    20   10   17 ar 
    21   15   11 ar 
    22   11   16 ar 
    23   13   12 2  
    24   20   13 am 
    25   19   18 ar 
    26   21   20 1  
    27   21   22 1  
    28   22   26 ar 
    29   24   25 1  
    30    2   27 1  
    31    3   28 1  
    32    6   29 1  
    33    6   30 1  
    34    9   31 1  
    35   10   32 1  
    36   11   33 1  
    37   14   34 1  
    38   16   35 1  
    39   17   36 1  
    40   18   37 1  
    41   19   38 1  
    42   20   39 1  
    43   21   40 1  
    44   21   41 1  
    45   24   42 1  
    46   24   43 1  
    47   26   44 1  
@<TRIPOS>SUBSTRUCTURE
     1 J0P         1

