### 
### Created by X-TOOL on Mon Aug  2 16:13:15 2021
### 

@<TRIPOS>MOLECULE
6edl_ligand
   42    45     1     0     0
SMALL
GAST_HUCK


@<TRIPOS>ATOM
      1 C5         20.3050   -9.1210   -6.4880 C.2       1 J4M         0.1487
      2 C6         20.8280   -7.9260   -5.9600 C.2       1 J4M        -0.0006
      3 C7         22.0980   -7.5490   -6.2660 C.2       1 J4M         0.0041
      4 C8         22.8740   -8.3650   -7.1110 C.2       1 J4M         0.1619
      5 C10        24.3940   -9.2960   -8.3470 C.2       1 J4M        -0.0082
      6 C13        22.0410  -12.2070   -9.1310 C.2       1 J4M        -0.0447
      7 C15        21.3990  -14.4450  -10.2470 C.3       1 J4M        -0.0294
      8 C21        18.1700  -10.8720   -8.0300 C.ar      1 J4M         0.0111
      9 C22        17.8740   -9.7000   -8.6980 C.ar      1 J4M        -0.0615
     10 C24        17.5180  -10.9390  -10.7180 C.ar      1 J4M         0.1231
     11 C26        17.8140  -12.1150  -10.0540 C.ar      1 J4M        -0.0014
     12 C1         17.2900  -11.2110   -5.7380 C.3       1 J4M        -0.0335
     13 C11        23.2850  -10.1180   -8.3870 C.2       1 J4M         0.1372
     14 C12        23.1470  -11.3840   -9.1270 C.2       1 J4M         0.1001
     15 C14        22.3300  -13.2960   -9.9520 C.2       1 J4M        -0.0019
     16 C2         18.5260  -10.8460   -6.5640 C.3       1 J4M         0.0676
     17 C23        17.5470   -9.7320  -10.0400 C.ar      1 J4M        -0.0389
     18 C27        18.1410  -12.0790   -8.7090 C.ar      1 J4M         0.1337
     19 F25        17.1990  -10.9660  -12.0310 F         1 J4M        -0.1903
     20 F28        18.4330  -13.2260   -8.0540 F         1 J4M        -0.1900
     21 N16        23.5400  -13.1550  -10.4280 N.2       1 J4M        -0.2383
     22 N17        24.0870  -11.9690   -9.9290 N.pl3     1 J4M        -0.2295
     23 N19        22.3320   -9.5220   -7.6070 N.pl3     1 J4M        -0.1406
     24 N20        21.0270   -9.8820   -7.2740 N.2       1 J4M        -0.1457
     25 N4         19.0030   -9.5110   -6.1770 N.pl3     1 J4M        -0.2915
     26 N9         24.1160   -8.2520   -7.5720 N.2       1 J4M        -0.3269
     27 H1         20.2167   -7.3043   -5.3075 H         1 J4M         0.0688
     28 H2         22.5105   -6.6258   -5.8618 H         1 J4M         0.0749
     29 H3         25.3366   -9.4729   -8.8629 H         1 J4M         0.0566
     30 H4         21.1107  -12.0373   -8.5910 H         1 J4M         0.0278
     31 H5         21.8959  -15.1548  -10.9247 H         1 J4M         0.0375
     32 H6         20.4841  -14.0627  -10.7232 H         1 J4M         0.0375
     33 H7         21.1380  -14.9557   -9.3084 H         1 J4M         0.0375
     34 H8         17.8983   -8.7542   -8.1689 H         1 J4M         0.0537
     35 H9         17.7902  -13.0605  -10.5837 H         1 J4M         0.0572
     36 H10        17.5456  -11.1931   -4.6682 H         1 J4M         0.0272
     37 H11        16.9474  -12.2185   -6.0163 H         1 J4M         0.0272
     38 H12        16.4889  -10.4836   -5.9358 H         1 J4M         0.0272
     39 H13        19.3214  -11.5813   -6.3725 H         1 J4M         0.0695
     40 H14        17.3130   -8.8115  -10.5625 H         1 J4M         0.0552
     41 H15        25.0284  -11.6022  -10.1295 H         1 J4M         0.2456
     42 H16        18.3765   -8.8644   -5.6768 H         1 J4M         0.1818
@<TRIPOS>BOND
     1    1    2 1  
     2    1   24 2  
     3   25    1 1  
     4    2    3 2  
     5    3    4 1  
     6    4   23 1  
     7    4   26 2  
     8    5   13 2  
     9   26    5 1  
    10   14    6 2  
    11    6   15 1  
    12   15    7 1  
    13    8    9 ar 
    14   16    8 1  
    15    8   18 ar 
    16    9   17 ar 
    17   11   10 ar 
    18   17   10 ar 
    19   10   19 1  
    20   18   11 ar 
    21   16   12 1  
    22   13   14 1  
    23   23   13 1  
    24   14   22 1  
    25   15   21 2  
    26   16   25 1  
    27   18   20 1  
    28   21   22 1  
    29   23   24 1  
    30    2   27 1  
    31    3   28 1  
    32    5   29 1  
    33    6   30 1  
    34    7   31 1  
    35    7   32 1  
    36    7   33 1  
    37    9   34 1  
    38   11   35 1  
    39   12   36 1  
    40   12   37 1  
    41   12   38 1  
    42   16   39 1  
    43   17   40 1  
    44   22   41 1  
    45   25   42 1  
@<TRIPOS>SUBSTRUCTURE
     1 J4M         1

