### 
### Created by X-TOOL on Mon Aug  2 16:13:16 2021
### 

@<TRIPOS>MOLECULE
6eds_ligand
   70    74     1     0     0
SMALL
GAST_HUCK


@<TRIPOS>ATOM
      1 C03       100.2660  -69.2720  -29.7560 C.2       1 J22         0.2749
      2 C05        99.8620  -71.2580  -28.7860 C.2       1 J22        -0.0217
      3 C06       101.1660  -71.2980  -29.3410 C.2       1 J22         0.0378
      4 C08       102.6140  -69.6530  -30.6340 C.3       1 J22         0.0492
      5 C10        97.2800  -67.6620  -30.3350 C.3       1 J22         0.0752
      6 C11        96.2520  -66.7440  -31.1200 C.3       1 J22         0.0148
      7 C12        98.4320  -66.0640  -28.7550 C.3       1 J22         0.0304
      8 C13        97.8480  -64.6850  -29.2070 C.3       1 J22        -0.0311
      9 C14        96.3660  -64.4330  -28.7980 C.3       1 J22        -0.0110
     10 C15        95.4920  -65.7220  -28.9140 C.3       1 J22        -0.0309
     11 C17        94.0650  -66.7090  -31.0430 C.3       1 J22         0.0210
     12 C18        93.1410  -67.5660  -30.1490 C.3       1 J22         0.0893
     13 C20        95.1310  -67.5480  -31.8170 C.3       1 J22         0.0820
     14 C21        95.0240  -67.4310  -33.3480 C.ar      1 J22        -0.0292
     15 C22        94.7800  -68.5960  -34.0870 C.ar      1 J22        -0.0594
     16 C23        94.6580  -68.5390  -35.4850 C.ar      1 J22        -0.0619
     17 C24        94.7690  -67.3230  -36.2010 C.ar      1 J22        -0.0295
     18 C25        94.6240  -67.3520  -37.6260 C.ar      1 J22        -0.0262
     19 C26        93.3860  -67.0820  -38.2770 C.ar      1 J22        -0.0368
     20 C27        92.1720  -66.6920  -37.4410 C.3       1 J22        -0.0328
     21 C28        93.2950  -67.1540  -39.6790 C.ar      1 J22        -0.0441
     22 C29        91.9870  -66.8520  -40.3650 C.3       1 J22        -0.0338
     23 C30        94.4360  -67.5130  -40.4420 C.ar      1 J22        -0.0676
     24 C31        95.6800  -67.8030  -39.8130 C.ar      1 J22        -0.0754
     25 C32        95.7570  -67.7260  -38.4060 C.ar      1 J22        -0.0685
     26 C33        95.0060  -66.1400  -35.4450 C.ar      1 J22        -0.0619
     27 C34        95.1280  -66.1950  -34.0310 C.ar      1 J22        -0.0594
     28 N04        99.3320  -69.9850  -29.0660 N.2       1 J22        -0.3060
     29 N07       101.3670  -70.0620  -29.9220 N.pl3     1 J22        -0.2328
     30 N09        98.5720  -67.0090  -29.8960 N.am      1 J22        -0.2234
     31 N16        95.1460  -65.9940  -30.3260 N.4       1 J22         0.2459
     32 O01       100.2430  -67.4990  -31.7930 O.2       1 J22        -0.1441
     33 O19        92.9300  -68.8300  -30.8720 O.3       1 J22        -0.3893
     34 O35       101.1220  -66.7520  -29.8240 O.2       1 J22        -0.1441
     35 S02       100.0540  -67.5660  -30.3480 S.o2      1 J22         0.1137
     36 H1         99.3643  -72.0613  -28.2448 H         1 J22         0.0444
     37 H2        101.8654  -72.1323  -29.3144 H         1 J22         0.0861
     38 H3        102.5065  -68.6206  -30.9981 H         1 J22         0.0589
     39 H4        102.7871  -70.3262  -31.4865 H         1 J22         0.0589
     40 H5        103.4671  -69.7108  -29.9420 H         1 J22         0.0589
     41 H6         97.5389  -68.5080  -30.9887 H         1 J22         0.0536
     42 H7         96.7724  -68.0368  -29.4339 H         1 J22         0.0536
     43 H8         96.8208  -66.0832  -31.7906 H         1 J22         0.0896
     44 H9         97.7584  -66.5073  -28.0069 H         1 J22         0.0478
     45 H10        99.4225  -65.9004  -28.3054 H         1 J22         0.0478
     46 H11        97.9137  -64.6292  -30.3036 H         1 J22         0.0283
     47 H12        98.4649  -63.8905  -28.7618 H         1 J22         0.0283
     48 H13        95.9441  -63.6591  -29.4561 H         1 J22         0.0317
     49 H14        96.3414  -64.0815  -27.7560 H         1 J22         0.0317
     50 H15        94.5665  -65.5840  -28.3357 H         1 J22         0.0815
     51 H16        96.0536  -66.5767  -28.5089 H         1 J22         0.0815
     52 H17        93.4515  -66.0584  -31.6835 H         1 J22         0.0903
     53 H18        92.1812  -67.0529  -29.9895 H         1 J22         0.0616
     54 H19        93.6203  -67.7575  -29.1776 H         1 J22         0.0616
     55 H20        95.1368  -68.6148  -31.5489 H         1 J22         0.0576
     56 H21        94.6848  -69.5475  -33.5765 H         1 J22         0.0558
     57 H22        94.4729  -69.4556  -36.0333 H         1 J22         0.0599
     58 H23        92.4450  -66.6931  -36.3754 H         1 J22         0.0380
     59 H24        91.3611  -67.4152  -37.6124 H         1 J22         0.0380
     60 H25        91.8342  -65.6864  -37.7319 H         1 J22         0.0380
     61 H26        92.1101  -66.9596  -41.4528 H         1 J22         0.0375
     62 H27        91.6794  -65.8222  -40.1309 H         1 J22         0.0375
     63 H28        91.2172  -67.5539  -40.0120 H         1 J22         0.0375
     64 H29        94.3594  -67.5674  -41.5219 H         1 J22         0.0533
     65 H30        96.5482  -68.0767  -40.4015 H         1 J22         0.0542
     66 H31        96.6933  -67.9551  -37.9101 H         1 J22         0.0540
     67 H32        95.0943  -65.1871  -35.9541 H         1 J22         0.0599
     68 H33        95.3021  -65.2837  -33.4704 H         1 J22         0.0558
     69 H34        95.0826  -65.0510  -30.6765 H         1 J22         0.2044
     70 H35        92.3641  -69.3957  -30.3600 H         1 J22         0.2097
@<TRIPOS>BOND
     1    1   28 2  
     2    1   29 1  
     3   35    1 1  
     4    3    2 2  
     5   28    2 1  
     6   29    3 1  
     7   29    4 1  
     8    5    6 1  
     9   30    5 1  
    10    6   13 1  
    11    6   31 1  
    12    7    8 1  
    13   30    7 1  
    14    8    9 1  
    15    9   10 1  
    16   31   10 1  
    17   11   12 1  
    18   13   11 1  
    19   31   11 1  
    20   12   33 1  
    21   13   14 1  
    22   14   15 ar 
    23   14   27 ar 
    24   15   16 ar 
    25   16   17 ar 
    26   17   18 1  
    27   26   17 ar 
    28   18   19 ar 
    29   18   25 ar 
    30   19   20 1  
    31   19   21 ar 
    32   21   22 1  
    33   21   23 ar 
    34   24   23 ar 
    35   25   24 ar 
    36   27   26 ar 
    37   30   35 am 
    38   35   32 2  
    39   35   34 2  
    40    2   36 1  
    41    3   37 1  
    42    4   38 1  
    43    4   39 1  
    44    4   40 1  
    45    5   41 1  
    46    5   42 1  
    47    6   43 1  
    48    7   44 1  
    49    7   45 1  
    50    8   46 1  
    51    8   47 1  
    52    9   48 1  
    53    9   49 1  
    54   10   50 1  
    55   10   51 1  
    56   11   52 1  
    57   12   53 1  
    58   12   54 1  
    59   13   55 1  
    60   15   56 1  
    61   16   57 1  
    62   20   58 1  
    63   20   59 1  
    64   20   60 1  
    65   22   61 1  
    66   22   62 1  
    67   22   63 1  
    68   23   64 1  
    69   24   65 1  
    70   25   66 1  
    71   26   67 1  
    72   27   68 1  
    73   31   69 1  
    74   33   70 1  
@<TRIPOS>SUBSTRUCTURE
     1 J22         1

