### 
### Created by X-TOOL on Wed Jan  1 15:39:37 2020
### 

@<TRIPOS>MOLECULE
6ee2_ligand
   50    52     1     0     0
SMALL
GAST_HUCK


@<TRIPOS>ATOM
      1 CAP       178.0530   16.6010   85.2640 C.3       1 J1V        -0.0332
      2 CAN       179.4960   16.3080   85.6470 C.3       1 J1V        -0.0507
      3 CAM       180.4070   17.4510   85.1780 C.3       1 J1V        -0.0528
      4 CAO       180.2420   17.7080   83.6590 C.3       1 J1V        -0.0507
      5 CAQ       178.7490   17.9660   83.3120 C.3       1 J1V        -0.0332
      6 CBB       178.0250   16.7240   83.7590 C.3       1 J1V         0.0489
      7 CAU       176.6070   16.4960   83.2250 C.2       1 J1V         0.1830
      8 OAB       176.2520   16.8330   82.1010 O.2       1 J1V        -0.3965
      9 N         175.9020   15.7550   84.0830 N.am      1 J1V        -0.2547
     10 CA        174.6230   15.0890   83.8650 C.3       1 J1V         0.1661
     11 C         174.5630   14.0440   84.9770 C.2       1 J1V         0.2364
     12 O         174.4680   14.4220   86.1520 O.2       1 J1V        -0.3913
     13 NAR       174.7390   12.7750   84.5110 N.am      1 J1V        -0.1606
     14 OAC       174.6820   11.5290   85.4340 O.3       1 J1V        -0.2715
     15 CAZ       173.4400   15.8260   83.7970 C.ar      1 J1V         0.0014
     16 CAJ       172.3910   15.2160   83.1100 C.ar      1 J1V        -0.0550
     17 CAH       171.1620   15.8460   82.9780 C.ar      1 J1V        -0.0606
     18 CAI       173.2710   17.0830   84.3690 C.ar      1 J1V        -0.0550
     19 CAG       172.0340   17.7190   84.2320 C.ar      1 J1V        -0.0606
     20 CAX       170.9840   17.0980   83.5500 C.ar      1 J1V        -0.0282
     21 CAY       169.7630   17.7480   83.3980 C.ar      1 J1V        -0.0293
     22 CAK       168.9120   17.3520   82.3710 C.ar      1 J1V        -0.0274
     23 CAV       167.7020   18.0050   82.1800 C.ar      1 J1V         0.1638
     24 FAD       166.8660   17.6310   81.2000 F         1 J1V        -0.1855
     25 CBA       167.3420   19.0560   83.0080 C.ar      1 J1V         0.1978
     26 FAF       166.1960   19.6950   82.8400 F         1 J1V        -0.1851
     27 CAW       168.1860   19.4580   84.0260 C.ar      1 J1V         0.1638
     28 FAE       167.7830   20.4960   84.8100 F         1 J1V        -0.1855
     29 CAL       169.4090   18.8110   84.2240 C.ar      1 J1V        -0.0274
     30 H1        177.7200   17.5410   85.7283 H         1 J1V         0.0292
     31 H2        177.3989   15.7790   85.5902 H         1 J1V         0.0292
     32 H3        179.8156   15.3691   85.1712 H         1 J1V         0.0267
     33 H4        179.5697   16.2088   86.7400 H         1 J1V         0.0267
     34 H5        181.4538   17.1844   85.3856 H         1 J1V         0.0265
     35 H6        180.1459   18.3673   85.7278 H         1 J1V         0.0265
     36 H7        180.5967   16.8283   83.1019 H         1 J1V         0.0267
     37 H8        180.8376   18.5876   83.3734 H         1 J1V         0.0267
     38 H9        178.6242   18.1178   82.2297 H         1 J1V         0.0292
     39 H10       178.3734   18.8478   83.8517 H         1 J1V         0.0292
     40 H11       178.6195   15.8866   83.3648 H         1 J1V         0.0538
     41 H12       176.3025   15.6421   84.9923 H         1 J1V         0.1908
     42 H13       174.6976   14.5697   82.8982 H         1 J1V         0.0962
     43 H14       174.9118   12.6418   83.5351 H         1 J1V         0.2219
     44 H15       175.3544   11.5996   86.1013 H         1 J1V         0.2490
     45 H16       172.5380   14.2351   82.6726 H         1 J1V         0.0564
     46 H17       170.3536   15.3680   82.4367 H         1 J1V         0.0605
     47 H18       174.0814   17.5589   84.9093 H         1 J1V         0.0564
     48 H19       171.8874   18.7044   84.6593 H         1 J1V         0.0605
     49 H20       169.1941   16.5329   81.7195 H         1 J1V         0.0558
     50 H21       170.0765   19.1344   85.0145 H         1 J1V         0.0558
@<TRIPOS>BOND
     1    1    2 1  
     2    1    6 1  
     3    2    3 1  
     4    3    4 1  
     5    4    5 1  
     6    5    6 1  
     7    6    7 1  
     8    7    8 2  
     9    7    9 am 
    10    9   10 1  
    11   10   11 1  
    12   10   15 1  
    13   11   12 2  
    14   11   13 am 
    15   13   14 1  
    16   15   16 ar 
    17   15   18 ar 
    18   16   17 ar 
    19   17   20 ar 
    20   18   19 ar 
    21   19   20 ar 
    22   20   21 1  
    23   21   22 ar 
    24   21   29 ar 
    25   22   23 ar 
    26   23   24 1  
    27   23   25 ar 
    28   25   26 1  
    29   25   27 ar 
    30   27   28 1  
    31   27   29 ar 
    32    1   30 1  
    33    1   31 1  
    34    2   32 1  
    35    2   33 1  
    36    3   34 1  
    37    3   35 1  
    38    4   36 1  
    39    4   37 1  
    40    5   38 1  
    41    5   39 1  
    42    6   40 1  
    43    9   41 1  
    44   10   42 1  
    45   13   43 1  
    46   14   44 1  
    47   16   45 1  
    48   17   46 1  
    49   18   47 1  
    50   19   48 1  
    51   22   49 1  
    52   29   50 1  
@<TRIPOS>SUBSTRUCTURE
     1 J1V         1

