### 
### Created by X-TOOL on Wed Jan  1 15:39:35 2020
### 

@<TRIPOS>MOLECULE
6ee3_ligand
   56    60     1     0     0
SMALL
GAST_HUCK


@<TRIPOS>ATOM
      1 CBA        93.2250  116.5840   10.3670 C.3       1 J4V        -0.0450
      2 CAZ        91.9140  116.0320   10.9640 C.3       1 J4V        -0.0206
      3 CBF        91.9880  114.4800   11.0240 C.3       1 J4V        -0.0450
      4 CBC        93.2390  114.0360   11.8130 C.3       1 J4V        -0.0400
      5 CBB        93.1380  114.5720   13.2700 C.3       1 J4V        -0.0450
      6 CBD        94.4800  114.6400   11.1360 C.3       1 J4V        -0.0473
      7 CBE        94.0890  116.0020   11.3100 C.3       1 J4V        -0.0400
      8 CBG        94.3160  116.6690   12.5630 C.3       1 J4V        -0.0450
      9 CAY        93.0540  116.1480   13.2370 C.3       1 J4V        -0.0206
     10 CAW        91.7870  116.5700   12.3930 C.3       1 J4V         0.0545
     11 CAV        91.5110  118.1070   12.3480 C.2       1 J4V         0.1836
     12 OAX        92.3740  118.9740   12.2170 O.2       1 J4V        -0.3965
     13 N          90.2160  118.3700   12.4480 N.am      1 J4V        -0.2539
     14 CA         89.6830  119.7280   12.5060 C.3       1 J4V         0.1787
     15 C          88.7700  119.9960   11.3290 C.2       1 J4V         0.3238
     16 O          87.9350  119.1810   10.9440 O.2       1 J4V        -0.3227
     17 NAS        89.0480  121.1380   10.7300 N.2       1 J4V         0.0396
     18 OAT        88.3210  121.4560    9.6800 O.2       1 J4V        -0.1732
     19 CAC        89.1720  119.9340   13.8250 C.ar      1 J4V         0.0024
     20 CAD        88.9220  121.2240   14.2790 C.ar      1 J4V        -0.0549
     21 CAE        88.4930  121.4440   15.5930 C.ar      1 J4V        -0.0606
     22 CAB        89.0130  118.8540   14.7060 C.ar      1 J4V        -0.0549
     23 CAA        88.5940  119.0540   16.0270 C.ar      1 J4V        -0.0606
     24 CAF        88.3190  120.3630   16.4640 C.ar      1 J4V        -0.0282
     25 CAG        87.9720  120.6060   17.7980 C.ar      1 J4V        -0.0293
     26 CAH        86.8910  120.0640   18.4580 C.ar      1 J4V        -0.0274
     27 CAI        86.7290  120.3690   19.8210 C.ar      1 J4V         0.1638
     28 FAO        85.6720  119.9000   20.4810 F         1 J4V        -0.1855
     29 CAJ        87.6350  121.1630   20.5080 C.ar      1 J4V         0.1978
     30 FAN        87.4690  121.4460   21.8390 F         1 J4V        -0.1851
     31 CAK        88.7370  121.6660   19.8630 C.ar      1 J4V         0.1638
     32 FAM        89.5850  122.4060   20.5540 F         1 J4V        -0.1855
     33 CAL        88.9030  121.3880   18.5100 C.ar      1 J4V        -0.0274
     34 H1         93.2650  117.6832   10.3792 H         1 J4V         0.0272
     35 H2         93.4094  116.2217    9.3449 H         1 J4V         0.0272
     36 H3         91.0538  116.3479   10.3555 H         1 J4V         0.0328
     37 H4         92.0423  114.0790   10.0012 H         1 J4V         0.0272
     38 H5         91.0874  114.0923   11.5226 H         1 J4V         0.0272
     39 H6         93.3106  112.9384   11.8214 H         1 J4V         0.0301
     40 H7         94.0273  114.2626   13.8386 H         1 J4V         0.0272
     41 H8         92.2358  114.1652   13.7502 H         1 J4V         0.0272
     42 H9         94.5693  114.3544   10.0775 H         1 J4V         0.0271
     43 H10        95.4143  114.3945   11.6622 H         1 J4V         0.0271
     44 H11        95.0007  116.4044   10.8442 H         1 J4V         0.0301
     45 H12        94.3276  117.7648   12.4674 H         1 J4V         0.0272
     46 H13        95.2365  116.3348   13.0639 H         1 J4V         0.0272
     47 H14        92.9763  116.5489   14.2584 H         1 J4V         0.0328
     48 H15        90.9123  116.0961   12.8623 H         1 J4V         0.0543
     49 H16        89.5748  117.6036   12.4854 H         1 J4V         0.1909
     50 H17        90.5263  120.4249   12.3911 H         1 J4V         0.0973
     51 H18        89.0604  122.0659   13.6103 H         1 J4V         0.0564
     52 H19        88.2953  122.4531   15.9362 H         1 J4V         0.0605
     53 H20        89.2179  117.8479   14.3583 H         1 J4V         0.0564
     54 H21        88.4832  118.2135   16.7025 H         1 J4V         0.0605
     55 H22        86.1865  119.4217   17.9420 H         1 J4V         0.0558
     56 H23        89.7692  121.7824   17.9912 H         1 J4V         0.0558
@<TRIPOS>BOND
     1    1    2 1  
     2    1    7 1  
     3    2    3 1  
     4    2   10 1  
     5    3    4 1  
     6    4    5 1  
     7    4    6 1  
     8    5    9 1  
     9    6    7 1  
    10    7    8 1  
    11    8    9 1  
    12    9   10 1  
    13   10   11 1  
    14   11   12 2  
    15   11   13 am 
    16   13   14 1  
    17   14   15 1  
    18   14   19 1  
    19   15   16 2  
    20   15   17 1  
    21   17   18 2  
    22   19   20 ar 
    23   19   22 ar 
    24   20   21 ar 
    25   21   24 ar 
    26   22   23 ar 
    27   23   24 ar 
    28   24   25 1  
    29   25   26 ar 
    30   25   33 ar 
    31   26   27 ar 
    32   27   28 1  
    33   27   29 ar 
    34   29   30 1  
    35   29   31 ar 
    36   31   32 1  
    37   31   33 ar 
    38    1   34 1  
    39    1   35 1  
    40    2   36 1  
    41    3   37 1  
    42    3   38 1  
    43    4   39 1  
    44    5   40 1  
    45    5   41 1  
    46    6   42 1  
    47    6   43 1  
    48    7   44 1  
    49    8   45 1  
    50    8   46 1  
    51    9   47 1  
    52   10   48 1  
    53   13   49 1  
    54   14   50 1  
    55   20   51 1  
    56   21   52 1  
    57   22   53 1  
    58   23   54 1  
    59   26   55 1  
    60   33   56 1  
@<TRIPOS>SUBSTRUCTURE
     1 J4V         1

