### 
### Created by X-TOOL on Wed Jan  1 15:39:35 2020
### 

@<TRIPOS>MOLECULE
6ee4_ligand
   44    46     1     0     0
SMALL
GAST_HUCK


@<TRIPOS>ATOM
      1 N         -15.1480    9.5420  -12.3080 N.am      1 J4S        -0.2549
      2 CA        -14.6400   10.9240  -12.3910 C.3       1 J4S         0.1661
      3 C         -13.7460   11.2820  -11.2070 C.2       1 J4S         0.2364
      4 O         -12.8590   10.5360  -10.7740 O.2       1 J4S        -0.3913
      5 CAA       -13.5430   10.3880  -15.9450 C.ar      1 J4S        -0.0606
      6 CAB       -13.9620   10.1300  -14.6290 C.ar      1 J4S        -0.0550
      7 CAC       -14.1370   11.1710  -13.7070 C.ar      1 J4S         0.0014
      8 CAD       -13.8940   12.4720  -14.1320 C.ar      1 J4S        -0.0550
      9 CAE       -13.4770   12.7440  -15.4490 C.ar      1 J4S        -0.0606
     10 CAF       -13.2820   11.7040  -16.3550 C.ar      1 J4S        -0.0282
     11 CAG       -12.9410   11.9570  -17.6940 C.ar      1 J4S        -0.0293
     12 CAH       -13.8830   12.7190  -18.4090 C.ar      1 J4S        -0.0274
     13 CAI       -13.6940   13.0050  -19.7650 C.ar      1 J4S         0.1638
     14 CAJ       -12.5780   12.5070  -20.4070 C.ar      1 J4S         0.1978
     15 CAK       -11.6650   11.7290  -19.7160 C.ar      1 J4S         0.1638
     16 CAL       -11.8420   11.4300  -18.3640 C.ar      1 J4S        -0.0274
     17 CAS       -16.4600    9.2930  -12.3610 C.2       1 J4S         0.1802
     18 CAT       -16.8260    7.7920  -12.3570 C.3       1 J4S         0.0403
     19 CAV       -15.5710    6.9240  -12.6130 C.3       1 J4S        -0.0241
     20 CAZ       -15.1970    6.6750  -14.0750 C.3       1 J4S        -0.0477
     21 CBA       -15.7760    5.5470  -13.2430 C.3       1 J4S        -0.0477
     22 FAM       -10.6010   11.2810  -20.3650 F         1 J4S        -0.1855
     23 FAN       -12.3770   12.7710  -21.7300 F         1 J4S        -0.1851
     24 FAO       -14.5860   13.7580  -20.4830 F         1 J4S        -0.1855
     25 NAW       -14.0590   12.4460  -10.6520 N.am      1 J4S        -0.1606
     26 OAU       -17.3230   10.1830  -12.3740 O.2       1 J4S        -0.3968
     27 OAX       -13.2570   12.7910   -9.5630 O.3       1 J4S        -0.2715
     28 H1        -14.5040    8.7832  -12.2110 H         1 J4S         0.1908
     29 H2        -15.5155   11.5820  -12.2887 H         1 J4S         0.0962
     30 H3        -13.4212    9.5690  -16.6446 H         1 J4S         0.0605
     31 H4        -14.1532    9.1083  -14.3215 H         1 J4S         0.0564
     32 H5        -14.0281   13.2925  -13.4364 H         1 J4S         0.0564
     33 H6        -13.3067   13.7685  -15.7597 H         1 J4S         0.0605
     34 H7        -14.7669   13.0893  -17.9023 H         1 J4S         0.0558
     35 H8        -11.1330   10.7961  -17.8437 H         1 J4S         0.0558
     36 H9        -17.5665    7.5985  -13.1471 H         1 J4S         0.0505
     37 H10       -17.2551    7.5273  -11.3794 H         1 J4S         0.0505
     38 H11       -14.8058    7.0920  -11.8409 H         1 J4S         0.0325
     39 H12       -14.1389    6.6494  -14.3747 H         1 J4S         0.0270
     40 H13       -15.7953    7.1271  -14.8798 H         1 J4S         0.0270
     41 H14       -16.7936    5.1818  -13.4455 H         1 J4S         0.0270
     42 H15       -15.1373    4.7041  -12.9404 H         1 J4S         0.0270
     43 H16       -14.8036   13.0248  -10.9846 H         1 J4S         0.2219
     44 H17       -13.5369   13.6308   -9.2185 H         1 J4S         0.2490
@<TRIPOS>BOND
     1    2    1 1  
     2    1   17 am 
     3    2    3 1  
     4    7    2 1  
     5    3    4 2  
     6    3   25 am 
     7    6    5 ar 
     8    5   10 ar 
     9    6    7 ar 
    10    7    8 ar 
    11    8    9 ar 
    12    9   10 ar 
    13   10   11 1  
    14   11   12 ar 
    15   11   16 ar 
    16   12   13 ar 
    17   13   14 ar 
    18   13   24 1  
    19   14   15 ar 
    20   14   23 1  
    21   15   16 ar 
    22   15   22 1  
    23   17   18 1  
    24   17   26 2  
    25   18   19 1  
    26   19   20 1  
    27   19   21 1  
    28   20   21 1  
    29   25   27 1  
    30    1   28 1  
    31    2   29 1  
    32    5   30 1  
    33    6   31 1  
    34    8   32 1  
    35    9   33 1  
    36   12   34 1  
    37   16   35 1  
    38   18   36 1  
    39   18   37 1  
    40   19   38 1  
    41   20   39 1  
    42   20   40 1  
    43   21   41 1  
    44   21   42 1  
    45   25   43 1  
    46   27   44 1  
@<TRIPOS>SUBSTRUCTURE
     1 J4S         1

