### 
### Created by X-TOOL on Wed Jan  1 15:39:35 2020
### 

@<TRIPOS>MOLECULE
6ee6_ligand
   50    52     1     0     0
SMALL
GAST_HUCK


@<TRIPOS>ATOM
      1 N         166.3980  226.8440   11.9880 N.am      1 J4P        -0.2549
      2 CA        165.7720  228.1470   12.3310 C.3       1 J4P         0.1661
      3 C         164.8130  228.4850   11.1960 C.2       1 J4P         0.2364
      4 O         163.9460  227.6910   10.8270 O.2       1 J4P        -0.3913
      5 CAG       164.5840  229.8460   15.3980 C.ar      1 J4P        -0.0606
      6 CAH       164.6180  227.4900   15.8460 C.ar      1 J4P        -0.0606
      7 CAI       165.0200  229.5820   14.0990 C.ar      1 J4P        -0.0550
      8 CAJ       165.0630  227.2320   14.5380 C.ar      1 J4P        -0.0550
      9 CAK       164.8950  229.8390   18.3490 C.ar      1 J4P        -0.0274
     10 CAL       162.9090  228.4830   18.2830 C.ar      1 J4P        -0.0274
     11 CAM       168.5960  226.2360    7.6210 C.3       1 J4P        -0.0527
     12 CAN       169.6540  225.1340    7.8450 C.3       1 J4P        -0.0527
     13 CAO       167.9140  226.3840    8.9840 C.3       1 J4P        -0.0481
     14 CAP       169.2240  224.4730    9.1530 C.3       1 J4P        -0.0481
     15 CAQ       168.2280  225.3870   11.3140 C.3       1 J4P         0.0403
     16 CAT       167.7320  226.7220   11.8780 C.2       1 J4P         0.1802
     17 CAV       164.6840  230.1240   19.7010 C.ar      1 J4P         0.1638
     18 CAW       162.7010  228.7890   19.6330 C.ar      1 J4P         0.1638
     19 CAX       164.3560  228.7960   16.2840 C.ar      1 J4P        -0.0282
     20 CAY       163.9930  229.0440   17.6170 C.ar      1 J4P        -0.0293
     21 CAZ       165.2660  228.2880   13.6520 C.ar      1 J4P         0.0014
     22 CBA       163.5780  229.6050   20.3340 C.ar      1 J4P         0.1978
     23 CBB       168.9020  225.7120    9.9540 C.3       1 J4P        -0.0241
     24 FAD       165.5530  230.9210   20.4600 F         1 J4P        -0.1855
     25 FAE       161.6730  228.3240   20.2680 F         1 J4P        -0.1855
     26 FAF       163.3530  229.8530   21.6560 F         1 J4P        -0.1851
     27 NAR       165.0840  229.6460   10.5800 N.am      1 J4P        -0.1606
     28 OAA       168.5340  227.6210   12.1350 O.2       1 J4P        -0.3968
     29 OAC       164.2490  229.9830    9.5630 O.3       1 J4P        -0.2715
     30 H1        165.8171  226.0443   11.8364 H         1 J4P         0.1908
     31 H2        166.5795  228.8918   12.2751 H         1 J4P         0.0962
     32 H3        164.4227  230.8691   15.7177 H         1 J4P         0.0605
     33 H4        164.4743  226.6619   16.5306 H         1 J4P         0.0605
     34 H5        165.1717  230.4110   13.4172 H         1 J4P         0.0564
     35 H6        165.2480  226.2127   14.2189 H         1 J4P         0.0564
     36 H7        165.7723  230.2389   17.8534 H         1 J4P         0.0558
     37 H8        162.2320  227.8156   17.7622 H         1 J4P         0.0558
     38 H9        167.8705  225.9300    6.8529 H         1 J4P         0.0265
     39 H10       169.0735  227.1798    7.3191 H         1 J4P         0.0265
     40 H11       170.6595  225.5700    7.9389 H         1 J4P         0.0265
     41 H12       169.6446  224.4085    7.0183 H         1 J4P         0.0265
     42 H13       166.9413  225.8704    8.9950 H         1 J4P         0.0269
     43 H14       167.7717  227.4444    9.2396 H         1 J4P         0.0269
     44 H15       170.0386  223.8895    9.6068 H         1 J4P         0.0269
     45 H16       168.3424  223.8290    9.0186 H         1 J4P         0.0269
     46 H17       167.3829  224.6988   11.1653 H         1 J4P         0.0505
     47 H18       168.9563  224.9305   12.0005 H         1 J4P         0.0505
     48 H19       169.7955  226.3297   10.1272 H         1 J4P         0.0325
     49 H20       165.8517  230.2261   10.8523 H         1 J4P         0.2219
     50 H21       164.5214  230.8147    9.1935 H         1 J4P         0.2490
@<TRIPOS>BOND
     1    2    1 1  
     2    1   16 am 
     3    2    3 1  
     4   21    2 1  
     5    3    4 2  
     6    3   27 am 
     7    5    7 ar 
     8   19    5 ar 
     9    6    8 ar 
    10   19    6 ar 
    11    7   21 ar 
    12    8   21 ar 
    13    9   17 ar 
    14   20    9 ar 
    15   10   18 ar 
    16   20   10 ar 
    17   12   11 1  
    18   13   11 1  
    19   14   12 1  
    20   23   13 1  
    21   23   14 1  
    22   16   15 1  
    23   15   23 1  
    24   16   28 2  
    25   17   22 ar 
    26   17   24 1  
    27   18   22 ar 
    28   18   25 1  
    29   19   20 1  
    30   22   26 1  
    31   27   29 1  
    32    1   30 1  
    33    2   31 1  
    34    5   32 1  
    35    6   33 1  
    36    7   34 1  
    37    8   35 1  
    38    9   36 1  
    39   10   37 1  
    40   11   38 1  
    41   11   39 1  
    42   12   40 1  
    43   12   41 1  
    44   13   42 1  
    45   13   43 1  
    46   14   44 1  
    47   14   45 1  
    48   15   46 1  
    49   15   47 1  
    50   23   48 1  
    51   27   49 1  
    52   29   50 1  
@<TRIPOS>SUBSTRUCTURE
     1 J4P         1

