### 
### Created by X-TOOL on Wed Jan  1 15:39:35 2020
### 

@<TRIPOS>MOLECULE
6eea_ligand
   39    40     1     0     0
SMALL
GAST_HUCK


@<TRIPOS>ATOM
      1 C13        -3.1260    9.0620   11.0210 C.ar      1 J3V        -0.0040
      2 C15        -4.8240   10.3940   10.0230 C.ar      1 J3V         0.0211
      3 C17        -5.2390    8.0570   10.4430 C.ar      1 J3V        -0.0040
      4 C01        -4.5580    0.7130   13.5240 C.ar      1 J3V         0.0871
      5 C02        -4.1560    1.0350   12.2430 C.ar      1 J3V         0.2360
      6 C03        -3.7500    2.3160   11.9570 C.ar      1 J3V         0.3495
      7 C04        -3.7610    3.2680   12.9480 C.ar      1 J3V         0.3635
      8 C05        -4.1540    2.9840   14.2480 C.ar      1 J3V         0.1405
      9 C06        -4.5560    1.6880   14.5150 C.ar      1 J3V         0.2068
     10 O07        -3.3240    2.6990   10.6760 O.3       1 J3V        -0.2226
     11 N08        -3.2880    4.5530   12.5280 N.am      1 J3V        -0.0621
     12 C09        -4.1240    5.5500   11.9160 C.2       1 J3V         0.4817
     13 N10        -3.4040    6.7390   11.5090 N.am      1 J3V        -0.1561
     14 O11        -5.2860    5.3840   11.7610 O.2       1 J3V        -0.2924
     15 C12        -3.9540    7.9540   10.9530 C.ar      1 J3V         0.1149
     16 C14        -3.5520   10.2840   10.5480 C.ar      1 J3V        -0.0437
     17 C16        -5.6680    9.2900    9.9670 C.ar      1 J3V        -0.0437
     18 S18        -5.1020    1.1770   16.1650 S.o2      1 J3V         0.0921
     19 O19        -4.2080    1.6870   17.2030 O.2       1 J3V        -0.1457
     20 O20        -6.4370    1.6770   16.4740 O.2       1 J3V        -0.1457
     21 N21        -5.0340   -0.4880   16.1920 N.am      1 J3V        -0.2569
     22 N22        -4.1750    0.0230   11.2180 N.2       1 J3V        -0.1985
     23 O23        -4.0530   -1.1060   11.5230 O.2       1 J3V        -0.4925
     24 O24        -4.3790    0.3990    9.8860 O.2       1 J3V        -0.4925
     25 C25        -5.2750   11.7520    9.4980 C.3       1 J3V         0.3501
     26 F26        -4.1870   12.4390    9.0380 F         1 J3V        -0.2442
     27 F27        -6.1800   11.5650    8.4940 F         1 J3V        -0.2442
     28 F28        -5.8450   12.4640   10.5090 F         1 J3V        -0.2442
     29 H1         -2.1349    8.9671   11.4497 H         1 J3V         0.0631
     30 H2         -5.8949    7.1944   10.4161 H         1 J3V         0.0631
     31 H3         -4.8744   -0.2974   13.7564 H         1 J3V         0.1412
     32 H4         -4.1463    3.7445   15.0204 H         1 J3V         0.1133
     33 H5         -3.3656    1.9503   10.0927 H         1 J3V         0.3158
     34 H6         -2.3217    4.7690   12.6683 H         1 J3V         0.4110
     35 H7         -2.4112    6.7164   11.6264 H         1 J3V         0.2537
     36 H8         -2.8974   11.1471   10.5876 H         1 J3V         0.0803
     37 H9         -6.6637    9.3917    9.5507 H         1 J3V         0.0803
     38 H10        -5.2963   -0.9858   17.0187 H         1 J3V         0.1638
     39 H11        -4.7309   -0.9892   15.3815 H         1 J3V         0.1638
@<TRIPOS>BOND
     1   15    1 ar 
     2    1   16 ar 
     3   16    2 ar 
     4   17    2 ar 
     5    2   25 1  
     6   15    3 ar 
     7    3   17 ar 
     8    5    4 ar 
     9    9    4 ar 
    10    6    5 ar 
    11    5   22 1  
    12    7    6 ar 
    13    6   10 1  
    14    7    8 ar 
    15   11    7 1  
    16    8    9 ar 
    17    9   18 1  
    18   12   11 am 
    19   13   12 am 
    20   12   14 2  
    21   13   15 1  
    22   18   19 2  
    23   18   20 2  
    24   18   21 am 
    25   22   23 2  
    26   22   24 2  
    27   25   26 1  
    28   25   27 1  
    29   25   28 1  
    30    1   29 1  
    31    3   30 1  
    32    4   31 1  
    33    8   32 1  
    34   10   33 1  
    35   11   34 1  
    36   13   35 1  
    37   16   36 1  
    38   17   37 1  
    39   21   38 1  
    40   21   39 1  
@<TRIPOS>SUBSTRUCTURE
     1 J3V         1

