### 
### Created by X-TOOL on Mon Aug  2 16:13:16 2021
### 

@<TRIPOS>MOLECULE
6eeb_ligand
   49    54     1     0     0
SMALL
GAST_HUCK


@<TRIPOS>ATOM
      1 C02         3.7130   62.8090  109.8080 C.ar      1 J6P         0.0603
      2 C03         2.5000   62.5850  110.4930 C.ar      1 J6P        -0.0079
      3 C04         2.4820   61.6980  111.6070 C.ar      1 J6P         0.0911
      4 C06         1.9350   60.4090  113.4070 C.2       1 J6P         0.0219
      5 C07         3.3370   60.2410  113.1400 C.2       1 J6P         0.0226
      6 C08         4.2570   59.3000  114.0330 C.3       1 J6P         0.0353
      7 C09         3.7450   59.3510  115.4820 C.3       1 J6P         0.0974
      8 C10         2.1140   58.8850  115.5750 C.3       1 J6P        -0.0562
      9 C11         1.6420   58.9700  116.8980 C.3       1 J6P        -0.0452
     10 C12         2.6570   59.5630  117.8120 C.3       1 J6P         0.0409
     11 C13         3.9390   58.6120  117.6360 C.2       1 J6P         0.1885
     12 C16         2.2670   59.7750  119.2280 C.2       1 J6P        -0.0229
     13 C17         2.9110   61.0120  119.6400 C.2       1 J6P         0.0355
     14 C18         3.7410   61.5380  118.3430 C.3       1 J6P         0.0360
     15 C20         3.9960   60.7560  116.1790 C.3       1 J6P        -0.0065
     16 C21         1.1810   59.6760  114.5740 C.3       1 J6P        -0.0564
     17 C22         0.1920   58.6510  113.9350 C.3       1 J6P        -0.1080
     18 C23         0.3420   60.7520  115.3360 C.3       1 J6P        -0.1080
     19 C24         3.6780   61.0630  112.0060 C.ar      1 J6P         0.0468
     20 C25         4.8980   61.2950  111.3120 C.ar      1 J6P        -0.0299
     21 C26         4.9070   62.1710  110.2110 C.ar      1 J6P         0.0575
     22 N05         1.4380   61.2750  112.4780 N.pl3     1 J6P        -0.2764
     23 N14         4.3810   58.4960  116.3170 N.am      1 J6P        -0.2808
     24 N19         3.1750   60.9050  117.2880 N.4       1 J6P         0.2075
     25 O15         4.4740   58.0610  118.5500 O.2       1 J6P        -0.3727
     26 CL1         3.8030   63.9070  108.4050 Cl        1 J6P        -0.0600
     27 CL2         6.4060   62.5090  109.2950 Cl        1 J6P        -0.0761
     28 H1          1.5913   63.0829  110.1746 H         1 J6P         0.0592
     29 H2          5.2978   59.6538  113.9945 H         1 J6P         0.0577
     30 H3          4.2066   58.2672  113.6577 H         1 J6P         0.0577
     31 H4          2.0678   57.8261  115.2809 H         1 J6P         0.0144
     32 H5          1.3919   57.9591  117.2521 H         1 J6P         0.0159
     33 H6          0.7390   59.5979  116.9139 H         1 J6P         0.0159
     34 H7          1.6286   59.1347  119.8349 H         1 J6P         0.0544
     35 H8          2.8502   61.4890  120.6171 H         1 J6P         0.1594
     36 H9          4.8046   61.2710  118.4296 H         1 J6P         0.1263
     37 H10         3.6441   62.6286  118.2375 H         1 J6P         0.1263
     38 H11         3.7811   61.5599  115.4596 H         1 J6P         0.0844
     39 H12         5.0473   60.8194  116.4965 H         1 J6P         0.0844
     40 H13        -0.4729   59.1730  113.2311 H         1 J6P         0.0052
     41 H14        -0.4093   58.1794  114.7262 H         1 J6P         0.0052
     42 H15         0.7612   57.8784  113.3973 H         1 J6P         0.0052
     43 H16         1.0191   61.4869  115.7957 H         1 J6P         0.0052
     44 H17        -0.2556   60.2636  116.1198 H         1 J6P         0.0052
     45 H18        -0.3280   61.2629  114.6289 H         1 J6P         0.0052
     46 H19         5.8105   60.8024  111.6279 H         1 J6P         0.0715
     47 H20         0.4554   61.5775  112.4158 H         1 J6P         0.2208
     48 H21         5.0881   57.8534  116.0220 H         1 J6P         0.1855
     49 H22         2.3845   61.4543  116.9891 H         1 J6P         0.2005
@<TRIPOS>BOND
     1    2    1 ar 
     2    1   21 ar 
     3    1   26 1  
     4    3    2 ar 
     5    3   19 ar 
     6   22    3 1  
     7    4    5 2  
     8    4   16 1  
     9    4   22 1  
    10    5    6 1  
    11    5   19 1  
    12    6    7 1  
    13    7    8 1  
    14    7   15 1  
    15    7   23 1  
    16    8    9 1  
    17    8   16 1  
    18    9   10 1  
    19   10   11 1  
    20   10   12 1  
    21   10   24 1  
    22   11   23 am 
    23   11   25 2  
    24   12   13 2  
    25   13   14 1  
    26   14   24 1  
    27   15   24 1  
    28   16   17 1  
    29   16   18 1  
    30   19   20 ar 
    31   20   21 ar 
    32   21   27 1  
    33    2   28 1  
    34    6   29 1  
    35    6   30 1  
    36    8   31 1  
    37    9   32 1  
    38    9   33 1  
    39   12   34 1  
    40   13   35 1  
    41   14   36 1  
    42   14   37 1  
    43   15   38 1  
    44   15   39 1  
    45   17   40 1  
    46   17   41 1  
    47   17   42 1  
    48   18   43 1  
    49   18   44 1  
    50   18   45 1  
    51   20   46 1  
    52   22   47 1  
    53   23   48 1  
    54   24   49 1  
@<TRIPOS>SUBSTRUCTURE
     1 J6P         1

