### 
### Created by X-TOOL on Wed Jan  1 15:39:35 2020
### 

@<TRIPOS>MOLECULE
6eed_ligand
   53    55     1     0     0
SMALL
GAST_HUCK


@<TRIPOS>ATOM
      1 CAP        16.0340    6.6750   14.6020 C.3       1 J6A        -0.0481
      2 CAN        15.3080    5.8390   15.7110 C.3       1 J6A        -0.0527
      3 CAM        15.3570    4.3400   15.3090 C.3       1 J6A        -0.0530
      4 CAO        14.6570    4.1380   13.9590 C.3       1 J6A        -0.0527
      5 CAQ        15.4150    4.9020   12.9030 C.3       1 J6A        -0.0481
      6 CBC        15.3780    6.4040   13.2280 C.3       1 J6A        -0.0241
      7 CAR        16.1080    7.1860   12.0700 C.3       1 J6A         0.0403
      8 CAU        16.1140    8.7420   12.3340 C.2       1 J6A         0.1802
      9 OAA        17.1170    9.3450   12.7400 O.2       1 J6A        -0.3968
     10 N          14.9270    9.2880   12.1150 N.am      1 J6A        -0.2549
     11 CA         14.6100   10.7310   12.2850 C.3       1 J6A         0.1661
     12 C          13.6890   11.1440   11.1610 C.2       1 J6A         0.2364
     13 O          12.7580   10.4310   10.7610 O.2       1 J6A        -0.3913
     14 NAS        14.0220   12.3000   10.6020 N.am      1 J6A        -0.1606
     15 OAC        13.1550   12.7570    9.5830 O.3       1 J6A        -0.2715
     16 CBA        14.1040   11.0010   13.6170 C.ar      1 J6A         0.0014
     17 CAJ        13.7970    9.9700   14.4980 C.ar      1 J6A        -0.0550
     18 CAH        13.3750   10.2850   15.8060 C.ar      1 J6A        -0.0606
     19 CAI        13.9790   12.3260   14.0400 C.ar      1 J6A        -0.0550
     20 CAG        13.5590   12.6410   15.3400 C.ar      1 J6A        -0.0606
     21 CAY        13.2440   11.6090   16.2360 C.ar      1 J6A        -0.0282
     22 CAZ        12.8930   11.8750   17.5920 C.ar      1 J6A        -0.0293
     23 CAK        11.7630   11.3700   18.2470 C.ar      1 J6A        -0.0274
     24 CAW        11.5670   11.6560   19.5960 C.ar      1 J6A         0.1638
     25 FAD        10.5110   11.2320   20.2520 F         1 J6A        -0.1855
     26 CBB        12.4800   12.4030   20.3020 C.ar      1 J6A         0.1978
     27 FAF        12.2440   12.6990   21.6260 F         1 J6A        -0.1851
     28 CAX        13.5970   12.9120   19.6890 C.ar      1 J6A         0.1638
     29 FAE        14.5310   13.6260   20.4480 F         1 J6A        -0.1855
     30 CAL        13.8250   12.6200   18.3470 C.ar      1 J6A        -0.0274
     31 H1         17.0949    6.3869   14.5633 H         1 J6A         0.0269
     32 H2         15.9533    7.7458   14.8403 H         1 J6A         0.0269
     33 H3         14.2613    6.1661   15.7968 H         1 J6A         0.0265
     34 H4         15.8169    5.9812   16.6758 H         1 J6A         0.0265
     35 H5         14.8478    3.7396   16.0772 H         1 J6A         0.0265
     36 H6         16.4058    4.0183   15.2277 H         1 J6A         0.0265
     37 H7         13.6245    4.5127   14.0176 H         1 J6A         0.0265
     38 H8         14.6449    3.0679   13.7047 H         1 J6A         0.0265
     39 H9         14.9507    4.7283   11.9211 H         1 J6A         0.0269
     40 H10        16.4595    4.5578   12.8808 H         1 J6A         0.0269
     41 H11        14.3300    6.7352   13.2724 H         1 J6A         0.0325
     42 H12        15.5878    6.9869   11.1215 H         1 J6A         0.0505
     43 H13        17.1470    6.8318   11.9998 H         1 J6A         0.0505
     44 H14        14.1890    8.6847   11.8128 H         1 J6A         0.1908
     45 H15        15.5428   11.3036   12.1752 H         1 J6A         0.0962
     46 H16        14.8325   12.8141   10.8827 H         1 J6A         0.2219
     47 H17        13.4736   13.5861    9.2459 H         1 J6A         0.2490
     48 H18        13.8811    8.9362   14.1830 H         1 J6A         0.0564
     49 H19        13.1464    9.4805   16.4956 H         1 J6A         0.0605
     50 H20        14.2116   13.1279   13.3486 H         1 J6A         0.0564
     51 H21        13.4782   13.6763   15.6509 H         1 J6A         0.0605
     52 H22        11.0461   10.7610   17.7082 H         1 J6A         0.0558
     53 H23        14.7346   12.9710   17.8731 H         1 J6A         0.0558
@<TRIPOS>BOND
     1    1    2 1  
     2    1    6 1  
     3    2    3 1  
     4    3    4 1  
     5    4    5 1  
     6    5    6 1  
     7    6    7 1  
     8    7    8 1  
     9    8    9 2  
    10    8   10 am 
    11   10   11 1  
    12   11   12 1  
    13   11   16 1  
    14   12   13 2  
    15   12   14 am 
    16   14   15 1  
    17   16   17 ar 
    18   16   19 ar 
    19   17   18 ar 
    20   18   21 ar 
    21   19   20 ar 
    22   20   21 ar 
    23   21   22 1  
    24   22   23 ar 
    25   22   30 ar 
    26   23   24 ar 
    27   24   25 1  
    28   24   26 ar 
    29   26   27 1  
    30   26   28 ar 
    31   28   29 1  
    32   28   30 ar 
    33    1   31 1  
    34    1   32 1  
    35    2   33 1  
    36    2   34 1  
    37    3   35 1  
    38    3   36 1  
    39    4   37 1  
    40    4   38 1  
    41    5   39 1  
    42    5   40 1  
    43    6   41 1  
    44    7   42 1  
    45    7   43 1  
    46   10   44 1  
    47   11   45 1  
    48   14   46 1  
    49   15   47 1  
    50   17   48 1  
    51   18   49 1  
    52   19   50 1  
    53   20   51 1  
    54   23   52 1  
    55   30   53 1  
@<TRIPOS>SUBSTRUCTURE
     1 J6A         1

