### 
### Created by X-TOOL on Wed Jan  1 15:39:37 2020
### 

@<TRIPOS>MOLECULE
6eee_ligand
   58    62     1     0     0
SMALL
GAST_HUCK


@<TRIPOS>ATOM
      1 CBA       181.0640   16.0570   84.5290 C.3       1 J4V        -0.0450
      2 CAZ       180.1250   17.0380   85.1980 C.3       1 J4V        -0.0206
      3 CBF       180.9900   18.0860   85.9790 C.3       1 J4V        -0.0450
      4 CBC       181.9480   18.7980   84.9860 C.3       1 J4V        -0.0400
      5 CBB       181.0710   19.5320   83.9410 C.3       1 J4V        -0.0450
      6 CBD       182.8100   17.7310   84.2850 C.3       1 J4V        -0.0473
      7 CBE       181.7510   17.0050   83.7320 C.3       1 J4V        -0.0400
      8 CBG       181.1340   17.4280   82.5000 C.3       1 J4V        -0.0450
      9 CAY       180.1960   18.4840   83.1390 C.3       1 J4V        -0.0206
     10 CAW       179.2950   17.7710   84.1030 C.3       1 J4V         0.0545
     11 CAV       178.3290   16.8070   83.3410 C.2       1 J4V         0.1836
     12 OAX       178.1710   16.8310   82.1150 O.2       1 J4V        -0.3965
     13 N         177.5650   16.0600   84.1370 N.am      1 J4V        -0.2547
     14 CA        176.5470   15.1480   83.5990 C.3       1 J4V         0.1661
     15 C         176.5200   13.9890   84.5790 C.2       1 J4V         0.2364
     16 O         176.6440   14.1930   85.7860 O.2       1 J4V        -0.3913
     17 NAS       176.4960   12.7860   83.9970 N.am      1 J4V        -0.1606
     18 OAT       176.5460   11.6010   84.8160 O.3       1 J4V        -0.2715
     19 CAC       175.3180   15.8180   83.4780 C.ar      1 J4V         0.0014
     20 CAD       174.2350   15.1840   82.8830 C.ar      1 J4V        -0.0550
     21 CAE       173.0120   15.8360   82.7590 C.ar      1 J4V        -0.0606
     22 CAB       175.1640   17.1350   83.9390 C.ar      1 J4V        -0.0550
     23 CAA       173.9470   17.7970   83.8190 C.ar      1 J4V        -0.0606
     24 CAF       172.8620   17.1400   83.2210 C.ar      1 J4V        -0.0282
     25 CAG       171.6280   17.7790   83.0850 C.ar      1 J4V        -0.0293
     26 CAH       171.2730   18.7950   83.9600 C.ar      1 J4V        -0.0274
     27 CAI       170.0340   19.4230   83.8130 C.ar      1 J4V         0.1638
     28 FAO       169.6210   20.4660   84.6540 F         1 J4V        -0.1855
     29 CAJ       169.1590   19.0340   82.8140 C.ar      1 J4V         0.1978
     30 FAN       167.9640   19.6780   82.7260 F         1 J4V        -0.1851
     31 CAK       169.5000   18.0110   81.9420 C.ar      1 J4V         0.1638
     32 FAM       168.5970   17.6290   80.9380 F         1 J4V        -0.1855
     33 CAL       170.7350   17.3840   82.0840 C.ar      1 J4V        -0.0274
     34 H1        180.5314   15.3061   83.9270 H         1 J4V         0.0272
     35 H2        181.7258   15.5497   85.2463 H         1 J4V         0.0272
     36 H3        179.4524   16.5099   85.8898 H         1 J4V         0.0328
     37 H4        181.5783   17.5732   86.7542 H         1 J4V         0.0272
     38 H5        180.3304   18.8292   86.4509 H         1 J4V         0.0272
     39 H6        182.5915   19.5152   85.5165 H         1 J4V         0.0301
     40 H7        181.7193   20.0780   83.2399 H         1 J4V         0.0272
     41 H8        180.4077   20.2424   84.4561 H         1 J4V         0.0272
     42 H9        183.4049   17.1363   84.9938 H         1 J4V         0.0271
     43 H10       183.4731   18.1600   83.5193 H         1 J4V         0.0271
     44 H11       182.4045   16.2625   83.2508 H         1 J4V         0.0301
     45 H12       180.5828   16.6173   82.0011 H         1 J4V         0.0272
     46 H13       181.8533   17.8704   81.7951 H         1 J4V         0.0272
     47 H14       179.6054   18.9940   82.3637 H         1 J4V         0.0328
     48 H15       178.6767   18.5274   84.6086 H         1 J4V         0.0543
     49 H16       177.6880   16.1219   85.1275 H         1 J4V         0.1908
     50 H17       176.8457   14.7837   82.6050 H         1 J4V         0.0962
     51 H18       176.4438   12.7087   83.0014 H         1 J4V         0.2219
     52 H19       175.8000   11.5922   85.4042 H         1 J4V         0.2490
     53 H20       174.3435   14.1714   82.5116 H         1 J4V         0.0564
     54 H21       172.1725   15.3259   82.3005 H         1 J4V         0.0605
     55 H22       176.0059   17.6432   84.3951 H         1 J4V         0.0564
     56 H23       173.8380   18.8117   84.1844 H         1 J4V         0.0605
     57 H24       171.9503   19.0986   84.7500 H         1 J4V         0.0558
     58 H25       171.0077   16.5797   81.4103 H         1 J4V         0.0558
@<TRIPOS>BOND
     1    1    2 1  
     2    1    7 1  
     3    2    3 1  
     4    2   10 1  
     5    3    4 1  
     6    4    5 1  
     7    4    6 1  
     8    5    9 1  
     9    6    7 1  
    10    7    8 1  
    11    8    9 1  
    12    9   10 1  
    13   10   11 1  
    14   11   12 2  
    15   11   13 am 
    16   13   14 1  
    17   14   15 1  
    18   14   19 1  
    19   15   16 2  
    20   15   17 am 
    21   17   18 1  
    22   19   20 ar 
    23   19   22 ar 
    24   20   21 ar 
    25   21   24 ar 
    26   22   23 ar 
    27   23   24 ar 
    28   24   25 1  
    29   25   26 ar 
    30   25   33 ar 
    31   26   27 ar 
    32   27   28 1  
    33   27   29 ar 
    34   29   30 1  
    35   29   31 ar 
    36   31   32 1  
    37   31   33 ar 
    38    1   34 1  
    39    1   35 1  
    40    2   36 1  
    41    3   37 1  
    42    3   38 1  
    43    4   39 1  
    44    5   40 1  
    45    5   41 1  
    46    6   42 1  
    47    6   43 1  
    48    7   44 1  
    49    8   45 1  
    50    8   46 1  
    51    9   47 1  
    52   10   48 1  
    53   13   49 1  
    54   14   50 1  
    55   17   51 1  
    56   18   52 1  
    57   20   53 1  
    58   21   54 1  
    59   22   55 1  
    60   23   56 1  
    61   26   57 1  
    62   33   58 1  
@<TRIPOS>SUBSTRUCTURE
     1 J4V         1

