### 
### Created by X-TOOL on Wed Jan  1 15:39:35 2020
### 

@<TRIPOS>MOLECULE
6eeh_ligand
   36    37     1     0     0
SMALL
GAST_HUCK


@<TRIPOS>ATOM
      1 C13        -3.7510    9.6130   13.6410 C.ar      1 J4D         0.3115
      2 C15        -2.0390   10.6750   14.9460 C.ar      1 J4D         0.2936
      3 C17        -1.7820    8.3970   14.2560 C.ar      1 J4D         0.3115
      4 C01        -4.5670    0.8060   13.6350 C.ar      1 J4D         0.0048
      5 C02        -4.2530    1.2150   12.3610 C.ar      1 J4D         0.1371
      6 C03        -4.0670    2.5600   12.0890 C.ar      1 J4D         0.2006
      7 C04        -4.2110    3.5070   13.0810 C.ar      1 J4D         0.1811
      8 C05        -4.5200    3.1240   14.3670 C.ar      1 J4D         0.0248
      9 C06        -4.6930    1.7720   14.6140 C.ar      1 J4D         0.1217
     10 O07        -3.7350    3.0020   10.8090 O.3       1 J4D        -0.3027
     11 N08        -3.9830    4.8860   12.6830 N.am      1 J4D        -0.1528
     12 C09        -3.6080    5.9730   13.5560 C.2       1 J4D         0.4413
     13 N10        -3.4330    7.2560   12.9210 N.am      1 J4D        -0.0985
     14 O11        -3.4620    5.8490   14.7200 O.2       1 J4D        -0.3497
     15 C12        -3.0130    8.4450   13.6310 C.ar      1 J4D         0.3197
     16 C14        -3.2600   10.7260   14.3090 C.ar      1 J4D         0.2836
     17 C16        -1.2980    9.5110   14.9180 C.ar      1 J4D         0.2836
     18 F18        -1.0580    7.2400   14.2250 F         1 J4D        -0.1322
     19 F19        -0.0950    9.4700   15.5490 F         1 J4D        -0.1602
     20 F20        -1.5660   11.7740   15.6060 F         1 J4D        -0.1059
     21 F21        -3.9690   11.8870   14.3490 F         1 J4D        -0.1602
     22 F22        -4.9550    9.6540   13.0100 F         1 J4D        -0.1322
     23 N23        -4.1400    0.2070   11.3370 N.2       1 J4D        -0.2190
     24 O24        -3.9120   -0.9090   11.6370 O.2       1 J4D        -0.4942
     25 O25        -4.3820    0.5710   10.0110 O.2       1 J4D        -0.4942
     26 S26        -5.1360    1.2030   16.2550 S.o2      1 J4D         0.0674
     27 O27        -4.2230    1.6910   17.2890 O.2       1 J4D        -0.1504
     28 O28        -6.4640    1.7000   16.5710 O.2       1 J4D        -0.1504
     29 N29        -5.0490   -0.4610   16.2760 N.am      1 J4D        -0.2609
     30 H1         -4.7115   -0.2435   13.8646 H         1 J4D         0.0774
     31 H2         -4.6244    3.8560   15.1596 H         1 J4D         0.0689
     32 H3         -3.6669    2.2556   10.2252 H         1 J4D         0.2648
     33 H4         -4.0965    5.1023   11.7133 H         1 J4D         0.2782
     34 H5         -3.6110    7.3277   11.9396 H         1 J4D         0.3652
     35 H6         -5.2635   -0.9624   17.1142 H         1 J4D         0.1635
     36 H7         -4.7823   -0.9582   15.4504 H         1 J4D         0.1635
@<TRIPOS>BOND
     1   15    1 ar 
     2    1   16 ar 
     3    1   22 1  
     4   16    2 ar 
     5   17    2 ar 
     6    2   20 1  
     7   15    3 ar 
     8    3   17 ar 
     9    3   18 1  
    10    5    4 ar 
    11    9    4 ar 
    12    6    5 ar 
    13    5   23 1  
    14    7    6 ar 
    15    6   10 1  
    16    7    8 ar 
    17   11    7 1  
    18    8    9 ar 
    19    9   26 1  
    20   12   11 am 
    21   13   12 am 
    22   12   14 2  
    23   13   15 1  
    24   16   21 1  
    25   17   19 1  
    26   23   24 2  
    27   23   25 2  
    28   26   27 2  
    29   26   28 2  
    30   26   29 am 
    31    4   30 1  
    32    8   31 1  
    33   10   32 1  
    34   11   33 1  
    35   13   34 1  
    36   29   35 1  
    37   29   36 1  
@<TRIPOS>SUBSTRUCTURE
     1 J4D         1

