### 
### Created by X-TOOL on Wed Jan  1 15:39:35 2020
### 

@<TRIPOS>MOLECULE
6eeo_ligand
   39    40     1     0     0
SMALL
GAST_HUCK


@<TRIPOS>ATOM
      1 C13        -3.9100    8.9360   13.6370 C.ar      1 J6V        -0.0356
      2 C15        -2.5110   10.7220   14.3050 C.ar      1 J6V         0.1297
      3 C17        -1.6840    8.4520   14.3910 C.ar      1 J6V        -0.0294
      4 C16        -1.4880    9.8160   14.5840 C.ar      1 J6V        -0.0148
      5 C01        -4.5020    0.7160   13.6640 C.ar      1 J6V         0.0802
      6 C02        -4.2560    1.3150   12.4390 C.ar      1 J6V         0.2275
      7 C03        -4.3760    2.7180   12.2980 C.ar      1 J6V         0.3371
      8 C04        -4.6980    3.4570   13.4470 C.ar      1 J6V         0.3488
      9 C05        -4.9630    2.8480   14.6040 C.ar      1 J6V         0.1309
     10 C06        -4.8320    1.5300   14.7210 C.ar      1 J6V         0.1997
     11 O07        -4.1290    3.3430   11.0680 O.3       1 J6V        -0.2295
     12 N08        -5.0260    4.8040   13.8070 N.am      1 J6V        -0.0739
     13 C09        -4.5060    6.1110   14.0250 C.2       1 J6V         0.4533
     14 N10        -3.1810    6.5930   13.6880 N.am      1 J6V        -0.1779
     15 O11        -5.3440    6.8130   14.4790 O.2       1 J6V        -0.3272
     16 C12        -2.9120    8.0080   13.9260 C.ar      1 J6V         0.0801
     17 C14        -3.7310   10.2840   13.8370 C.ar      1 J6V        -0.0361
     18 C18        -0.1410   10.3280   15.1050 C.3       1 J6V        -0.0310
     19 F19        -2.3280   12.0600   14.4880 F         1 J6V        -0.1908
     20 S20        -5.2520    1.0220   16.3790 S.o2      1 J6V         0.0899
     21 O21        -4.4420    1.6140   17.4390 O.2       1 J6V        -0.1461
     22 O22        -6.6220    1.4160   16.6870 O.2       1 J6V        -0.1461
     23 N23        -5.0270   -0.6510   16.3790 N.am      1 J6V        -0.2573
     24 N24        -3.9280    0.3770   11.3750 N.2       1 J6V        -0.2001
     25 O25        -3.5540   -0.7100   11.6460 O.2       1 J6V        -0.4927
     26 O26        -4.1640    0.7080   10.0360 O.2       1 J6V        -0.4927
     27 H1         -4.8564    8.5843   13.2424 H         1 J6V         0.0513
     28 H2         -0.8880    7.7469   14.6012 H         1 J6V         0.0482
     29 H3         -4.4363   -0.3593   13.7847 H         1 J6V         0.1358
     30 H4         -5.2881    3.4331   15.4567 H         1 J6V         0.1097
     31 H5         -3.9292    2.6839   10.4136 H         1 J6V         0.3113
     32 H6         -6.0120    4.8409   13.9699 H         1 J6V         0.4006
     33 H7         -2.4834    5.9843   13.3099 H         1 J6V         0.2447
     34 H8         -4.5308   10.9862   13.6314 H         1 J6V         0.0584
     35 H9         -0.1745   11.4240   15.1928 H         1 J6V         0.0387
     36 H10         0.6565   10.0406   14.4041 H         1 J6V         0.0387
     37 H11         0.0619    9.8871   16.0921 H         1 J6V         0.0387
     38 H12        -5.2009   -1.1789   17.2103 H         1 J6V         0.1638
     39 H13        -4.7199   -1.1142   15.5477 H         1 J6V         0.1638
@<TRIPOS>BOND
     1   16    1 ar 
     2    1   17 ar 
     3    4    2 ar 
     4   17    2 ar 
     5    2   19 1  
     6    3    4 ar 
     7   16    3 ar 
     8    4   18 1  
     9    6    5 ar 
    10   10    5 ar 
    11    7    6 ar 
    12    6   24 1  
    13    8    7 ar 
    14    7   11 1  
    15    8    9 ar 
    16   12    8 1  
    17    9   10 ar 
    18   10   20 1  
    19   13   12 am 
    20   14   13 am 
    21   13   15 2  
    22   14   16 1  
    23   20   21 2  
    24   20   22 2  
    25   20   23 am 
    26   24   25 2  
    27   24   26 2  
    28    1   27 1  
    29    3   28 1  
    30    5   29 1  
    31    9   30 1  
    32   11   31 1  
    33   12   32 1  
    34   14   33 1  
    35   17   34 1  
    36   18   35 1  
    37   18   36 1  
    38   18   37 1  
    39   23   38 1  
    40   23   39 1  
@<TRIPOS>SUBSTRUCTURE
     1 J6V         1

