### 
### Created by X-TOOL on Mon Aug  2 16:13:16 2021
### 

@<TRIPOS>MOLECULE
6efj_ligand
   36    38     1     0     0
SMALL
GAST_HUCK


@<TRIPOS>ATOM
      1 C02        49.2960   11.7830   46.8900 C.2       1 O5E         0.2401
      2 C04        47.1090   10.6600   46.0530 C.2       1 O5E         0.2233
      3 C09        49.9260   13.1710   47.0610 C.3       1 O5E         0.1640
      4 C11        49.7620   14.2260   44.7660 C.ar      1 O5E         0.0416
      5 C12        49.8550   13.1580   43.8910 C.ar      1 O5E        -0.0443
      6 C13        50.3800   13.3210   42.6200 C.ar      1 O5E        -0.0737
      7 C14        50.8010   14.5670   42.2010 C.ar      1 O5E        -0.0751
      8 C15        50.7040   15.6400   43.0720 C.ar      1 O5E        -0.0737
      9 C16        50.1940   15.4770   44.3510 C.ar      1 O5E        -0.0443
     10 C17        51.4210   13.2850   46.7530 C.ar      1 O5E         0.0008
     11 C18        52.0920   12.3400   45.9970 C.ar      1 O5E        -0.0558
     12 C19        53.4380   12.4820   45.7060 C.ar      1 O5E        -0.0681
     13 C20        54.1270   13.5800   46.1800 C.ar      1 O5E        -0.0684
     14 C21        53.4660   14.5360   46.9370 C.ar      1 O5E        -0.0681
     15 C22        52.1140   14.3940   47.2170 C.ar      1 O5E        -0.0558
     16 N03        47.9610   11.8010   46.3160 N.am      1 O5E        -0.2100
     17 N05        45.9290   10.7560   45.4760 N.2       1 O5E        -0.1594
     18 N06        45.3840    9.5130   45.3930 N.2       1 O5E        -0.0633
     19 N07        46.2720    8.6490   45.9560 N.pl3     1 O5E        -0.1252
     20 N08        47.3440    9.3930   46.3530 N.2       1 O5E        -0.1560
     21 N10        49.2270   14.0320   46.1130 N.pl3     1 O5E        -0.2918
     22 O01        49.8370   10.7660   47.2030 O.2       1 O5E        -0.3803
     23 H1         49.7567   13.5114   48.0932 H         1 O5E         0.0957
     24 H2         49.5117   12.1790   44.2052 H         1 O5E         0.0515
     25 H3         50.4604   12.4697   41.9538 H         1 O5E         0.0583
     26 H4         51.2023   14.7042   41.2034 H         1 O5E         0.0505
     27 H5         51.0317   16.6215   42.7488 H         1 O5E         0.0583
     28 H6         50.1331   16.3244   45.0243 H         1 O5E         0.0515
     29 H7         51.5549   11.4743   45.6266 H         1 O5E         0.0562
     30 H8         53.9481   11.7347   45.1090 H         1 O5E         0.0600
     31 H9         55.1824   13.6950   45.9611 H         1 O5E         0.0561
     32 H10        54.0074   15.3973   47.3113 H         1 O5E         0.0600
     33 H11        51.5991   15.1501   47.7986 H         1 O5E         0.0562
     34 H12        47.5906   12.6985   46.0767 H         1 O5E         0.2256
     35 H13        46.1569    7.6309   46.0618 H         1 O5E         0.2824
     36 H14        48.3553   14.5039   46.3930 H         1 O5E         0.1811
@<TRIPOS>BOND
     1    3    1 1  
     2    1   16 am 
     3    1   22 2  
     4   16    2 1  
     5    2   17 1  
     6    2   20 2  
     7    3   10 1  
     8   21    3 1  
     9    4    5 ar 
    10    4    9 ar 
    11    4   21 1  
    12    5    6 ar 
    13    6    7 ar 
    14    7    8 ar 
    15    8    9 ar 
    16   10   11 ar 
    17   10   15 ar 
    18   11   12 ar 
    19   12   13 ar 
    20   13   14 ar 
    21   14   15 ar 
    22   17   18 2  
    23   18   19 1  
    24   19   20 1  
    25    3   23 1  
    26    5   24 1  
    27    6   25 1  
    28    7   26 1  
    29    8   27 1  
    30    9   28 1  
    31   11   29 1  
    32   12   30 1  
    33   13   31 1  
    34   14   32 1  
    35   15   33 1  
    36   16   34 1  
    37   19   35 1  
    38   21   36 1  
@<TRIPOS>SUBSTRUCTURE
     1 O5E         1

