### 
### Created by X-TOOL on Mon Aug  2 16:13:16 2021
### 

@<TRIPOS>MOLECULE
6eg9_ligand
   68    72     1     0     0
SMALL
GAST_HUCK


@<TRIPOS>ATOM
      1 N1         -6.1580  -29.0920  -30.6180 N.2       1 MOL        -0.3247
      2 N3          5.4100  -31.5840  -20.3720 N.4       1 MOL         0.2588
      3 C4         -3.1330  -27.4530  -27.6640 C.1       1 MOL        -0.0766
      4 C5         -2.0160  -26.9700  -26.9110 C.ar      1 MOL         0.0257
      5 C6         -1.6600  -25.6410  -26.8220 C.ar      1 MOL        -0.0273
      6 C7         -0.5470  -25.2850  -26.0590 C.ar      1 MOL        -0.0547
      7 C8          0.2140  -26.2480  -25.3900 C.ar      1 MOL        -0.0494
      8 C10        -1.2750  -27.9470  -26.2530 C.ar      1 MOL        -0.0347
      9 C13         2.6350  -29.2290  -23.9570 C.ar      1 MOL         0.0879
     10 C15         4.6070  -29.3920  -22.5950 C.ar      1 MOL        -0.0316
     11 C17         3.4940  -31.4290  -23.2670 C.ar      1 MOL         0.0386
     12 C20         5.5200  -31.4860  -21.8530 C.3       1 MOL         0.0130
     13 C21         6.8050  -31.6520  -19.8980 C.3       1 MOL         0.0114
     14 C22         6.8990  -31.7680  -18.3840 C.3       1 MOL         0.0092
     15 C24         4.7430  -30.4660  -19.6660 C.3       1 MOL         0.0114
     16 C81        -8.2890  -29.2700  -29.4790 C.2       1 MOL         0.0052
     17 C82        -8.9180  -29.0560  -28.2510 C.2       1 MOL        -0.0245
     18 C83        -8.1330  -28.5510  -27.2070 C.2       1 MOL         0.0552
     19 N81        -6.7550  -28.2880  -27.4570 N.2       1 MOL        -0.1413
     20 N82        -6.3130  -28.5030  -28.5320 N.pl3     1 MOL        -0.1187
     21 C84        -6.9930  -28.9850  -29.5840 C.2       1 MOL         0.1691
     22 C1         -4.9590  -28.6820  -30.2250 C.2       1 MOL        -0.0017
     23 C2         -5.0670  -28.3290  -28.9580 C.2       1 MOL         0.1589
     24 C3         -3.9670  -27.8250  -28.2110 C.1       1 MOL        -0.0467
     25 C9         -0.1500  -27.5990  -25.4950 C.ar      1 MOL         0.0483
     26 C11        -2.4030  -24.6830  -27.4800 C.3       1 MOL        -0.0278
     27 C12         0.5370  -28.6250  -24.8610 C.2       1 MOL         0.2262
     28 O1         -0.0490  -29.6770  -24.6190 O.2       1 MOL        -0.3767
     29 N2          1.8220  -28.3570  -24.5810 N.am      1 MOL        -0.2315
     30 C14         3.6750  -28.6180  -23.2580 C.ar      1 MOL        -0.0148
     31 C16         4.5210  -30.7820  -22.5610 C.ar      1 MOL         0.0246
     32 C18         2.5570  -30.6420  -23.9630 C.ar      1 MOL        -0.0202
     33 C19         3.3640  -32.8270  -23.2980 C.3       1 MOL         0.3645
     34 F1          2.5550  -32.9850  -24.3540 F         1 MOL        -0.2292
     35 F2          4.2440  -33.4300  -23.6250 F         1 MOL        -0.2292
     36 F3          2.7740  -33.2700  -22.5000 F         1 MOL        -0.2292
     37 C23         4.7930  -30.6480  -18.1740 C.3       1 MOL         0.0092
     38 C25         6.1640  -30.7710  -16.2390 C.3       1 MOL        -0.0427
     39 N4          6.1860  -30.6620  -17.7120 N.4       1 MOL         0.2405
     40 H1          4.9179  -32.4333  -20.1426 H         1 MOL         0.2058
     41 H2         -0.2669  -24.2405  -25.9836 H         1 MOL         0.0565
     42 H3          1.0736  -25.9550  -24.7982 H         1 MOL         0.0639
     43 H4         -1.5713  -28.9870  -26.3279 H         1 MOL         0.0649
     44 H5          5.4299  -28.9034  -22.0859 H         1 MOL         0.0616
     45 H6          5.5323  -32.5134  -22.2457 H         1 MOL         0.1043
     46 H7          6.4800  -30.9970  -22.0750 H         1 MOL         0.1043
     47 H8          7.3307  -30.7394  -20.2155 H         1 MOL         0.0868
     48 H9          7.2891  -32.5302  -20.3501 H         1 MOL         0.0868
     49 H10         7.9582  -31.7425  -18.0884 H         1 MOL         0.0868
     50 H11         6.4536  -32.7236  -18.0702 H         1 MOL         0.0868
     51 H12         3.6914  -30.4184  -19.9851 H         1 MOL         0.0868
     52 H13         5.2488  -29.5251  -19.9284 H         1 MOL         0.0868
     53 H14        -8.8450  -29.6605  -30.3300 H         1 MOL         0.0752
     54 H15        -9.9759  -29.2729  -28.1108 H         1 MOL         0.0701
     55 H16        -8.5662  -28.3634  -26.2256 H         1 MOL         0.0937
     56 H17        -4.0563  -28.6439  -30.8330 H         1 MOL         0.0575
     57 H18        -3.2301  -25.1673  -28.0197 H         1 MOL         0.0404
     58 H19        -1.7610  -24.1488  -28.1959 H         1 MOL         0.0404
     59 H20        -2.8104  -23.9690  -26.7491 H         1 MOL         0.0404
     60 H21         2.1926  -27.4676  -24.8487 H         1 MOL         0.2238
     61 H22         3.7520  -27.5370  -23.2349 H         1 MOL         0.0763
     62 H23         1.7601  -31.1279  -24.5143 H         1 MOL         0.0655
     63 H24         4.3122  -31.6009  -17.9078 H         1 MOL         0.0868
     64 H25         4.2575  -29.8188  -17.6885 H         1 MOL         0.0868
     65 H26         7.1954  -30.7843  -15.8569 H         1 MOL         0.0778
     66 H27         5.6531  -31.7005  -15.9477 H         1 MOL         0.0778
     67 H28         5.6272  -29.9093  -15.8155 H         1 MOL         0.0778
     68 H29         6.6352  -29.7954  -17.9636 H         1 MOL         0.2035
@<TRIPOS>BOND
     1    1   21 2  
     2   22    1 1  
     3   12    2 1  
     4    2   13 1  
     5    2   15 1  
     6    4    3 1  
     7    3   24 3  
     8    4    5 ar 
     9    8    4 ar 
    10    6    5 ar 
    11    5   26 1  
    12    7    6 ar 
    13   25    7 ar 
    14   25    8 ar 
    15   29    9 1  
    16    9   30 ar 
    17    9   32 ar 
    18   30   10 ar 
    19   10   31 ar 
    20   11   31 ar 
    21   32   11 ar 
    22   11   33 1  
    23   31   12 1  
    24   13   14 1  
    25   14   39 1  
    26   15   37 1  
    27   16   17 2  
    28   21   16 1  
    29   18   17 1  
    30   19   18 2  
    31   20   19 1  
    32   20   21 1  
    33   23   20 1  
    34   23   22 2  
    35   24   23 1  
    36   27   25 1  
    37   27   28 2  
    38   27   29 am 
    39   33   34 1  
    40   33   35 1  
    41   33   36 1  
    42   37   39 1  
    43   39   38 1  
    44    2   40 1  
    45    6   41 1  
    46    7   42 1  
    47    8   43 1  
    48   10   44 1  
    49   12   45 1  
    50   12   46 1  
    51   13   47 1  
    52   13   48 1  
    53   14   49 1  
    54   14   50 1  
    55   15   51 1  
    56   15   52 1  
    57   16   53 1  
    58   17   54 1  
    59   18   55 1  
    60   22   56 1  
    61   26   57 1  
    62   26   58 1  
    63   26   59 1  
    64   29   60 1  
    65   30   61 1  
    66   32   62 1  
    67   37   63 1  
    68   37   64 1  
    69   38   65 1  
    70   38   66 1  
    71   38   67 1  
    72   39   68 1  
@<TRIPOS>SUBSTRUCTURE
     1 MOL         1

