### 
### Created by X-TOOL on Mon Aug  2 16:13:16 2021
### 

@<TRIPOS>MOLECULE
6ega_ligand
   70    75     1     0     0
SMALL
GAST_HUCK


@<TRIPOS>ATOM
      1 CAF         0.5020   25.9260   26.2060 C.ar      1 J8A        -0.0553
      2 CAG         1.3910   26.7930   25.5760 C.ar      1 J8A        -0.0412
      3 CAH        -0.5030   26.4160   27.0380 C.ar      1 J8A        -0.0489
      4 CAI         5.2230   28.6760   23.4760 C.ar      1 J8A        -0.0148
      5 CAJ         6.2160   29.3650   22.8060 C.ar      1 J8A        -0.0316
      6 CAK        -1.2740   29.2410   29.0640 C.ar      1 J8A        -0.0418
      7 CAL        -2.3010   29.7720   29.8350 C.ar      1 J8A        -0.0448
      8 CAM         0.2690   28.6460   26.6150 C.ar      1 J8A        -0.0326
      9 CAN         4.1820   30.7650   23.9970 C.ar      1 J8A        -0.0202
     10 CAO         6.6070   30.8450   18.2700 C.3       1 J8A         0.0077
     11 CAP         8.3880   32.3980   18.6340 C.3       1 J8A         0.0077
     12 CAQ       -10.5180   28.7610   30.5280 C.3       1 J8A        -0.0301
     13 CAR       -10.7180   30.0310   29.7180 C.3       1 J8A        -0.0301
     14 CAS         6.6290   30.4830   19.7590 C.3       1 J8A         0.0113
     15 CAT         8.4010   32.0390   20.1020 C.3       1 J8A         0.0113
     16 CAU         7.2640   31.3420   22.0100 C.3       1 J8A         0.0130
     17 NAV        -4.6780   29.8720   30.2800 N.2       1 J8A        -0.2998
     18 NAW        -2.8890   28.0310   27.8720 N.ar      1 J8A        -0.2880
     19 NAX         7.9490   31.2510   17.8240 N.4       1 J8A         0.2345
     20 NAY         3.2720   28.6070   24.7130 N.am      1 J8A        -0.2305
     21 NAZ        -7.0300   29.6650   30.3660 N.am      1 J8A        -0.1870
     22 OAA         1.7310   30.2560   25.1360 O.2       1 J8A        -0.3736
     23 OAB        -8.3200   29.0080   28.5700 O.2       1 J8A        -0.3777
     24 CBB         2.1080   29.0910   25.1920 C.2       1 J8A         0.2315
     25 CBC        -8.1970   29.4680   29.7050 C.2       1 J8A         0.2220
     26 CBD         4.1890   29.3670   24.0850 C.ar      1 J8A         0.0881
     27 CBE         1.2680   28.1610   25.7900 C.ar      1 J8A         0.0568
     28 CBF        -0.6130   27.7870   27.2510 C.ar      1 J8A        -0.0023
     29 CBG         6.2010   30.7550   22.7000 C.ar      1 J8A         0.0247
     30 CBH        -1.6010   28.3390   28.0640 C.ar      1 J8A         0.0382
     31 CBI        -5.8340   29.3710   29.8320 C.2       1 J8A         0.2177
     32 CBJ         5.1720   31.4800   23.3210 C.ar      1 J8A         0.0386
     33 CBK        -3.5760   29.4400   29.6220 C.ar      1 J8A         0.0346
     34 CBL        -3.8570   28.5670   28.6330 C.ar      1 J8A         0.1173
     35 CBM        -9.4450   29.8340   30.5170 C.3       1 J8A         0.0578
     36 CBO         5.0600   32.8920   23.2980 C.3       1 J8A         0.3645
     37 NBN         7.0700   31.6320   20.5750 N.4       1 J8A         0.2588
     38 SBA        -5.4940   28.3470   28.6020 S.3       1 J8A         0.0510
     39 FAC         6.2280   33.5100   23.6270 F         1 J8A        -0.2292
     40 FAD         4.6860   33.3010   22.1230 F         1 J8A        -0.2292
     41 FAE         4.1270   33.2630   24.2070 F         1 J8A        -0.2292
     42 H1          0.5927   24.8575   26.0475 H         1 J8A         0.0630
     43 H2          2.1686   26.4063   24.9273 H         1 J8A         0.0671
     44 H3         -1.1953   25.7329   27.5167 H         1 J8A         0.0661
     45 H4          5.2535   27.5935   23.5249 H         1 J8A         0.0763
     46 H5          7.0282   28.8099   22.3507 H         1 J8A         0.0616
     47 H6         -0.2429   29.5252   29.2404 H         1 J8A         0.0637
     48 H7         -2.0611   30.4717   30.6274 H         1 J8A         0.0648
     49 H8          0.1746   29.7152   26.7664 H         1 J8A         0.0681
     50 H9          3.3764   31.3129   24.4724 H         1 J8A         0.0655
     51 H10         5.9042   31.6757   18.1087 H         1 J8A         0.0867
     52 H11         6.2805   29.9702   17.6885 H         1 J8A         0.0867
     53 H12         9.4019   32.6919   18.3248 H         1 J8A         0.0867
     54 H13         7.6975   33.2391   18.4737 H         1 J8A         0.0867
     55 H14       -10.3438   27.8033   30.0158 H         1 J8A         0.0294
     56 H15       -11.1139   28.5880   31.4363 H         1 J8A         0.0294
     57 H16       -11.4592   30.7775   30.0396 H         1 J8A         0.0294
     58 H17       -10.6891   29.9928   28.6191 H         1 J8A         0.0294
     59 H18         7.3223   29.6434   19.9152 H         1 J8A         0.0868
     60 H19         5.6172   30.1862   20.0723 H         1 J8A         0.0868
     61 H20         8.7322   32.9144   20.6800 H         1 J8A         0.0868
     62 H21         9.1045   31.2081   20.2594 H         1 J8A         0.0868
     63 H22         8.1262   30.6642   22.0952 H         1 J8A         0.1043
     64 H23         7.4953   32.2942   22.5099 H         1 J8A         0.1043
     65 H24         7.9180   31.5145   16.8516 H         1 J8A         0.2018
     66 H25         8.5927   30.4847   17.9442 H         1 J8A         0.2018
     67 H26         3.4641   27.6327   24.8304 H         1 J8A         0.2240
     68 H27        -7.0614   30.0453   31.2903 H         1 J8A         0.2462
     69 H28        -9.2075   30.4453   31.4001 H         1 J8A         0.0546
     70 H29         6.4041   32.3813   20.4695 H         1 J8A         0.2058
@<TRIPOS>BOND
     1    1    2 ar 
     2    3    1 ar 
     3   27    2 ar 
     4   28    3 ar 
     5    4    5 ar 
     6   26    4 ar 
     7    5   29 ar 
     8    6    7 ar 
     9   30    6 ar 
    10    7   33 ar 
    11    8   27 ar 
    12   28    8 ar 
    13   26    9 ar 
    14    9   32 ar 
    15   14   10 1  
    16   10   19 1  
    17   15   11 1  
    18   11   19 1  
    19   13   12 1  
    20   35   12 1  
    21   35   13 1  
    22   37   14 1  
    23   37   15 1  
    24   29   16 1  
    25   16   37 1  
    26   17   31 2  
    27   33   17 1  
    28   30   18 ar 
    29   18   34 ar 
    30   24   20 am 
    31   20   26 1  
    32   21   25 am 
    33   31   21 1  
    34   24   22 2  
    35   25   23 2  
    36   27   24 1  
    37   25   35 1  
    38   28   30 1  
    39   29   32 ar 
    40   31   38 1  
    41   32   36 1  
    42   33   34 ar 
    43   34   38 1  
    44   36   39 1  
    45   36   40 1  
    46   36   41 1  
    47    1   42 1  
    48    2   43 1  
    49    3   44 1  
    50    4   45 1  
    51    5   46 1  
    52    6   47 1  
    53    7   48 1  
    54    8   49 1  
    55    9   50 1  
    56   10   51 1  
    57   10   52 1  
    58   11   53 1  
    59   11   54 1  
    60   12   55 1  
    61   12   56 1  
    62   13   57 1  
    63   13   58 1  
    64   14   59 1  
    65   14   60 1  
    66   15   61 1  
    67   15   62 1  
    68   16   63 1  
    69   16   64 1  
    70   19   65 1  
    71   19   66 1  
    72   20   67 1  
    73   21   68 1  
    74   35   69 1  
    75   37   70 1  
@<TRIPOS>SUBSTRUCTURE
     1 J8A         1

