### 
### Created by X-TOOL on Wed Jan  1 15:39:38 2020
### 

@<TRIPOS>MOLECULE
6ehh_ligand
   31    33     1     0     0
SMALL
GAST_HUCK


@<TRIPOS>ATOM
      1 C13        10.2600   -4.6220   11.7090 C.ar      1 2GE        -0.0020
      2 C17         9.1520   -7.7720   12.3360 C.3       1 2GE        -0.0276
      3 N01         8.5260   -1.6820    9.3040 N.pl3     1 2GE        -0.3069
      4 C02         9.1310   -2.7080   10.1470 C.ar      1 2GE         0.1672
      5 N03        10.4500   -2.7060   10.3140 N.ar      1 2GE        -0.2715
      6 C04        11.0300   -3.6340   11.0720 C.ar      1 2GE         0.0387
      7 C05        12.5590   -3.5590   11.2280 C.ar      1 2GE         0.0135
      8 C06        13.1170   -2.3320   11.5970 C.ar      1 2GE        -0.0483
      9 C07        14.4960   -2.2070   11.7420 C.ar      1 2GE        -0.0572
     10 C08        15.3300   -3.3010   11.5130 C.ar      1 2GE        -0.0443
     11 C09        14.7750   -4.5260   11.1410 C.ar      1 2GE         0.0583
     12 CL1        15.8380   -5.9330   10.8450 Cl        1 2GE        -0.0692
     13 C11        13.3930   -4.6600   10.9940 C.ar      1 2GE         0.0677
     14 CL2        12.7330   -6.2500   10.5170 Cl        1 2GE        -0.0654
     15 C14         8.8710   -4.5880   11.4950 C.ar      1 2GE         0.1116
     16 N15         7.9630   -5.5650   12.0910 N.pl3     1 2GE        -0.3013
     17 C16         8.4520   -6.5910   13.0040 C.3       1 2GE         0.0401
     18 C18         7.7340   -7.9340   12.8950 C.3       1 2GE        -0.0276
     19 N19         8.3620   -3.6300   10.7240 N.ar      1 2GE        -0.2451
     20 H1         10.7171   -5.3774   12.3379 H         1 2GE         0.0562
     21 H2          9.9999   -8.2634   12.8355 H         1 2GE         0.0288
     22 H3          9.3180   -7.7701   11.2486 H         1 2GE         0.0288
     23 H4          9.1183   -0.9679    8.8566 H         1 2GE         0.1823
     24 H5          7.5067   -1.6719    9.1563 H         1 2GE         0.1823
     25 H6         12.4749   -1.4760   11.7706 H         1 2GE         0.0655
     26 H7         14.9235   -1.2547   12.0343 H         1 2GE         0.0627
     27 H8         16.4037   -3.2003   11.6234 H         1 2GE         0.0649
     28 H9          6.9594   -5.5283   11.8621 H         1 2GE         0.1842
     29 H10         8.7864   -6.1753   13.9659 H         1 2GE         0.0558
     30 H11         7.5637   -8.5417   13.7959 H         1 2GE         0.0288
     31 H12         6.8817   -8.0483   12.2090 H         1 2GE         0.0288
@<TRIPOS>BOND
     1    1    6 ar 
     2   15    1 ar 
     3   17    2 1  
     4    2   18 1  
     5    4    3 1  
     6    4    5 ar 
     7   19    4 ar 
     8    6    5 ar 
     9    6    7 1  
    10    7    8 ar 
    11    7   13 ar 
    12    8    9 ar 
    13    9   10 ar 
    14   11   10 ar 
    15   11   12 1  
    16   13   11 ar 
    17   13   14 1  
    18   16   15 1  
    19   15   19 ar 
    20   16   17 1  
    21   17   18 1  
    22    1   20 1  
    23    2   21 1  
    24    2   22 1  
    25    3   23 1  
    26    3   24 1  
    27    8   25 1  
    28    9   26 1  
    29   10   27 1  
    30   16   28 1  
    31   17   29 1  
    32   18   30 1  
    33   18   31 1  
@<TRIPOS>SUBSTRUCTURE
     1 2GE         1

