### 
### Created by X-TOOL on Wed Jan  1 15:39:38 2020
### 

@<TRIPOS>MOLECULE
6ei4_ligand
   45    47     1     0     0
SMALL
GAST_HUCK


@<TRIPOS>ATOM
      1 C01        -0.4230  -16.7360   15.1390 C.ar      1 B5N        -0.0570
      2 C02         0.5950  -15.7880   14.9930 C.ar      1 B5N        -0.0347
      3 C03        -0.1300  -18.1060   15.0170 C.ar      1 B5N        -0.0024
      4 C04         1.8910  -16.2010   14.7280 C.ar      1 B5N         0.1248
      5 C05         1.1580  -18.5130   14.7540 C.ar      1 B5N        -0.0570
      6 C06         2.1800  -17.5620   14.6080 C.ar      1 B5N        -0.0347
      7 C08        -1.2500  -19.1550   15.1770 C.3       1 B5N         0.0003
      8 C10        -3.3470  -21.0370   14.7380 C.3       1 B5N         0.0734
      9 C11        -2.2010  -20.6190   13.8050 C.3       1 B5N        -0.0097
     10 C13        -3.9660  -18.5260   14.5740 C.3       1 B5N         0.0734
     11 C14        -2.7150  -18.4790   13.6630 C.3       1 B5N        -0.0097
     12 C15        -5.7160  -20.2760   15.3060 C.2       1 B5N         0.2029
     13 C16        -6.7830  -19.1280   15.4530 C.ar      1 B5N         0.0511
     14 C17        -8.4580  -18.0110   16.7720 C.ar      1 B5N        -0.0547
     15 C18        -7.5280  -19.0110   16.6400 C.ar      1 B5N        -0.0256
     16 C19        -8.6690  -17.0930   15.7040 C.ar      1 B5N        -0.0642
     17 C20        -7.9300  -17.2120   14.5300 C.ar      1 B5N        -0.0630
     18 C21        -6.9890  -18.2270   14.4030 C.ar      1 B5N        -0.0485
     19 C23        -7.2960  -20.0010   17.7840 C.3       1 B5N        -0.0274
     20 F07         2.8960  -15.2670   14.5840 F         1 B5N        -0.1893
     21 N09        -1.8310  -19.3760   13.9760 N.4       1 B5N         0.2495
     22 N12        -4.3330  -19.9540   14.8710 N.am      1 B5N        -0.2634
     23 O22        -6.0210  -21.4160   15.5470 O.2       1 B5N        -0.3883
     24 H1         -1.4374  -16.4148   15.3461 H         1 B5N         0.0549
     25 H2          0.3705  -14.7317   15.0870 H         1 B5N         0.0587
     26 H3          1.3835  -19.5691   14.6595 H         1 B5N         0.0549
     27 H4          3.1943  -17.8842   14.4020 H         1 B5N         0.0587
     28 H5         -2.0035  -18.7826   15.8866 H         1 B5N         0.0972
     29 H6         -0.8219  -20.0946   15.5563 H         1 B5N         0.0972
     30 H7         -2.9360  -21.2744   15.7303 H         1 B5N         0.0575
     31 H8         -3.8428  -21.9273   14.3239 H         1 B5N         0.0575
     32 H9         -2.5323  -20.7461   12.7638 H         1 B5N         0.0835
     33 H10        -1.3366  -21.2717   13.9970 H         1 B5N         0.0835
     34 H11        -4.8066  -18.0324   14.0643 H         1 B5N         0.0575
     35 H12        -3.7500  -18.0019   15.5167 H         1 B5N         0.0575
     36 H13        -2.2531  -17.4846   13.7513 H         1 B5N         0.0835
     37 H14        -3.0313  -18.6454   12.6227 H         1 B5N         0.0835
     38 H15        -9.0311  -17.9199   17.6876 H         1 B5N         0.0569
     39 H16        -9.4040  -16.3026   15.8049 H         1 B5N         0.0635
     40 H17        -8.0884  -16.5139   13.7160 H         1 B5N         0.0572
     41 H18        -6.4139  -18.3205   13.4889 H         1 B5N         0.0651
     42 H19        -6.5187  -20.7227   17.4924 H         1 B5N         0.0404
     43 H20        -8.2317  -20.5373   18.0002 H         1 B5N         0.0404
     44 H21        -6.9707  -19.4546   18.6815 H         1 B5N         0.0404
     45 H22        -1.0917  -19.2416   13.3041 H         1 B5N         0.2049
@<TRIPOS>BOND
     1    1    2 ar 
     2    3    1 ar 
     3    2    4 ar 
     4    3    5 ar 
     5    7    3 1  
     6    6    4 ar 
     7    4   20 1  
     8    5    6 ar 
     9   21    7 1  
    10    8    9 1  
    11   22    8 1  
    12    9   21 1  
    13   10   11 1  
    14   22   10 1  
    15   11   21 1  
    16   12   13 1  
    17   12   22 am 
    18   12   23 2  
    19   13   15 ar 
    20   13   18 ar 
    21   15   14 ar 
    22   14   16 ar 
    23   15   19 1  
    24   16   17 ar 
    25   17   18 ar 
    26    1   24 1  
    27    2   25 1  
    28    5   26 1  
    29    6   27 1  
    30    7   28 1  
    31    7   29 1  
    32    8   30 1  
    33    8   31 1  
    34    9   32 1  
    35    9   33 1  
    36   10   34 1  
    37   10   35 1  
    38   11   36 1  
    39   11   37 1  
    40   14   38 1  
    41   16   39 1  
    42   17   40 1  
    43   18   41 1  
    44   19   42 1  
    45   19   43 1  
    46   19   44 1  
    47   21   45 1  
@<TRIPOS>SUBSTRUCTURE
     1 B5N         1

