### 
### Created by X-TOOL on Wed Jan  1 15:39:38 2020
### 

@<TRIPOS>MOLECULE
6eif_ligand
   39    42     1     0     0
SMALL
GAST_HUCK


@<TRIPOS>ATOM
      1 CAG         9.5890   17.7360  -49.3970 C.ar      1 B5T        -0.0532
      2 CAF        10.1990   18.9600  -49.6680 C.ar      1 B5T        -0.0353
      3 CAE        10.3740   19.9000  -48.6580 C.ar      1 B5T         0.1073
      4 SAB        11.1470   21.4390  -49.0430 S.o2      1 B5T         0.0656
      5 OAC        11.7450   22.0490  -47.7760 O.2       1 B5T        -0.1506
      6 OAD        10.1120   22.4020  -49.6290 O.2       1 B5T        -0.1506
      7 NAA        12.3210   21.1940  -50.1310 N.am      1 B5T        -0.2610
      8 CAJ         9.9340   19.6020  -47.3670 C.ar      1 B5T        -0.0353
      9 CAI         9.3230   18.3720  -47.0920 C.ar      1 B5T        -0.0532
     10 CAH         9.1440   17.4150  -48.1050 C.ar      1 B5T        -0.0185
     11 CAK         8.5290   16.1720  -47.8530 C.ar      1 B5T        -0.0056
     12 CAS         7.4420   16.0460  -46.9720 C.ar      1 B5T        -0.0453
     13 CAR         6.8560   14.8550  -46.7430 C.ar      1 B5T         0.0146
     14 CAL         8.9740   15.0030  -48.4830 C.ar      1 B5T         0.0037
     15 NAM         8.3270   13.7870  -48.2130 N.ar      1 B5T        -0.2829
     16 CAN         7.2920   13.7420  -47.3560 C.ar      1 B5T         0.1413
     17 NAO         6.5450   12.7150  -46.9570 N.pl3     1 B5T        -0.2574
     18 CAP         5.6390   13.1660  -46.1000 C.2       1 B5T         0.0472
     19 CAQ         5.8310   14.4740  -45.9710 C.2       1 B5T         0.0037
     20 CAT         5.0880   15.2500  -45.1710 C.ar      1 B5T        -0.0109
     21 CAY         4.4300   16.3770  -45.6720 C.ar      1 B5T        -0.0449
     22 CAX         3.6540   17.1840  -44.8360 C.ar      1 B5T        -0.0410
     23 CAW         3.5180   16.8690  -43.4840 C.ar      1 B5T         0.0043
     24 NAV         4.1690   15.7350  -42.9690 N.ar      1 B5T        -0.3043
     25 CAU         4.9540   14.9280  -43.8160 C.ar      1 B5T         0.0087
     26 H1          9.4559   17.0189  -50.1989 H         1 B5T         0.0618
     27 H2         10.5394   19.1807  -50.6732 H         1 B5T         0.0635
     28 H3         12.8645   21.9652  -50.4623 H         1 B5T         0.1635
     29 H4         12.5025   20.2715  -50.4716 H         1 B5T         0.1635
     30 H5         10.0661   20.3273  -46.5723 H         1 B5T         0.0635
     31 H6          8.9841   18.1558  -46.0853 H         1 B5T         0.0618
     32 H7          7.0663   16.9274  -46.4649 H         1 B5T         0.0682
     33 H8          9.8099   15.0370  -49.1724 H         1 B5T         0.0762
     34 H9          6.6523   11.7370  -47.2618 H         1 B5T         0.2352
     35 H10         4.8778   12.5732  -45.5950 H         1 B5T         0.1056
     36 H11         4.5230   16.6281  -46.7224 H         1 B5T         0.0681
     37 H12         3.1558   18.0581  -45.2396 H         1 B5T         0.0690
     38 H13         2.9148   17.4941  -42.8355 H         1 B5T         0.0766
     39 H14         5.4561   14.0543  -43.4164 H         1 B5T         0.0772
@<TRIPOS>BOND
     1    1    2 ar 
     2    1   10 ar 
     3    2    3 ar 
     4    3    4 1  
     5    3    8 ar 
     6    4    5 2  
     7    4    6 2  
     8    4    7 am 
     9    8    9 ar 
    10    9   10 ar 
    11   10   11 1  
    12   11   12 ar 
    13   11   14 ar 
    14   12   13 ar 
    15   13   16 ar 
    16   13   19 1  
    17   14   15 ar 
    18   15   16 ar 
    19   16   17 1  
    20   17   18 1  
    21   18   19 2  
    22   19   20 1  
    23   20   21 ar 
    24   20   25 ar 
    25   21   22 ar 
    26   22   23 ar 
    27   23   24 ar 
    28   24   25 ar 
    29    1   26 1  
    30    2   27 1  
    31    7   28 1  
    32    7   29 1  
    33    8   30 1  
    34    9   31 1  
    35   12   32 1  
    36   14   33 1  
    37   17   34 1  
    38   18   35 1  
    39   21   36 1  
    40   22   37 1  
    41   23   38 1  
    42   25   39 1  
@<TRIPOS>SUBSTRUCTURE
     1 B5T         1

