### 
### Created by X-TOOL on Wed Jan  1 15:39:38 2020
### 

@<TRIPOS>MOLECULE
6eij_ligand
   58    62     1     0     0
SMALL
GAST_HUCK


@<TRIPOS>ATOM
      1 CAL        12.2700  -19.1450   49.3610 C.2       1 B5Z        -0.0563
      2 CAM        11.4420  -18.9110   50.4880 C.2       1 B5Z        -0.0563
      3 CBF        11.8490  -17.8160   49.7010 C.3       1 B5Z         0.0949
      4 CAY        10.7080  -17.0700   48.9550 C.2       1 B5Z         0.2273
      5 OAB        10.6300  -15.8540   49.0650 O.2       1 B5Z        -0.3816
      6 NAU         9.8520  -17.7920   48.2100 N.am      1 B5Z        -0.1875
      7 CBC         8.8240  -17.1880   47.5940 C.2       1 B5Z         0.2174
      8 NAQ         8.3440  -15.9290   47.6890 N.2       1 B5Z        -0.2999
      9 SAW         7.9250  -17.9930   46.6160 S.3       1 B5Z         0.0509
     10 CBE         6.9210  -16.8660   46.2430 C.ar      1 B5Z         0.1174
     11 NAR         5.8840  -16.9330   45.4070 N.ar      1 B5Z        -0.2883
     12 CBD         7.2490  -15.7390   46.9080 C.ar      1 B5Z         0.0346
     13 CAG         6.4810  -14.6510   46.7040 C.ar      1 B5Z        -0.0448
     14 CAF         5.3770  -14.6940   45.8310 C.ar      1 B5Z        -0.0421
     15 CBB         5.0850  -15.8930   45.1550 C.ar      1 B5Z         0.0335
     16 CBA         4.0090  -16.1090   44.2760 C.ar      1 B5Z        -0.0219
     17 CAH         3.5020  -17.4230   44.1440 C.ar      1 B5Z        -0.0334
     18 CAE         3.3910  -15.0800   43.5530 C.ar      1 B5Z        -0.0684
     19 CAC         2.3110  -15.3740   42.7110 C.ar      1 B5Z        -0.0742
     20 CAD         1.8260  -16.6800   42.5880 C.ar      1 B5Z        -0.0409
     21 CAZ         2.4290  -17.7200   43.3050 C.ar      1 B5Z         0.0673
     22 NAT         2.0070  -18.9980   43.2190 N.am      1 B5Z        -0.2196
     23 CAX         2.1380  -19.6630   42.0430 C.2       1 B5Z         0.2872
     24 OAA         2.6350  -19.1260   41.0520 O.2       1 B5Z        -0.3904
     25 NAS         1.6980  -20.9400   41.9640 N.am      1 B5Z        -0.2628
     26 CAI         1.8730  -21.6990   40.7300 C.3       1 B5Z         0.0717
     27 CAN         0.8320  -22.7960   40.5650 C.3       1 B5Z        -0.0113
     28 NBG        -0.4900  -22.1880   40.2290 N.4       1 B5Z         0.2399
     29 CAO        -1.5520  -23.2280   40.2680 C.3       1 B5Z        -0.0078
     30 CAJ        -2.9420  -22.6820   39.8310 C.3       1 B5Z         0.0878
     31 OAV        -2.8110  -21.4210   39.0970 O.3       1 B5Z        -0.3693
     32 CAK        -1.8030  -21.5780   38.1310 C.3       1 B5Z         0.0878
     33 CAP        -0.5040  -21.4320   38.9380 C.3       1 B5Z        -0.0078
     34 H1         12.8193  -19.8282   48.7150 H         1 B5Z         0.0614
     35 H2         10.8903  -19.2980   51.3435 H         1 B5Z         0.0614
     36 H3         12.5956  -17.0928   50.0611 H         1 B5Z         0.0650
     37 H4          9.9816  -18.7790   48.1151 H         1 B5Z         0.2458
     38 H5          6.7168  -13.7275   47.2203 H         1 B5Z         0.0648
     39 H6          4.7603  -13.8151   45.6817 H         1 B5Z         0.0638
     40 H7          3.9618  -18.2233   44.7125 H         1 B5Z         0.0505
     41 H8          3.7474  -14.0604   43.6450 H         1 B5Z         0.0500
     42 H9          1.8434  -14.5762   42.1454 H         1 B5Z         0.0579
     43 H10         0.9836  -16.8867   41.9378 H         1 B5Z         0.0508
     44 H11         1.6019  -19.4509   44.0132 H         1 B5Z         0.2253
     45 H12         1.2523  -21.3643   42.7523 H         1 B5Z         0.1854
     46 H13         2.8718  -22.1597   40.7384 H         1 B5Z         0.0571
     47 H14         1.7949  -21.0083   39.8775 H         1 B5Z         0.0571
     48 H15         0.7459  -23.3628   41.5038 H         1 B5Z         0.0834
     49 H16         1.1396  -23.4733   39.7547 H         1 B5Z         0.0834
     50 H17        -0.6973  -21.5198   40.9547 H         1 B5Z         0.2036
     51 H18        -1.6317  -23.6115   41.2959 H         1 B5Z         0.0837
     52 H19        -1.2673  -24.0476   39.5918 H         1 B5Z         0.0837
     53 H20        -3.5584  -22.5132   40.7263 H         1 B5Z         0.0613
     54 H21        -3.4313  -23.4244   39.1835 H         1 B5Z         0.0613
     55 H22        -1.8749  -20.7987   37.3580 H         1 B5Z         0.0613
     56 H23        -1.8626  -22.5696   37.6587 H         1 B5Z         0.0613
     57 H24         0.3289  -21.7949   38.3178 H         1 B5Z         0.0837
     58 H25        -0.3565  -20.3653   39.1624 H         1 B5Z         0.0837
@<TRIPOS>BOND
     1    1    2 2  
     2    1    3 1  
     3    2    3 1  
     4    3    4 1  
     5    4    5 2  
     6    4    6 am 
     7    6    7 1  
     8    7    8 2  
     9    7    9 1  
    10    8   12 1  
    11    9   10 1  
    12   10   11 ar 
    13   10   12 ar 
    14   11   15 ar 
    15   12   13 ar 
    16   13   14 ar 
    17   14   15 ar 
    18   15   16 1  
    19   16   17 ar 
    20   16   18 ar 
    21   17   21 ar 
    22   18   19 ar 
    23   19   20 ar 
    24   20   21 ar 
    25   21   22 1  
    26   22   23 am 
    27   23   24 2  
    28   23   25 am 
    29   25   26 1  
    30   26   27 1  
    31   27   28 1  
    32   28   29 1  
    33   28   33 1  
    34   29   30 1  
    35   30   31 1  
    36   31   32 1  
    37   32   33 1  
    38    1   34 1  
    39    2   35 1  
    40    3   36 1  
    41    6   37 1  
    42   13   38 1  
    43   14   39 1  
    44   17   40 1  
    45   18   41 1  
    46   19   42 1  
    47   20   43 1  
    48   22   44 1  
    49   25   45 1  
    50   26   46 1  
    51   26   47 1  
    52   27   48 1  
    53   27   49 1  
    54   28   50 1  
    55   29   51 1  
    56   29   52 1  
    57   30   53 1  
    58   30   54 1  
    59   32   55 1  
    60   32   56 1  
    61   33   57 1  
    62   33   58 1  
@<TRIPOS>SUBSTRUCTURE
     1 B5Z         1

