### 
### Created by X-TOOL on Wed Jan  1 15:39:38 2020
### 

@<TRIPOS>MOLECULE
6eil_ligand
   39    41     1     0     0
SMALL
GAST_HUCK


@<TRIPOS>ATOM
      1 CAA         2.1220  -31.8470   -8.0410 C.3       1 B6B         0.0578
      2 OAP         3.0360  -31.0260   -8.7730 O.3       1 B6B        -0.3261
      3 CAV         2.4700  -30.6710   -9.9610 C.ar      1 B6B         0.0903
      4 CAI         1.1330  -30.9450  -10.2300 C.ar      1 B6B        -0.0410
      5 CAH         0.5840  -30.5680  -11.4500 C.ar      1 B6B        -0.0511
      6 CAR         1.3730  -29.9190  -12.3940 C.ar      1 B6B         0.0259
      7 NAB         0.8570  -29.5510  -13.5660 N.pl3     1 B6B        -0.3426
      8 CAL         2.7040  -29.6470  -12.1170 C.ar      1 B6B        -0.0427
      9 CAW         3.2680  -30.0230  -10.9060 C.ar      1 B6B         0.0189
     10 CAU         4.6100  -29.7110  -10.7060 C.ar      1 B6B         0.0671
     11 NAO         5.1010  -28.6520  -11.3610 N.ar      1 B6B        -0.2657
     12 CAK         5.4450  -30.4580   -9.8800 C.ar      1 B6B         0.0352
     13 NAN         6.7850  -30.0770   -9.7400 N.ar      1 B6B        -0.2551
     14 CAS         7.2230  -29.0040  -10.4110 C.ar      1 B6B         0.1579
     15 NAC         8.4770  -28.5750  -10.3340 N.pl3     1 B6B        -0.3120
     16 CAX         6.3800  -28.2700  -11.2320 C.ar      1 B6B         0.1520
     17 CAQ         6.9090  -27.1660  -11.9040 C.2       1 B6B         0.1872
     18 OAD         8.0860  -26.8510  -11.7480 O.2       1 B6B        -0.3620
     19 CAT         6.1020  -26.4640  -12.8020 C.ar      1 B6B         0.0633
     20 CAG         4.7650  -26.1610  -12.5430 C.ar      1 B6B        -0.0239
     21 CAE         3.9970  -25.4580  -13.4660 C.ar      1 B6B        -0.0283
     22 CAF         4.5630  -25.0330  -14.6610 C.ar      1 B6B         0.0156
     23 NAM         5.9050  -25.3220  -14.9240 N.ar      1 B6B        -0.2902
     24 CAJ         6.6700  -26.0340  -13.9930 C.ar      1 B6B         0.0298
     25 H1          2.5759  -32.1353   -7.0814 H         1 B6B         0.0575
     26 H2          1.8929  -32.7509   -8.6245 H         1 B6B         0.0575
     27 H3          1.1943  -31.2863   -7.8540 H         1 B6B         0.0575
     28 H4          0.5217  -31.4505   -9.4911 H         1 B6B         0.0515
     29 H5         -0.4571  -30.7794  -11.6654 H         1 B6B         0.0503
     30 H6          1.4470  -29.0708  -14.2604 H         1 B6B         0.1685
     31 H7         -0.1319  -29.7467  -13.7776 H         1 B6B         0.1685
     32 H8          3.3110  -29.1348  -12.8547 H         1 B6B         0.0494
     33 H9          5.0626  -31.3239   -9.3517 H         1 B6B         0.0909
     34 H10         8.7709  -27.7446  -10.8677 H         1 B6B         0.1815
     35 H11         9.1560  -29.0726   -9.7405 H         1 B6B         0.1815
     36 H12         4.3175  -26.4782  -11.6080 H         1 B6B         0.0789
     37 H13         2.9565  -25.2419  -13.2523 H         1 B6B         0.0723
     38 H14         3.9699  -24.4827  -15.3825 H         1 B6B         0.0859
     39 H15         7.7111  -26.2506  -14.2032 H         1 B6B         0.0879
@<TRIPOS>BOND
     1    1    2 1  
     2    2    3 1  
     3    3    4 ar 
     4    3    9 ar 
     5    4    5 ar 
     6    5    6 ar 
     7    6    7 1  
     8    6    8 ar 
     9    8    9 ar 
    10    9   10 1  
    11   10   11 ar 
    12   10   12 ar 
    13   11   16 ar 
    14   12   13 ar 
    15   13   14 ar 
    16   14   15 1  
    17   14   16 ar 
    18   16   17 1  
    19   17   18 2  
    20   17   19 1  
    21   19   20 ar 
    22   19   24 ar 
    23   20   21 ar 
    24   21   22 ar 
    25   22   23 ar 
    26   23   24 ar 
    27    1   25 1  
    28    1   26 1  
    29    1   27 1  
    30    4   28 1  
    31    5   29 1  
    32    7   30 1  
    33    7   31 1  
    34    8   32 1  
    35   12   33 1  
    36   15   34 1  
    37   15   35 1  
    38   20   36 1  
    39   21   37 1  
    40   22   38 1  
    41   24   39 1  
@<TRIPOS>SUBSTRUCTURE
     1 B6B         1

