### 
### Created by X-TOOL on Wed Jan  1 15:39:38 2020
### 

@<TRIPOS>MOLECULE
6eip_ligand
   59    63     1     0     0
SMALL
GAST_HUCK


@<TRIPOS>ATOM
      1 C4         -4.1760   30.5670   -9.8970 C.ar      1 B7B         0.1444
      2 C5         -4.5420   31.6910   -9.1400 C.ar      1 B7B         0.1275
      3 C6         -5.9030   31.8340   -8.8090 C.ar      1 B7B         0.0204
      4 N1         -6.8410   30.8860   -9.2360 N.ar      1 B7B        -0.2870
      5 N3         -5.1430   29.6810  -10.2670 N.ar      1 B7B        -0.2506
      6 CAM        -1.3640   29.6230  -12.3270 C.3       1 B7B        -0.0298
      7 CAJ        -1.6880   28.9390  -13.5850 C.3       1 B7B        -0.0509
      8 CAK        -2.4840   27.7080  -13.1360 C.3       1 B7B        -0.0509
      9 CAN        -3.0140   28.0670  -11.7500 C.3       1 B7B        -0.0298
     10 CBA        -2.7770   29.5860  -11.6900 C.3       1 B7B         0.0415
     11 NBE        -2.9230   30.2290  -10.3110 N.pl3     1 B7B        -0.2846
     12 CBC        -1.6530   30.4260   -9.5050 C.3       1 B7B         0.0613
     13 CAP        -1.2440   29.0960   -8.8360 C.3       1 B7B        -0.0272
     14 CAL        -1.0680   29.3430   -7.3530 C.3       1 B7B        -0.0484
     15 CAO        -2.0370   30.4820   -7.1900 C.3       1 B7B        -0.0306
     16 CBB        -1.6350   31.3860   -8.2930 C.3       1 B7B         0.0770
     17 CAU        -2.4270   32.5420   -8.3320 C.2       1 B7B         0.2081
     18 OAD        -1.8490   33.5610   -7.9450 O.2       1 B7B        -0.3860
     19 NBD        -3.7290   32.6800   -8.6820 N.am      1 B7B        -0.2222
     20 CAA        -4.2690   34.0920   -8.6460 C.3       1 B7B         0.0422
     21 C2         -6.4590   29.8230   -9.9610 C.ar      1 B7B         0.1803
     22 NAS        -7.4350   28.9640  -10.3280 N.pl3     1 B7B        -0.2497
     23 CAV        -7.2200   27.9830  -11.2200 C.ar      1 B7B         0.0673
     24 CAE        -7.5690   26.6850  -10.8600 C.ar      1 B7B        -0.0330
     25 CAG        -7.3800   25.6240  -11.7430 C.ar      1 B7B        -0.0519
     26 CAW        -6.8410   25.8290  -13.0150 C.ar      1 B7B         0.0371
     27 CAT        -6.6650   24.7200  -13.8600 C.2       1 B7B         0.1935
     28 OAC        -7.4680   23.7890  -13.8530 O.2       1 B7B        -0.3906
     29 NAB        -5.5510   24.6820  -14.5980 N.am      1 B7B        -0.3019
     30 CAH        -6.5030   27.1400  -13.3850 C.ar      1 B7B        -0.0519
     31 CAF        -6.6970   28.2060  -12.4980 C.ar      1 B7B        -0.0330
     32 H1         -6.2270   32.6840   -8.2194 H         1 B7B         0.0704
     33 H2         -1.0081   30.6508  -12.4914 H         1 B7B         0.0288
     34 H3         -0.6237   29.0695  -11.7306 H         1 B7B         0.0288
     35 H4         -0.7722   28.6412  -14.1165 H         1 B7B         0.0266
     36 H5         -2.2968   29.5834  -14.2362 H         1 B7B         0.0266
     37 H6         -1.8322   26.8235  -13.0839 H         1 B7B         0.0266
     38 H7         -3.3152   27.5107  -13.8290 H         1 B7B         0.0266
     39 H8         -2.4522   27.5450  -10.9614 H         1 B7B         0.0288
     40 H9         -4.0836   27.8271  -11.6583 H         1 B7B         0.0288
     41 H10        -3.4924   30.1006  -12.3483 H         1 B7B         0.0557
     42 H11        -0.8786   30.7535  -10.2143 H         1 B7B         0.0586
     43 H12        -0.2979   28.7381   -9.2681 H         1 B7B         0.0289
     44 H13        -2.0289   28.3422   -8.9967 H         1 B7B         0.0289
     45 H14        -0.0383   29.6381   -7.1029 H         1 B7B         0.0268
     46 H15        -1.3549   28.4677   -6.7518 H         1 B7B         0.0268
     47 H16        -1.9204   30.9694   -6.2108 H         1 B7B         0.0293
     48 H17        -3.0766   30.1430   -7.3094 H         1 B7B         0.0293
     49 H18        -0.6001   31.7249   -8.1375 H         1 B7B         0.0565
     50 H19        -5.3273   34.0876   -8.9461 H         1 B7B         0.0544
     51 H20        -3.6938   34.7224   -9.3400 H         1 B7B         0.0544
     52 H21        -4.1789   34.4932   -7.6257 H         1 B7B         0.0544
     53 H22        -8.3717   29.0643   -9.9115 H         1 B7B         0.2153
     54 H23        -7.9932   26.4970   -9.8803 H         1 B7B         0.0546
     55 H24        -7.6563   24.6214  -11.4372 H         1 B7B         0.0639
     56 H25        -5.3849   23.9114  -15.2132 H         1 B7B         0.1804
     57 H26        -4.8838   25.4242  -14.5348 H         1 B7B         0.1804
     58 H27        -6.0873   27.3294  -14.3680 H         1 B7B         0.0639
     59 H28        -6.4395   29.2134  -12.8046 H         1 B7B         0.0546
@<TRIPOS>BOND
     1    1    2 ar 
     2    1    5 ar 
     3   11    1 1  
     4    2    3 ar 
     5    2   19 1  
     6    3    4 ar 
     7   21    4 ar 
     8    5   21 ar 
     9    6    7 1  
    10   10    6 1  
    11    8    7 1  
    12    9    8 1  
    13   10    9 1  
    14   10   11 1  
    15   11   12 1  
    16   12   13 1  
    17   12   16 1  
    18   13   14 1  
    19   14   15 1  
    20   15   16 1  
    21   16   17 1  
    22   17   18 2  
    23   17   19 am 
    24   19   20 1  
    25   21   22 1  
    26   22   23 1  
    27   23   24 ar 
    28   23   31 ar 
    29   24   25 ar 
    30   25   26 ar 
    31   26   27 1  
    32   26   30 ar 
    33   27   28 2  
    34   27   29 am 
    35   30   31 ar 
    36    3   32 1  
    37    6   33 1  
    38    6   34 1  
    39    7   35 1  
    40    7   36 1  
    41    8   37 1  
    42    8   38 1  
    43    9   39 1  
    44    9   40 1  
    45   10   41 1  
    46   12   42 1  
    47   13   43 1  
    48   13   44 1  
    49   14   45 1  
    50   14   46 1  
    51   15   47 1  
    52   15   48 1  
    53   16   49 1  
    54   20   50 1  
    55   20   51 1  
    56   20   52 1  
    57   22   53 1  
    58   24   54 1  
    59   25   55 1  
    60   29   56 1  
    61   29   57 1  
    62   30   58 1  
    63   31   59 1  
@<TRIPOS>SUBSTRUCTURE
     1 B7B         1

