### 
### Created by X-TOOL on Wed Jan  1 15:39:38 2020
### 

@<TRIPOS>MOLECULE
6eiq_ligand
   56    59     1     0     0
SMALL
GAST_HUCK


@<TRIPOS>ATOM
      1 CAO        -0.2610  -32.9370   -7.2130 C.3       1 B6Z         0.0649
      2 CAM        -1.0260  -34.0210   -7.8310 C.3       1 B6Z        -0.0123
      3 NBC        -2.3230  -33.4320   -8.3010 N.4       1 B6Z         0.2358
      4 CAB        -3.4050  -33.5670   -7.2960 C.3       1 B6Z        -0.0430
      5 CAN        -2.3050  -32.0290   -8.7840 C.3       1 B6Z        -0.0123
      6 CAP        -0.8940  -31.6440   -9.2930 C.3       1 B6Z         0.0649
      7 NBD         0.1580  -32.0860   -8.3530 N.pl3     1 B6Z        -0.3063
      8 CAX         1.4570  -31.7720   -8.5400 C.ar      1 B6Z         0.0209
      9 CAL         2.3720  -32.7980   -8.7820 C.ar      1 B6Z        -0.0237
     10 CAZ         3.7270  -32.5110   -8.9540 C.ar      1 B6Z         0.1058
     11 OAS         4.6570  -33.4900   -9.2020 O.3       1 B6Z        -0.3277
     12 CAA         4.7240  -34.6020   -8.2850 C.3       1 B6Z         0.0569
     13 CAJ         1.9110  -30.4450   -8.4800 C.ar      1 B6Z        -0.0638
     14 CAK         3.2700  -30.1510   -8.6620 C.ar      1 B6Z        -0.0558
     15 CAY         4.1850  -31.1840   -8.9200 C.ar      1 B6Z         0.0876
     16 NAR         5.5140  -31.0230   -9.0880 N.pl3     1 B6Z        -0.2423
     17 CBA         6.0640  -30.0390   -9.8170 C.2       1 B6Z         0.1985
     18 SAT         5.4380  -29.1370  -11.0730 S.3       1 B6Z         0.0079
     19 NAQ         7.3240  -29.6470   -9.5970 N.2       1 B6Z        -0.2740
     20 CAV         7.7650  -28.6570  -10.3970 C.2       1 B6Z         0.0833
     21 NAC         9.0150  -28.2200  -10.2250 N.pl3     1 B6Z        -0.3318
     22 CBB         6.8590  -28.2260  -11.2950 C.2       1 B6Z         0.0912
     23 CAU         7.1170  -27.2490  -12.1910 C.2       1 B6Z         0.1293
     24 OAD         8.2730  -26.8600  -12.3610 O.2       1 B6Z        -0.4029
     25 CAW         6.0980  -26.6480  -12.9370 C.ar      1 B6Z         0.0231
     26 CAH         4.9910  -26.0440  -12.3380 C.ar      1 B6Z        -0.0450
     27 CAF         4.0100  -25.4310  -13.1200 C.ar      1 B6Z        -0.0566
     28 CAE         4.1390  -25.3960  -14.5070 C.ar      1 B6Z        -0.0578
     29 CAG         5.2540  -25.9770  -15.1100 C.ar      1 B6Z        -0.0566
     30 CAI         6.2310  -26.5980  -14.3280 C.ar      1 B6Z        -0.0450
     31 H1          0.6159  -33.3337   -6.6803 H         1 B6Z         0.0563
     32 H2         -0.8891  -32.3675   -6.5122 H         1 B6Z         0.0563
     33 H3         -1.2171  -34.8156   -7.0947 H         1 B6Z         0.0834
     34 H4         -0.4696  -34.4373   -8.6837 H         1 B6Z         0.0834
     35 H5         -2.5914  -33.9919   -9.0951 H         1 B6Z         0.2032
     36 H6         -4.3296  -33.1204   -7.6905 H         1 B6Z         0.0778
     37 H7         -3.1131  -33.0483   -6.3709 H         1 B6Z         0.0778
     38 H8         -3.5750  -34.6323   -7.0811 H         1 B6Z         0.0778
     39 H9         -2.5863  -31.3590   -7.9582 H         1 B6Z         0.0834
     40 H10        -3.0275  -31.9208   -9.6063 H         1 B6Z         0.0834
     41 H11        -0.8392  -30.5509   -9.4031 H         1 B6Z         0.0563
     42 H12        -0.7238  -32.1199  -10.2700 H         1 B6Z         0.0563
     43 H13         2.0279  -33.8245   -8.8367 H         1 B6Z         0.0410
     44 H14         5.5098  -35.2993   -8.6111 H         1 B6Z         0.0573
     45 H15         3.7553  -35.1228   -8.2688 H         1 B6Z         0.0573
     46 H16         4.9581  -34.2317   -7.2760 H         1 B6Z         0.0573
     47 H17         1.2068  -29.6427   -8.2918 H         1 B6Z         0.0398
     48 H18         3.6144  -29.1248   -8.6034 H         1 B6Z         0.0478
     49 H19         6.1447  -31.6957   -8.6292 H         1 B6Z         0.2184
     50 H20         9.3828  -27.4642  -10.8203 H         1 B6Z         0.1746
     51 H21         9.6114  -28.6387   -9.4971 H         1 B6Z         0.1746
     52 H22         4.8924  -26.0510  -11.2585 H         1 B6Z         0.0665
     53 H23         3.1451  -24.9808  -12.6465 H         1 B6Z         0.0628
     54 H24         3.3771  -24.9200  -15.1136 H         1 B6Z         0.0650
     55 H25         5.3630  -25.9467  -16.1881 H         1 B6Z         0.0628
     56 H26         7.0976  -27.0439  -14.8026 H         1 B6Z         0.0665
@<TRIPOS>BOND
     1    1    2 1  
     2    1    7 1  
     3    2    3 1  
     4    3    4 1  
     5    3    5 1  
     6    5    6 1  
     7    6    7 1  
     8    7    8 1  
     9    8    9 ar 
    10    8   13 ar 
    11    9   10 ar 
    12   10   11 1  
    13   10   15 ar 
    14   11   12 1  
    15   13   14 ar 
    16   14   15 ar 
    17   15   16 1  
    18   16   17 1  
    19   17   18 1  
    20   17   19 2  
    21   18   22 1  
    22   19   20 1  
    23   20   21 1  
    24   20   22 2  
    25   22   23 1  
    26   23   24 2  
    27   23   25 1  
    28   25   26 ar 
    29   25   30 ar 
    30   26   27 ar 
    31   27   28 ar 
    32   28   29 ar 
    33   29   30 ar 
    34    1   31 1  
    35    1   32 1  
    36    2   33 1  
    37    2   34 1  
    38    3   35 1  
    39    4   36 1  
    40    4   37 1  
    41    4   38 1  
    42    5   39 1  
    43    5   40 1  
    44    6   41 1  
    45    6   42 1  
    46    9   43 1  
    47   12   44 1  
    48   12   45 1  
    49   12   46 1  
    50   13   47 1  
    51   14   48 1  
    52   16   49 1  
    53   21   50 1  
    54   21   51 1  
    55   26   52 1  
    56   27   53 1  
    57   28   54 1  
    58   29   55 1  
    59   30   56 1  
@<TRIPOS>SUBSTRUCTURE
     1 B6Z         1

