### 
### Created by X-TOOL on Wed Jan  1 15:39:38 2020
### 

@<TRIPOS>MOLECULE
6eir_ligand
   66    69     1     0     0
SMALL
GAST_HUCK


@<TRIPOS>ATOM
      1 CAQ        -9.6770  110.7320  277.2590 C.3       1 B6H         0.0649
      2 CAO       -10.3120  112.0950  277.0870 C.3       1 B6H        -0.0123
      3 NBH       -11.0240  112.5090  278.3250 N.4       1 B6H         0.2358
      4 CAC       -11.5660  113.8910  278.2300 C.3       1 B6H        -0.0430
      5 CAP       -12.1220  111.5890  278.6500 C.3       1 B6H        -0.0123
      6 CAR       -11.4510  110.3220  279.1420 C.3       1 B6H         0.0649
      7 NBI       -10.4580  109.8180  278.1560 N.pl3     1 B6H        -0.3063
      8 CBC       -10.1990  108.4970  278.1040 C.ar      1 B6H         0.0209
      9 CAN       -11.2020  107.5820  277.7640 C.ar      1 B6H        -0.0237
     10 CBF       -10.9140  106.2140  277.7160 C.ar      1 B6H         0.1058
     11 OAV       -11.8580  105.2800  277.3960 O.3       1 B6H        -0.3277
     12 CAB       -12.9520  105.2580  278.3280 C.3       1 B6H         0.0569
     13 CAL        -8.9090  108.0340  278.3840 C.ar      1 B6H        -0.0638
     14 CAM        -8.6210  106.6710  278.3330 C.ar      1 B6H        -0.0559
     15 CBD        -9.6210  105.7550  277.9880 C.ar      1 B6H         0.0875
     16 NAU        -9.4090  104.4290  277.9300 N.pl3     1 B6H        -0.2424
     17 CBE        -8.4950  103.9320  277.0800 C.2       1 B6H         0.1983
     18 SAW        -7.5970  104.7450  275.9630 S.3       1 B6H         0.0074
     19 NAS        -8.1660  102.6390  277.0150 N.2       1 B6H        -0.2743
     20 CBA        -7.2230  102.3520  276.0930 C.2       1 B6H         0.0827
     21 NAD        -6.8260  101.0880  275.9520 N.pl3     1 B6H        -0.3321
     22 CBG        -6.7830  103.4210  275.4010 C.2       1 B6H         0.0883
     23 CAY        -5.8450  103.3850  274.4300 C.2       1 B6H         0.1180
     24 OAF        -5.2730  102.3310  274.1450 O.2       1 B6H        -0.4101
     25 CBB        -5.5020  104.5580  273.7390 C.ar      1 B6H         0.0073
     26 CAK        -4.1640  104.9620  273.7100 C.ar      1 B6H        -0.0583
     27 CAI        -3.7820  106.1150  273.0170 C.ar      1 B6H        -0.0353
     28 CAJ        -6.4450  105.3210  273.0380 C.ar      1 B6H        -0.0583
     29 CAH        -6.0650  106.4750  272.3500 C.ar      1 B6H        -0.0353
     30 CAZ        -4.7290  106.8850  272.3410 C.ar      1 B6H         0.0718
     31 NAT        -4.3330  107.9770  271.6690 N.am      1 B6H        -0.2307
     32 CAX        -4.8490  109.1960  271.9560 C.2       1 B6H         0.2052
     33 OAE        -5.6950  109.4300  272.8230 O.2       1 B6H        -0.3839
     34 CAG        -4.2920  110.3340  271.0870 C.3       1 B6H         0.0408
     35 CAA        -4.7730  111.7750  271.2870 C.3       1 B6H        -0.0477
     36 H1         -8.6732  110.8670  277.6881 H         1 B6H         0.0563
     37 H2         -9.5922  110.2597  276.2692 H         1 B6H         0.0563
     38 H3        -11.0302  112.0552  276.2548 H         1 B6H         0.0834
     39 H4         -9.5275  112.8317  276.8594 H         1 B6H         0.0834
     40 H5        -10.3581  112.4852  279.0813 H         1 B6H         0.2032
     41 H6        -12.0812  114.1480  279.1673 H         1 B6H         0.0778
     42 H7        -12.2772  113.9492  277.3928 H         1 B6H         0.0778
     43 H8        -10.7405  114.5978  278.0597 H         1 B6H         0.0778
     44 H9        -12.7281  111.3815  277.7558 H         1 B6H         0.0834
     45 H10       -12.7623  112.0159  279.4360 H         1 B6H         0.0834
     46 H11       -12.2179  109.5503  279.3044 H         1 B6H         0.0563
     47 H12       -10.9373  110.5341  280.0913 H         1 B6H         0.0563
     48 H13       -12.2022  107.9335  277.5378 H         1 B6H         0.0410
     49 H14       -13.6786  104.4908  278.0224 H         1 B6H         0.0573
     50 H15       -13.4422  106.2426  278.3413 H         1 B6H         0.0573
     51 H16       -12.5725  105.0237  279.3335 H         1 B6H         0.0573
     52 H17        -8.1280  108.7399  278.6424 H         1 B6H         0.0398
     53 H18        -7.6210  106.3202  278.5609 H         1 B6H         0.0478
     54 H19        -9.9470  103.7942  278.5370 H         1 B6H         0.2184
     55 H20        -6.1075  100.8487  275.2539 H         1 B6H         0.1744
     56 H21        -7.2376  100.3501  276.5411 H         1 B6H         0.1744
     57 H22        -3.4151  104.3756  274.2299 H         1 B6H         0.0626
     58 H23        -2.7400  106.4134  273.0049 H         1 B6H         0.0517
     59 H24        -7.4838  105.0112  273.0296 H         1 B6H         0.0626
     60 H25        -6.8106  107.0563  271.8197 H         1 B6H         0.0517
     61 H26        -3.6474  107.8895  270.9463 H         1 B6H         0.2281
     62 H27        -4.5144  110.0702  270.0425 H         1 B6H         0.0505
     63 H28        -3.2026  110.3419  271.2392 H         1 B6H         0.0505
     64 H29        -4.2588  112.4355  270.5734 H         1 B6H         0.0254
     65 H30        -4.5468  112.0979  272.3139 H         1 B6H         0.0254
     66 H31        -5.8586  111.8261  271.1172 H         1 B6H         0.0254
@<TRIPOS>BOND
     1    1    2 1  
     2    1    7 1  
     3    2    3 1  
     4    3    4 1  
     5    3    5 1  
     6    5    6 1  
     7    6    7 1  
     8    7    8 1  
     9    8    9 ar 
    10    8   13 ar 
    11    9   10 ar 
    12   10   11 1  
    13   10   15 ar 
    14   11   12 1  
    15   13   14 ar 
    16   14   15 ar 
    17   15   16 1  
    18   16   17 1  
    19   17   18 1  
    20   17   19 2  
    21   18   22 1  
    22   19   20 1  
    23   20   21 1  
    24   20   22 2  
    25   22   23 1  
    26   23   24 2  
    27   23   25 1  
    28   25   26 ar 
    29   25   28 ar 
    30   26   27 ar 
    31   27   30 ar 
    32   28   29 ar 
    33   29   30 ar 
    34   30   31 1  
    35   31   32 am 
    36   32   33 2  
    37   32   34 1  
    38   34   35 1  
    39    1   36 1  
    40    1   37 1  
    41    2   38 1  
    42    2   39 1  
    43    3   40 1  
    44    4   41 1  
    45    4   42 1  
    46    4   43 1  
    47    5   44 1  
    48    5   45 1  
    49    6   46 1  
    50    6   47 1  
    51    9   48 1  
    52   12   49 1  
    53   12   50 1  
    54   12   51 1  
    55   13   52 1  
    56   14   53 1  
    57   16   54 1  
    58   21   55 1  
    59   21   56 1  
    60   26   57 1  
    61   27   58 1  
    62   28   59 1  
    63   29   60 1  
    64   31   61 1  
    65   34   62 1  
    66   34   63 1  
    67   35   64 1  
    68   35   65 1  
    69   35   66 1  
@<TRIPOS>SUBSTRUCTURE
     1 B6H         1

