### 
### Created by X-TOOL on Wed Jan  1 15:39:38 2020
### 

@<TRIPOS>MOLECULE
6eis_ligand
   43    47     1     0     0
SMALL
GAST_HUCK


@<TRIPOS>ATOM
      1 FBC         0.3380  -29.7920  -12.8260 F         1 B6N        -0.2449
      2 CBB         1.2230  -29.0400  -13.4700 C.3       1 B6N         0.3532
      3 FBD         0.9200  -29.0450  -14.7550 F         1 B6N        -0.2449
      4 FBE         2.4380  -29.5470  -13.3080 F         1 B6N        -0.2449
      5 CAD         1.1740  -27.7240  -12.9940 C.ar      1 B6N         0.0668
      6 CAC         0.7250  -26.7300  -13.8560 C.ar      1 B6N        -0.0099
      7 CAB         0.6580  -25.4090  -13.4330 C.ar      1 B6N         0.1484
      8 FAA         0.2190  -24.4490  -14.2850 F         1 B6N        -0.1825
      9 CAG         1.0390  -25.0750  -12.1390 C.ar      1 B6N        -0.0073
     10 CAF         1.4860  -26.0640  -11.2700 C.ar      1 B6N         0.0031
     11 CAE         1.5630  -27.3890  -11.6920 C.ar      1 B6N         0.1424
     12 NAH         2.0000  -28.3350  -10.8390 N.am      1 B6N        -0.1296
     13 CAV         3.3120  -28.7060  -10.6510 C.ar      1 B6N         0.1564
     14 CAU         4.4540  -28.1670  -11.3140 C.ar      1 B6N         0.0451
     15 CAT         4.4060  -27.1530  -12.2770 C.ar      1 B6N        -0.0452
     16 CAI         1.0020  -28.9200  -10.1480 C.2       1 B6N         0.2562
     17 OAJ        -0.1560  -28.5550  -10.3520 O.2       1 B6N        -0.3787
     18 CAK         1.2310  -29.9230   -9.2240 C.2       1 B6N         0.0185
     19 CAL         2.5310  -30.3260   -9.0060 C.2       1 B6N        -0.0391
     20 CAM         3.5570  -29.7210   -9.7150 C.ar      1 B6N         0.0468
     21 CAN         4.8390  -30.1730   -9.4500 C.ar      1 B6N         0.0079
     22 NAO         5.9220  -29.6210  -10.1120 N.ar      1 B6N        -0.3121
     23 CAP         5.7330  -28.6550  -11.0120 C.ar      1 B6N         0.0363
     24 CAQ         6.8700  -28.1500  -11.6370 C.ar      1 B6N        -0.0455
     25 CAR         6.7850  -27.1440  -12.5850 C.ar      1 B6N        -0.0562
     26 CAS         5.5350  -26.6430  -12.9070 C.ar      1 B6N        -0.0302
     27 CAW         5.4260  -25.6730  -13.8120 C.2       1 B6N         0.0021
     28 CAX         4.3000  -25.2380  -14.3540 C.2       1 B6N         0.0063
     29 NAY         4.6540  -24.2640  -15.1950 N.2       1 B6N        -0.2155
     30 NAZ         5.8920  -24.1100  -15.1670 N.pl3     1 B6N        -0.2163
     31 CBA         6.4350  -24.9740  -14.3080 C.2       1 B6N         0.0616
     32 H1          0.4251  -26.9879  -14.8653 H         1 B6N         0.0752
     33 H2          0.9877  -24.0442  -11.8074 H         1 B6N         0.0805
     34 H3          1.7761  -25.8024  -10.2588 H         1 B6N         0.0637
     35 H4          3.4386  -26.7442  -12.5455 H         1 B6N         0.0603
     36 H5          0.4055  -30.3827   -8.6825 H         1 B6N         0.0602
     37 H6          2.7497  -31.1116   -8.2842 H         1 B6N         0.0721
     38 H7          4.9947  -30.9611   -8.7222 H         1 B6N         0.0834
     39 H8          7.8421  -28.5526  -11.3761 H         1 B6N         0.0622
     40 H9          7.6772  -26.7574  -13.0642 H         1 B6N         0.0627
     41 H10         3.2924  -25.6000  -14.1549 H         1 B6N         0.0675
     42 H11         6.4158  -23.4195  -15.7235 H         1 B6N         0.2600
     43 H12         7.4910  -25.0821  -14.0648 H         1 B6N         0.1039
@<TRIPOS>BOND
     1    1    2 1  
     2    2    3 1  
     3    2    4 1  
     4    2    5 1  
     5    5    6 ar 
     6    5   11 ar 
     7    6    7 ar 
     8    7    8 1  
     9    7    9 ar 
    10    9   10 ar 
    11   10   11 ar 
    12   11   12 1  
    13   12   13 1  
    14   12   16 am 
    15   13   14 ar 
    16   13   20 ar 
    17   14   15 ar 
    18   14   23 ar 
    19   15   26 ar 
    20   16   17 2  
    21   16   18 1  
    22   18   19 2  
    23   19   20 1  
    24   20   21 ar 
    25   21   22 ar 
    26   22   23 ar 
    27   23   24 ar 
    28   24   25 ar 
    29   25   26 ar 
    30   26   27 1  
    31   27   28 1  
    32   27   31 2  
    33   28   29 2  
    34   29   30 1  
    35   30   31 1  
    36    6   32 1  
    37    9   33 1  
    38   10   34 1  
    39   15   35 1  
    40   18   36 1  
    41   19   37 1  
    42   21   38 1  
    43   24   39 1  
    44   25   40 1  
    45   28   41 1  
    46   30   42 1  
    47   31   43 1  
@<TRIPOS>SUBSTRUCTURE
     1 B6N         1

