### 
### Created by X-TOOL on Wed Jan  1 15:39:38 2020
### 

@<TRIPOS>MOLECULE
6eiz_ligand
   42    41     1     0     0
SMALL
GAST_HUCK


@<TRIPOS>ATOM
      1 C1         78.0440  389.5600  117.4750 C.3       1 FOH        -0.0406
      2 C2         77.4490  390.8830  117.9180 C.2       1 FOH        -0.0870
      3 C3         75.9890  390.9470  118.1880 C.3       1 FOH        -0.0406
      4 C4         78.0840  392.0450  117.7030 C.2       1 FOH        -0.1074
      5 C5         77.3100  393.3170  117.8900 C.3       1 FOH        -0.0388
      6 C6         78.2580  394.5120  118.1420 C.3       1 FOH        -0.0254
      7 C7         77.3900  395.7250  118.2800 C.2       1 FOH        -0.0827
      8 C8         75.9250  395.4740  118.3550 C.3       1 FOH        -0.0402
      9 C9         77.9220  396.9380  118.4920 C.2       1 FOH        -0.1070
     10 C10        77.1060  398.1840  118.6640 C.3       1 FOH        -0.0388
     11 C11        78.0430  399.4550  118.8380 C.3       1 FOH        -0.0253
     12 C12        77.2250  400.7260  118.8010 C.2       1 FOH        -0.0807
     13 C13        75.9140  400.6010  118.1400 C.3       1 FOH        -0.0402
     14 C14        77.7150  401.9410  119.1490 C.2       1 FOH        -0.0839
     15 C15        76.8620  403.1970  118.9610 C.3       1 FOH         0.0512
     16 O1         77.6180  404.3640  119.3210 O.3       1 FOH        -0.3902
     17 H1         77.3622  388.7414  117.7488 H         1 FOH         0.0375
     18 H2         79.0145  389.4101  117.9706 H         1 FOH         0.0375
     19 H3         78.1867  389.5690  116.3843 H         1 FOH         0.0375
     20 H4         75.7177  391.9672  118.4971 H         1 FOH         0.0375
     21 H5         75.7333  390.2404  118.9913 H         1 FOH         0.0375
     22 H6         75.4353  390.6809  117.2755 H         1 FOH         0.0375
     23 H7         79.1303  392.0646  117.4017 H         1 FOH         0.0244
     24 H8         76.6364  393.2045  118.7523 H         1 FOH         0.0361
     25 H9         76.7170  393.5134  116.9846 H         1 FOH         0.0361
     26 H10        78.9486  394.6339  117.2946 H         1 FOH         0.0425
     27 H11        78.8347  394.3510  119.0648 H         1 FOH         0.0425
     28 H12        75.3935  396.4319  118.4543 H         1 FOH         0.0375
     29 H13        75.7056  394.8409  119.2274 H         1 FOH         0.0375
     30 H14        75.5930  394.9638  117.4388 H         1 FOH         0.0375
     31 H15        79.0066  397.0224  118.5419 H         1 FOH         0.0244
     32 H16        76.4719  398.0790  119.5567 H         1 FOH         0.0361
     33 H17        76.4705  398.3237  117.7771 H         1 FOH         0.0361
     34 H18        78.7803  399.4754  118.0220 H         1 FOH         0.0425
     35 H19        78.5662  399.3894  119.8034 H         1 FOH         0.0425
     36 H20        75.3975  401.5719  118.1635 H         1 FOH         0.0375
     37 H21        75.3074  399.8502  118.6676 H         1 FOH         0.0375
     38 H22        76.0583  400.2877  117.0955 H         1 FOH         0.0375
     39 H23        78.7186  402.0233  119.5636 H         1 FOH         0.0264
     40 H24        75.9694  403.1300  119.6004 H         1 FOH         0.0632
     41 H25        76.5538  403.2735  117.9078 H         1 FOH         0.0632
     42 H26        77.0802  405.1378  119.2009 H         1 FOH         0.2115
@<TRIPOS>BOND
     1    1    2 1  
     2    2    3 1  
     3    2    4 2  
     4    4    5 1  
     5    5    6 1  
     6    6    7 1  
     7    7    8 1  
     8    7    9 2  
     9    9   10 1  
    10   10   11 1  
    11   11   12 1  
    12   12   13 1  
    13   12   14 2  
    14   14   15 1  
    15   15   16 1  
    16    1   17 1  
    17    1   18 1  
    18    1   19 1  
    19    3   20 1  
    20    3   21 1  
    21    3   22 1  
    22    4   23 1  
    23    5   24 1  
    24    5   25 1  
    25    6   26 1  
    26    6   27 1  
    27    8   28 1  
    28    8   29 1  
    29    8   30 1  
    30    9   31 1  
    31   10   32 1  
    32   10   33 1  
    33   11   34 1  
    34   11   35 1  
    35   13   36 1  
    36   13   37 1  
    37   13   38 1  
    38   14   39 1  
    39   15   40 1  
    40   15   41 1  
    41   16   42 1  
@<TRIPOS>SUBSTRUCTURE
     1 FOH         1

