### 
### Created by X-TOOL on Wed Jan  1 15:39:37 2020
### 

@<TRIPOS>MOLECULE
6ej2_ligand
   55    59     1     0     0
SMALL
GAST_HUCK


@<TRIPOS>ATOM
      1 C1        -15.1560  -32.8610  -11.6810 C.3       1 B7E         0.0368
      2 C3        -16.2090  -34.9720  -11.0180 C.3       1 B7E         0.0609
      3 C7        -17.6330  -37.3460   -9.8130 C.3       1 B7E         0.0090
      4 C8        -16.5190  -37.4990  -10.8740 C.3       1 B7E        -0.0435
      5 C9        -16.3570  -36.2830  -11.8170 C.3       1 B7E        -0.0175
      6 C11       -15.1250  -36.5280  -12.7070 C.3       1 B7E        -0.0601
      7 C12       -19.0410  -37.4580  -10.4720 C.3       1 B7E        -0.0006
      8 C13       -19.9420  -38.0220   -9.3810 C.ar      1 B7E        -0.0106
      9 C14       -21.3360  -37.9960   -9.2540 C.ar      1 B7E        -0.0266
     10 C15       -21.9550  -38.5920   -8.1580 C.ar      1 B7E        -0.0295
     11 C16       -21.1740  -39.2040   -7.1550 C.ar      1 B7E         0.0175
     12 C19       -17.6970  -38.5280   -8.7970 C.3       1 B7E         0.1291
     13 C20       -17.1810  -39.9070   -9.2880 C.3       1 B7E         0.0708
     14 C22       -16.2460  -39.3730   -7.2910 C.cat     1 B7E         0.3447
     15 N23       -16.8790  -38.2910   -7.5990 N.pl3     1 B7E        -0.2662
     16 N29       -23.4890  -41.3260   -5.1160 N.ar      1 B7E        -0.2632
     17 C30       -23.0080  -40.6430   -6.1540 C.ar      1 B7E         0.0360
     18 O2        -16.1820  -33.8410  -11.9160 O.3       1 B7E        -0.3795
     19 C5        -17.3830  -34.7710  -10.0360 C.3       1 B7E        -0.0263
     20 C6        -17.5240  -35.9800   -9.0880 C.3       1 B7E        -0.0460
     21 C17       -19.7710  -39.2380   -7.3000 C.ar      1 B7E        -0.0305
     22 C18       -19.1550  -38.6510   -8.4080 C.ar      1 B7E         0.0045
     23 O21       -16.4590  -40.4000   -8.1290 O.3       1 B7E        -0.3268
     24 N24       -15.4240  -39.4470   -6.2010 N.pl3     1 B7E        -0.2513
     25 C25       -21.8080  -39.9170   -6.0060 C.ar      1 B7E         0.0377
     26 C26       -21.1620  -40.0180   -4.7590 C.ar      1 B7E         0.0360
     27 N27       -21.6970  -40.7350   -3.7770 N.ar      1 B7E        -0.2632
     28 C28       -22.8510  -41.3650   -3.9520 C.ar      1 B7E         0.0889
     29 H1        -15.2408  -32.0557  -12.4255 H         1 B7E         0.0524
     30 H2        -14.1679  -33.3368  -11.7665 H         1 B7E         0.0524
     31 H3        -15.2746  -32.4409  -10.6713 H         1 B7E         0.0524
     32 H4        -15.2675  -35.0101  -10.4505 H         1 B7E         0.0598
     33 H5        -16.7493  -38.3816  -11.4887 H         1 B7E         0.0269
     34 H6        -15.5649  -37.6561  -10.3497 H         1 B7E         0.0269
     35 H7        -17.2499  -36.2028  -12.4544 H         1 B7E         0.0323
     36 H8        -14.9890  -35.6747  -13.3878 H         1 B7E         0.0233
     37 H9        -15.2739  -37.4458  -13.2947 H         1 B7E         0.0233
     38 H10       -14.2318  -36.6384  -12.0745 H         1 B7E         0.0233
     39 H11       -19.0102  -38.1365  -11.3373 H         1 B7E         0.0508
     40 H12       -19.3970  -36.4684  -10.7944 H         1 B7E         0.0508
     41 H13       -21.9372  -37.5090  -10.0133 H         1 B7E         0.0643
     42 H14       -23.0359  -38.5857   -8.0756 H         1 B7E         0.0855
     43 H15       -16.5135  -39.7964  -10.1553 H         1 B7E         0.0496
     44 H16       -18.0155  -40.5739   -9.5503 H         1 B7E         0.0496
     45 H17       -16.8201  -37.4002   -7.0852 H         1 B7E         0.3116
     46 H18       -23.5334  -40.6453   -7.1021 H         1 B7E         0.0937
     47 H19       -18.3147  -34.6524  -10.6086 H         1 B7E         0.0290
     48 H20       -17.2016  -33.8651   -9.4390 H         1 B7E         0.0290
     49 H21       -16.6425  -36.0076   -8.4306 H         1 B7E         0.0267
     50 H22       -18.4301  -35.8384   -8.4807 H         1 B7E         0.0267
     51 H23       -19.1650  -39.7244   -6.5442 H         1 B7E         0.0839
     52 H24       -14.9339  -40.3267   -5.9843 H         1 B7E         0.3201
     53 H25       -15.2948  -38.6231   -5.5965 H         1 B7E         0.3201
     54 H26       -20.2199  -39.5062   -4.5989 H         1 B7E         0.0937
     55 H27       -23.2819  -41.9228   -3.1285 H         1 B7E         0.1116
@<TRIPOS>BOND
     1   18    1 1  
     2    5    2 1  
     3    2   18 1  
     4    2   19 1  
     5    3    4 1  
     6    7    3 1  
     7   12    3 1  
     8    3   20 1  
     9    4    5 1  
    10    5    6 1  
    11    8    7 1  
    12    9    8 ar 
    13    8   22 ar 
    14   10    9 ar 
    15   11   10 ar 
    16   11   21 ar 
    17   25   11 1  
    18   12   13 1  
    19   12   15 1  
    20   22   12 1  
    21   13   23 1  
    22   15   14 ar 
    23   14   23 1  
    24   14   24 ar 
    25   17   16 ar 
    26   16   28 ar 
    27   17   25 ar 
    28   19   20 1  
    29   21   22 ar 
    30   25   26 ar 
    31   26   27 ar 
    32   27   28 ar 
    33    1   29 1  
    34    1   30 1  
    35    1   31 1  
    36    2   32 1  
    37    4   33 1  
    38    4   34 1  
    39    5   35 1  
    40    6   36 1  
    41    6   37 1  
    42    6   38 1  
    43    7   39 1  
    44    7   40 1  
    45    9   41 1  
    46   10   42 1  
    47   13   43 1  
    48   13   44 1  
    49   15   45 1  
    50   17   46 1  
    51   19   47 1  
    52   19   48 1  
    53   20   49 1  
    54   20   50 1  
    55   21   51 1  
    56   24   52 1  
    57   24   53 1  
    58   26   54 1  
    59   28   55 1  
@<TRIPOS>SUBSTRUCTURE
     1 B7E         1

