### 
### Created by X-TOOL on Wed Jan  1 15:39:37 2020
### 

@<TRIPOS>MOLECULE
6ej3_ligand
   56    60     1     0     0
SMALL
GAST_HUCK


@<TRIPOS>ATOM
      1 C1        -21.7250  -39.4000   -8.2570 C.ar      1 B7T        -0.0305
      2 C2        -21.1710  -38.6880   -9.3040 C.ar      1 B7T        -0.0270
      3 C3        -19.5730  -40.1130   -7.5390 C.ar      1 B7T        -0.0317
      4 C7        -20.9450  -40.1180   -7.3610 C.ar      1 B7T         0.0103
      5 C8        -21.5310  -40.9230   -6.3040 C.ar      1 B7T         0.0057
      6 C9        -19.8040  -38.7090   -9.4650 C.ar      1 B7T        -0.0109
      7 C10       -19.0160  -39.4110   -8.5940 C.ar      1 B7T         0.0040
      8 C11       -21.4160  -42.0160   -4.1680 C.ar      1 B7T        -0.0194
      9 C12       -16.0280  -40.0750   -7.5560 C.cat     1 B7T         0.3447
     10 C13       -19.0050  -38.0340  -10.5170 C.3       1 B7T        -0.0008
     11 C14       -16.2220  -37.0150  -11.9260 C.3       1 B7T        -0.0265
     12 C15       -17.0690  -35.5520  -10.0410 C.3       1 B7T        -0.0265
     13 C16       -16.5380  -38.2630  -11.0950 C.3       1 B7T        -0.0461
     14 C19       -15.9650  -35.7720  -11.0710 C.3       1 B7T         0.0583
     15 C20       -17.5650  -39.2880   -8.9510 C.3       1 B7T         0.1290
     16 C21       -17.5700  -38.1000   -9.9560 C.3       1 B7T         0.0086
     17 C22       -20.7320  -42.2770   -2.8740 C.3       1 B7T        -0.0253
     18 N25       -16.7450  -39.0200   -7.7670 N.pl3     1 B7T        -0.2663
     19 N26       -15.1190  -40.2570   -6.5310 N.pl3     1 B7T        -0.2513
     20 O28       -15.9830  -34.6550  -11.9520 O.3       1 B7T        -0.3798
     21 C4        -20.8970  -41.1300   -5.0910 C.ar      1 B7T        -0.0349
     22 C5        -22.7060  -41.6280   -6.5000 C.ar      1 B7T         0.0108
     23 C6        -22.6050  -42.6450   -4.4710 C.ar      1 B7T         0.0109
     24 C17       -17.2840  -36.7940   -9.1850 C.3       1 B7T        -0.0461
     25 C18       -17.0530  -40.6420   -9.4570 C.3       1 B7T         0.0707
     26 C23       -14.9010  -33.7630  -11.7110 C.3       1 B7T         0.0368
     27 N24       -23.2750  -42.4590   -5.6140 N.ar      1 B7T        -0.3049
     28 O27       -16.1730  -41.1160   -8.4310 O.3       1 B7T        -0.3269
     29 H1        -22.8017  -39.3977   -8.1317 H         1 B7T         0.0852
     30 H2        -21.7997  -38.1248   -9.9842 H         1 B7T         0.0642
     31 H3        -18.9349  -40.6582   -6.8530 H         1 B7T         0.0834
     32 H4        -19.3293  -36.9917  -10.6524 H         1 B7T         0.0507
     33 H5        -19.0801  -38.5689  -11.4752 H         1 B7T         0.0507
     34 H6        -17.0747  -36.8121  -12.5907 H         1 B7T         0.0290
     35 H7        -15.3252  -37.2152  -12.5307 H         1 B7T         0.0290
     36 H8        -18.0056  -35.3120  -10.5655 H         1 B7T         0.0290
     37 H9        -16.7883  -34.7118   -9.3889 H         1 B7T         0.0290
     38 H10       -15.5965  -38.6093  -10.6437 H         1 B7T         0.0267
     39 H11       -16.9199  -39.0323  -11.7822 H         1 B7T         0.0267
     40 H12       -14.9921  -35.8581  -10.5650 H         1 B7T         0.0596
     41 H13       -19.8065  -41.6848   -2.8225 H         1 B7T         0.0405
     42 H14       -20.4875  -43.3468   -2.7977 H         1 B7T         0.0405
     43 H15       -21.3959  -41.9925   -2.0444 H         1 B7T         0.0405
     44 H16       -16.7405  -38.1547   -7.2083 H         1 B7T         0.3116
     45 H17       -14.5981  -41.1424   -6.4557 H         1 B7T         0.3201
     46 H18       -14.9624  -39.5072   -5.8424 H         1 B7T         0.3201
     47 H19       -19.9842  -40.5913   -4.8636 H         1 B7T         0.0669
     48 H20       -23.2095  -41.4973   -7.4510 H         1 B7T         0.0766
     49 H21       -23.0210  -43.3298   -3.7409 H         1 B7T         0.0753
     50 H22       -18.1381  -36.6013   -8.5192 H         1 B7T         0.0267
     51 H23       -16.3771  -36.9497   -8.5823 H         1 B7T         0.0267
     52 H24       -16.5095  -40.5193  -10.4054 H         1 B7T         0.0496
     53 H25       -17.8895  -41.3415   -9.6016 H         1 B7T         0.0496
     54 H26       -14.9581  -32.9190  -12.4141 H         1 B7T         0.0524
     55 H27       -13.9487  -34.2948  -11.8531 H         1 B7T         0.0524
     56 H28       -14.9598  -33.3855  -10.6795 H         1 B7T         0.0524
@<TRIPOS>BOND
     1    2    1 ar 
     2    4    1 ar 
     3    6    2 ar 
     4    3    4 ar 
     5    7    3 ar 
     6    4    5 1  
     7    5   21 ar 
     8    5   22 ar 
     9    7    6 ar 
    10   10    6 1  
    11   15    7 1  
    12    8   17 1  
    13   21    8 ar 
    14    8   23 ar 
    15   18    9 ar 
    16    9   19 ar 
    17    9   28 1  
    18   16   10 1  
    19   13   11 1  
    20   11   14 1  
    21   14   12 1  
    22   12   24 1  
    23   16   13 1  
    24   14   20 1  
    25   15   16 1  
    26   15   18 1  
    27   15   25 1  
    28   16   24 1  
    29   20   26 1  
    30   22   27 ar 
    31   23   27 ar 
    32   25   28 1  
    33    1   29 1  
    34    2   30 1  
    35    3   31 1  
    36   10   32 1  
    37   10   33 1  
    38   11   34 1  
    39   11   35 1  
    40   12   36 1  
    41   12   37 1  
    42   13   38 1  
    43   13   39 1  
    44   14   40 1  
    45   17   41 1  
    46   17   42 1  
    47   17   43 1  
    48   18   44 1  
    49   19   45 1  
    50   19   46 1  
    51   21   47 1  
    52   22   48 1  
    53   23   49 1  
    54   24   50 1  
    55   24   51 1  
    56   25   52 1  
    57   25   53 1  
    58   26   54 1  
    59   26   55 1  
    60   26   56 1  
@<TRIPOS>SUBSTRUCTURE
     1 B7T         1

