### 
### Created by X-TOOL on Wed Jan  1 15:39:38 2020
### 

@<TRIPOS>MOLECULE
6ej4_ligand
   36    39     1     0     0
SMALL
GAST_HUCK


@<TRIPOS>ATOM
      1 CAC         4.1160   31.9770    8.9870 C.ar      1 B7W        -0.0386
      2 CAB         2.8740   32.5080    8.6270 C.ar      1 B7W         0.0347
      3 NAA         2.7600   33.8020    8.3470 N.pl3     1 B7W        -0.3372
      4 CAG         1.7490   31.6860    8.5620 C.ar      1 B7W        -0.0451
      5 CAF         1.8670   30.3280    8.8530 C.ar      1 B7W        -0.0735
      6 CAE         3.1090   29.7980    9.2060 C.ar      1 B7W        -0.0682
      7 CAD         4.2460   30.6140    9.2880 C.ar      1 B7W        -0.0307
      8 CAH         5.4860   30.0530    9.6330 C.ar      1 B7W        -0.0088
      9 CAP         5.6250   29.1240   10.6720 C.ar      1 B7W        -0.0455
     10 CAO         6.8230   28.5850   10.9710 C.ar      1 B7W         0.0147
     11 CAI         6.6340   30.3870    8.9190 C.ar      1 B7W         0.0035
     12 NAJ         7.8600   29.8050    9.2710 N.ar      1 B7W        -0.2828
     13 CAK         7.9230   28.9220   10.2790 C.ar      1 B7W         0.1414
     14 NAL         8.9610   28.2520   10.7730 N.pl3     1 B7W        -0.2574
     15 CAM         8.5300   27.4930   11.7730 C.2       1 B7W         0.0472
     16 CAN         7.2240   27.7010   11.8910 C.2       1 B7W         0.0037
     17 CAQ         6.4670   27.0920   12.8090 C.ar      1 B7W        -0.0109
     18 CAV         5.3140   26.4000   12.4360 C.ar      1 B7W        -0.0449
     19 CAU         4.5180   25.7590   13.3840 C.ar      1 B7W        -0.0410
     20 CAT         4.8740   25.7930   14.7280 C.ar      1 B7W         0.0043
     21 NAS         6.0380   26.4800   15.1190 N.ar      1 B7W        -0.3043
     22 CAR         6.8340   27.1290   14.1560 C.ar      1 B7W         0.0087
     23 H1          4.9847   32.6237    9.0337 H         1 B7W         0.0509
     24 H2          1.8447   34.1928    8.0818 H         1 B7W         0.1717
     25 H3          3.5870   34.4142    8.3952 H         1 B7W         0.1717
     26 H4          0.7866   32.1017    8.2862 H         1 B7W         0.0512
     27 H5          0.9958   29.6847    8.8052 H         1 B7W         0.0582
     28 H6          3.1958   28.7389    9.4201 H         1 B7W         0.0507
     29 H7          4.7526   28.8334   11.2461 H         1 B7W         0.0682
     30 H8          6.5801   31.0918    8.0971 H         1 B7W         0.0762
     31 H9          9.9328   28.3120   10.4369 H         1 B7W         0.2352
     32 H10         9.1351   26.8241   12.3832 H         1 B7W         0.1056
     33 H11         5.0322   26.3602   11.3900 H         1 B7W         0.0681
     34 H12         3.6217   25.2342   13.0737 H         1 B7W         0.0690
     35 H13         4.2595   25.2941   15.4686 H         1 B7W         0.0766
     36 H14         7.7308   27.6568   14.4597 H         1 B7W         0.0772
@<TRIPOS>BOND
     1    1    2 ar 
     2    1    7 ar 
     3    2    3 1  
     4    2    4 ar 
     5    4    5 ar 
     6    5    6 ar 
     7    6    7 ar 
     8    7    8 1  
     9    8    9 ar 
    10    8   11 ar 
    11    9   10 ar 
    12   10   13 ar 
    13   10   16 1  
    14   11   12 ar 
    15   12   13 ar 
    16   13   14 1  
    17   14   15 1  
    18   15   16 2  
    19   16   17 1  
    20   17   18 ar 
    21   17   22 ar 
    22   18   19 ar 
    23   19   20 ar 
    24   20   21 ar 
    25   21   22 ar 
    26    1   23 1  
    27    3   24 1  
    28    3   25 1  
    29    4   26 1  
    30    5   27 1  
    31    6   28 1  
    32    9   29 1  
    33   11   30 1  
    34   14   31 1  
    35   15   32 1  
    36   18   33 1  
    37   19   34 1  
    38   20   35 1  
    39   22   36 1  
@<TRIPOS>SUBSTRUCTURE
     1 B7W         1

