### 
### Created by X-TOOL on Wed Jan  1 15:39:36 2020
### 

@<TRIPOS>MOLECULE
6ek3_ligand
   31    32     1     0     0
SMALL
GAST_HUCK


@<TRIPOS>ATOM
      1 CAF       -33.3580   15.5200  168.1180 C.ar      1 OUL        -0.0220
      2 CAE       -34.4680   16.2350  167.6390 C.ar      1 OUL        -0.0494
      3 CAD       -35.7390   16.0560  168.2070 C.ar      1 OUL         0.0389
      4 CAB       -36.8420   16.7900  167.6960 C.2       1 OUL         0.1947
      5 OAC       -36.6850   17.6810  166.8530 O.2       1 OUL        -0.3897
      6 NAA       -38.0540   16.3640  168.0640 N.am      1 OUL        -0.3016
      7 CAS       -35.8960   15.1410  169.2540 C.ar      1 OUL        -0.0494
      8 CAR       -34.7920   14.4210  169.7410 C.ar      1 OUL        -0.0220
      9 CAG       -33.5110   14.6160  169.1820 C.ar      1 OUL         0.1229
     10 OAH       -32.4360   13.8410  169.6280 O.3       1 OUL        -0.2511
     11 CAI       -31.3270   14.2770  170.2810 C.ar      1 OUL         0.1229
     12 CAJ       -31.4290   15.2720  171.2320 C.ar      1 OUL        -0.0220
     13 CAK       -30.3110   15.6730  171.9380 C.ar      1 OUL        -0.0494
     14 CAL       -29.0700   15.0870  171.7060 C.ar      1 OUL         0.0389
     15 CAO       -27.9180   15.5440  172.3880 C.2       1 OUL         0.1947
     16 OAQ       -26.8120   15.5120  171.8390 O.2       1 OUL        -0.3897
     17 NAP       -28.0690   16.0260  173.6170 N.am      1 OUL        -0.3016
     18 CAM       -28.9780   14.0740  170.7420 C.ar      1 OUL        -0.0494
     19 CAN       -30.1140   13.6380  170.0210 C.ar      1 OUL        -0.0220
     20 H1        -32.3833   15.6659  167.6665 H         1 OUL         0.0567
     21 H2        -34.3415   16.9340  166.8202 H         1 OUL         0.0644
     22 H3        -38.8713   16.8388  167.7375 H         1 OUL         0.1805
     23 H4        -38.1436   15.5705  168.6659 H         1 OUL         0.1805
     24 H5        -36.8754   14.9867  169.6921 H         1 OUL         0.0644
     25 H6        -34.9250   13.7121  170.5502 H         1 OUL         0.0567
     26 H7        -32.3877   15.7396  171.4253 H         1 OUL         0.0567
     27 H8        -30.4017   16.4551  172.6831 H         1 OUL         0.0644
     28 H9        -27.2740   16.3569  174.1255 H         1 OUL         0.1805
     29 H10       -28.9776   16.0578  174.0335 H         1 OUL         0.1805
     30 H11       -28.0160   13.6150  170.5448 H         1 OUL         0.0644
     31 H12       -30.0450   12.8373  169.2936 H         1 OUL         0.0567
@<TRIPOS>BOND
     1    1    2 ar 
     2    1    9 ar 
     3    2    3 ar 
     4    3    4 1  
     5    3    7 ar 
     6    4    5 2  
     7    4    6 am 
     8    7    8 ar 
     9    8    9 ar 
    10    9   10 1  
    11   10   11 1  
    12   11   12 ar 
    13   11   19 ar 
    14   12   13 ar 
    15   13   14 ar 
    16   14   15 1  
    17   14   18 ar 
    18   15   16 2  
    19   15   17 am 
    20   18   19 ar 
    21    1   20 1  
    22    2   21 1  
    23    6   22 1  
    24    6   23 1  
    25    7   24 1  
    26    8   25 1  
    27   12   26 1  
    28   13   27 1  
    29   17   28 1  
    30   17   29 1  
    31   18   30 1  
    32   19   31 1  
@<TRIPOS>SUBSTRUCTURE
     1 OUL         1

