### 
### Created by X-TOOL on Wed Jan  1 15:39:37 2020
### 

@<TRIPOS>MOLECULE
6ekd_ligand
   50    53     1     0     0
SMALL
GAST_HUCK


@<TRIPOS>ATOM
      1 C17         8.6920   32.4010   13.2140 C.ar      1 B9K        -0.0498
      2 C20         6.8620   33.3120   15.1120 C.ar      1 B9K        -0.0533
      3 C21         6.9540   33.9370   13.8800 C.ar      1 B9K        -0.0498
      4 C24         6.8290   31.5920   19.1870 C.3       1 B9K         0.0669
      5 C26         8.7720   30.4250   18.7280 C.3       1 B9K         0.0669
      6 C01        11.2230   35.3610    9.4460 C.ar      1 B9K        -0.0533
      7 C02         9.9350   35.4350    8.9940 C.ar      1 B9K        -0.0143
      8 N03         8.9330   35.0500    9.7610 N.ar      1 B9K        -0.2956
      9 C04         9.1080   34.5740   10.9720 C.ar      1 B9K         0.1161
     10 C05        10.3920   34.4860   11.5070 C.ar      1 B9K        -0.0203
     11 C06        11.4790   34.9020   10.7260 C.ar      1 B9K        -0.0332
     12 C07        12.7730   34.7860   11.2390 C.2       1 B9K         0.0192
     13 N08        13.1200   33.9110   12.1790 N.2       1 B9K        -0.3266
     14 C09        14.3980   34.0590   12.4230 C.2       1 B9K         0.1744
     15 N10        14.9120   34.9800   11.6520 N.pl3     1 B9K        -0.2388
     16 C11        13.9500   35.4620   10.8900 C.2       1 B9K         0.0677
     17 C12        14.1770   36.5730    9.8730 C.3       1 B9K        -0.0036
     18 S13        15.3090   33.1090   13.6310 S.3       1 B9K        -0.0535
     19 C14        17.0600   33.1810   13.1680 C.3       1 B9K         0.0014
     20 N15         7.8950   34.1820   11.6730 N.pl3     1 B9K        -0.2701
     21 C16         7.8700   33.4910   12.9360 C.ar      1 B9K         0.0483
     22 C18         8.6240   31.7770   14.4530 C.ar      1 B9K        -0.0533
     23 C19         7.6980   32.2250   15.4220 C.ar      1 B9K         0.0291
     24 N22         7.6160   31.5710   16.7340 N.pl3     1 B9K        -0.3105
     25 C23         6.8050   32.2280   17.8060 C.3       1 B9K         0.0481
     26 O25         8.1360   31.3160   19.5730 O.3       1 B9K        -0.3759
     27 C27         8.8450   30.9430   17.2850 C.3       1 B9K         0.0481
     28 H1          9.3850   32.0397   12.4629 H         1 B9K         0.0503
     29 H2          6.1412   33.6628   15.8417 H         1 B9K         0.0489
     30 H3          6.3088   34.7775   13.6513 H         1 B9K         0.0503
     31 H4          6.2528   30.6553   19.1643 H         1 B9K         0.0579
     32 H5          6.3758   32.2839   19.9122 H         1 B9K         0.0579
     33 H6          8.2190   29.4742   18.7351 H         1 B9K         0.0579
     34 H7          9.7950   30.2570   19.0958 H         1 B9K         0.0579
     35 H8         12.0423   35.6613    8.8028 H         1 B9K         0.0534
     36 H9          9.7354   35.8129    7.9978 H         1 B9K         0.0751
     37 H10        10.5472   34.1027   12.5090 H         1 B9K         0.0531
     38 H11        15.8979   35.2779   11.6413 H         1 B9K         0.2417
     39 H12        13.2298   36.8020    9.3627 H         1 B9K         0.0434
     40 H13        14.9224   36.2461    9.1331 H         1 B9K         0.0434
     41 H14        14.5426   37.4732   10.3888 H         1 B9K         0.0434
     42 H15        17.6547   32.6048   13.8921 H         1 B9K         0.0371
     43 H16        17.3965   34.2282   13.1680 H         1 B9K         0.0371
     44 H17        17.1914   32.7536   12.1630 H         1 B9K         0.0371
     45 H18         6.9919   34.4148   11.2358 H         1 B9K         0.2083
     46 H19         9.2821   30.9453   14.6770 H         1 B9K         0.0489
     47 H20         7.1705   33.2601   17.9111 H         1 B9K         0.0532
     48 H21         5.7587   32.2423   17.4669 H         1 B9K         0.0532
     49 H22         9.1014   30.0909   16.6384 H         1 B9K         0.0532
     50 H23         9.6494   31.6919   17.2409 H         1 B9K         0.0532
@<TRIPOS>BOND
     1    1   21 ar 
     2   22    1 ar 
     3    2    3 ar 
     4   23    2 ar 
     5    3   21 ar 
     6   25    4 1  
     7    4   26 1  
     8   26    5 1  
     9    5   27 1  
    10    7    6 ar 
    11   11    6 ar 
    12    8    7 ar 
    13    9    8 ar 
    14    9   10 ar 
    15   20    9 1  
    16   10   11 ar 
    17   11   12 1  
    18   12   13 1  
    19   12   16 2  
    20   13   14 2  
    21   15   14 1  
    22   14   18 1  
    23   16   15 1  
    24   16   17 1  
    25   18   19 1  
    26   21   20 1  
    27   23   22 ar 
    28   24   23 1  
    29   24   25 1  
    30   24   27 1  
    31    1   28 1  
    32    2   29 1  
    33    3   30 1  
    34    4   31 1  
    35    4   32 1  
    36    5   33 1  
    37    5   34 1  
    38    6   35 1  
    39    7   36 1  
    40   10   37 1  
    41   15   38 1  
    42   17   39 1  
    43   17   40 1  
    44   17   41 1  
    45   19   42 1  
    46   19   43 1  
    47   19   44 1  
    48   20   45 1  
    49   22   46 1  
    50   25   47 1  
    51   25   48 1  
    52   27   49 1  
    53   27   50 1  
@<TRIPOS>SUBSTRUCTURE
     1 B9K         1

