### 
### Created by X-TOOL on Wed Jan  1 15:39:35 2020
### 

@<TRIPOS>MOLECULE
6ekn_ligand
   52    54     1     0     0
SMALL
GAST_HUCK


@<TRIPOS>ATOM
      1 O32         0.0670  -15.7390    3.9850 O.2       1 B9N        -0.1655
      2 S13         0.3410  -14.3260    4.4130 S.o2      1 B9N         0.0222
      3 O31        -0.7310  -13.7300    5.1380 O.2       1 B9N        -0.1655
      4 C14         0.7640  -13.4930    3.0280 C.ar      1 B9N         0.0965
      5 C19         0.8320  -12.0610    2.8950 C.ar      1 B9N        -0.0019
      6 C20         0.4920  -11.1400    4.0440 C.3       1 B9N         0.0482
      7 C25         1.7220  -10.5390    4.6060 C.2       1 B9N         0.0495
      8 O27         1.6930   -9.9200    5.6890 O.co2     1 B9N        -0.5661
      9 O26         2.7420  -10.6930    4.0000 O.co2     1 B9N        -0.5661
     10 C21        -0.4810  -10.0610    3.6190 C.3       1 B9N        -0.0174
     11 C22        -1.8250  -10.6420    3.2410 C.3       1 B9N         0.0037
     12 C23        -2.8460   -9.6720    2.7080 C.2       1 B9N         0.0351
     13 O30        -2.5620   -8.8580    1.8350 O.co2     1 B9N        -0.5690
     14 O29        -4.0490   -9.6450    3.1230 O.co2     1 B9N        -0.5690
     15 C18         1.2600  -11.5010    1.6550 C.ar      1 B9N        -0.0566
     16 C17         1.6440  -12.3710    0.5530 C.ar      1 B9N        -0.0682
     17 C16         1.5900  -13.7130    0.7630 C.ar      1 B9N        -0.0667
     18 C15         1.1830  -14.2730    1.9550 C.ar      1 B9N        -0.0430
     19 C3          1.6620  -14.3200    5.3730 C.ar      1 B9N         0.0910
     20 C2          1.7530  -13.8530    6.6500 C.ar      1 B9N        -0.0377
     21 C4          2.7770  -15.0640    4.9430 C.ar      1 B9N        -0.0377
     22 C5          3.9530  -15.2530    5.7170 C.ar      1 B9N        -0.0549
     23 C6          3.9670  -14.6750    7.0620 C.ar      1 B9N        -0.0246
     24 C1          2.8170  -14.0690    7.4740 C.ar      1 B9N        -0.0549
     25 C7          5.1190  -14.9710    7.7780 C.ar      1 B9N        -0.0279
     26 C12         4.8560  -15.2440    9.1280 C.ar      1 B9N        -0.0616
     27 C11         5.9310  -15.6670    9.9220 C.ar      1 B9N        -0.0312
     28 C10         7.2010  -15.7690    9.5000 C.ar      1 B9N         0.0926
     29 O28         8.1020  -16.1940   10.4610 O.3       1 B9N        -0.3200
     30 C29         9.2940  -16.4330    9.8760 C.3       1 B9N         0.0599
     31 C9          7.5560  -15.5170    8.1270 C.ar      1 B9N        -0.0312
     32 C8          6.4640  -15.0820    7.3530 C.ar      1 B9N        -0.0616
     33 H1          0.0119  -11.7401    4.8310 H         1 B9N         0.0625
     34 H2         -0.0659   -9.5274    2.7513 H         1 B9N         0.0325
     35 H3         -0.6184   -9.3557    4.4519 H         1 B9N         0.0325
     36 H4         -2.2496  -11.1157    4.1384 H         1 B9N         0.0433
     37 H5         -1.6542  -11.4065    2.4688 H         1 B9N         0.0433
     38 H6          1.2994  -10.4246    1.5329 H         1 B9N         0.0560
     39 H7          1.9614  -11.9637   -0.4001 H         1 B9N         0.0600
     40 H8          1.8808  -14.3741   -0.0453 H         1 B9N         0.0561
     41 H9          1.1896  -15.3520    2.0593 H         1 B9N         0.0619
     42 H10         0.9240  -13.2710    7.0361 H         1 B9N         0.0633
     43 H11         2.7356  -15.5208    3.9608 H         1 B9N         0.0633
     44 H12         4.8034  -15.8016    5.3285 H         1 B9N         0.0609
     45 H13         2.7457  -13.7437    8.5056 H         1 B9N         0.0609
     46 H14         3.8602  -15.1323    9.5415 H         1 B9N         0.0601
     47 H15         5.7212  -15.9310   10.9522 H         1 B9N         0.0548
     48 H16        10.0140  -16.7712   10.6357 H         1 B9N         0.0579
     49 H17         9.6635  -15.5097    9.4060 H         1 B9N         0.0579
     50 H18         9.1764  -17.2130    9.1094 H         1 B9N         0.0579
     51 H19         8.5570  -15.6483    7.7322 H         1 B9N         0.0548
     52 H20         6.6748  -14.8037    6.3268 H         1 B9N         0.0601
@<TRIPOS>BOND
     1    1    2 2  
     2    2    3 2  
     3    2    4 1  
     4    2   19 1  
     5    4    5 ar 
     6    4   18 ar 
     7    5    6 1  
     8    5   15 ar 
     9    6    7 1  
    10    6   10 1  
    11    7    8 ar 
    12    7    9 ar 
    13   10   11 1  
    14   11   12 1  
    15   12   13 ar 
    16   12   14 ar 
    17   15   16 ar 
    18   16   17 ar 
    19   17   18 ar 
    20   19   20 ar 
    21   19   21 ar 
    22   20   24 ar 
    23   21   22 ar 
    24   22   23 ar 
    25   23   24 ar 
    26   23   25 1  
    27   25   26 ar 
    28   25   32 ar 
    29   26   27 ar 
    30   27   28 ar 
    31   28   29 1  
    32   28   31 ar 
    33   29   30 1  
    34   31   32 ar 
    35    6   33 1  
    36   10   34 1  
    37   10   35 1  
    38   11   36 1  
    39   11   37 1  
    40   15   38 1  
    41   16   39 1  
    42   17   40 1  
    43   18   41 1  
    44   20   42 1  
    45   21   43 1  
    46   22   44 1  
    47   24   45 1  
    48   26   46 1  
    49   27   47 1  
    50   30   48 1  
    51   30   49 1  
    52   30   50 1  
    53   31   51 1  
    54   32   52 1  
@<TRIPOS>SUBSTRUCTURE
     1 B9N         1

