### 
### Created by X-TOOL on Wed Jan  1 15:39:35 2020
### 

@<TRIPOS>MOLECULE
6ekq_ligand
   49    51     1     0     0
SMALL
GAST_HUCK


@<TRIPOS>ATOM
      1 CAA        23.9680  -11.5330    5.4230 C.3       1 B0H         0.0273
      2 CAB        24.8560  -15.7300    8.0390 C.3       1 B0H        -0.0289
      3 CAC        12.2080  -12.0090    6.6470 C.3       1 B0H        -0.0576
      4 CAD        15.3860  -11.6310   10.5050 C.3       1 B0H        -0.0576
      5 CAF        17.4720  -16.8940    8.3210 C.2       1 B0H        -0.0107
      6 CAG        13.7580  -11.8100    8.5990 C.3       1 B0H        -0.0382
      7 CAH        15.6630  -15.4050    7.3960 C.3       1 B0H        -0.0039
      8 CAI        14.0320  -13.6940    6.9850 C.3       1 B0H        -0.0281
      9 CAJ        15.5090  -13.5250    8.8940 C.3       1 B0H        -0.0281
     10 CAP        21.7150  -15.3060    7.5470 C.2       1 B0H         0.2553
     11 CAQ        23.7410  -12.8300    6.2030 C.2       1 B0H         0.1776
     12 CAR        17.1320  -15.7700    7.6730 C.2       1 B0H         0.0137
     13 CAS        24.0670  -14.6300    7.3130 C.2       1 B0H         0.0248
     14 CAT        19.3620  -15.4440    7.5700 C.2       1 B0H         0.2018
     15 CAU        22.7370  -14.5190    7.1430 C.2       1 B0H         0.2012
     16 CAV        13.6440  -12.2260    7.1320 C.3       1 B0H        -0.0031
     17 CAW        15.2020  -12.0450    9.0400 C.3       1 B0H        -0.0031
     18 NAK        24.6910  -13.5940    6.7370 N.2       1 B0H        -0.2993
     19 NAL        18.1520  -14.9750    7.2620 N.2       1 B0H        -0.3119
     20 NAM        20.4960  -14.7960    7.2480 N.am      1 B0H        -0.1967
     21 NAX        15.4040  -13.9530    7.4880 N.4       1 B0H         0.2455
     22 OAE        21.8970  -16.3860    8.1110 O.2       1 B0H        -0.3830
     23 OAN        22.5270  -13.3540    6.4190 O.3       1 B0H        -0.2246
     24 SAO        19.1620  -16.9320    8.4080 S.3       1 B0H        -0.0030
     25 H1         25.0451  -11.3132    5.3826 H         1 B0H         0.0499
     26 H2         23.4438  -10.7066    5.9252 H         1 B0H         0.0499
     27 H3         23.5784  -11.6470    4.4006 H         1 B0H         0.0499
     28 H4         25.9315  -15.5053    7.9864 H         1 B0H         0.0378
     29 H5         24.6601  -16.6998    7.5583 H         1 B0H         0.0378
     30 H6         24.5415  -15.7726    9.0922 H         1 B0H         0.0378
     31 H7         11.9400  -10.9479    6.7578 H         1 B0H         0.0234
     32 H8         11.5215  -12.6251    7.2463 H         1 B0H         0.0234
     33 H9         12.1308  -12.2980    5.5885 H         1 B0H         0.0234
     34 H10        15.1642  -10.5591   10.6137 H         1 B0H         0.0234
     35 H11        16.4243  -11.8236   10.8129 H         1 B0H         0.0234
     36 H12        14.7014  -12.2132   11.1393 H         1 B0H         0.0234
     37 H13        16.7880  -17.6429    8.7174 H         1 B0H         0.0414
     38 H14        13.0757  -12.4154    9.2138 H         1 B0H         0.0274
     39 H15        13.5022  -10.7456    8.7072 H         1 B0H         0.0274
     40 H16        15.0283  -15.9219    8.1308 H         1 B0H         0.0949
     41 H17        15.4020  -15.7445    6.3828 H         1 B0H         0.0949
     42 H18        13.9844  -13.9704    5.9214 H         1 B0H         0.0817
     43 H19        13.3211  -14.3094    7.5559 H         1 B0H         0.0817
     44 H20        14.7940  -14.1015    9.4992 H         1 B0H         0.0817
     45 H21        16.5311  -13.7168    9.2524 H         1 B0H         0.0817
     46 H22        14.3258  -11.6106    6.5267 H         1 B0H         0.0350
     47 H23        15.8825  -11.4581    8.4056 H         1 B0H         0.0350
     48 H24        20.4378  -13.9162    6.7763 H         1 B0H         0.2397
     49 H25        16.0744  -13.4482    6.9296 H         1 B0H         0.2046
@<TRIPOS>BOND
     1   11    1 1  
     2   13    2 1  
     3   16    3 1  
     4   17    4 1  
     5   12    5 2  
     6    5   24 1  
     7   16    6 1  
     8   17    6 1  
     9   12    7 1  
    10    7   21 1  
    11    8   16 1  
    12   21    8 1  
    13    9   17 1  
    14   21    9 1  
    15   10   15 1  
    16   20   10 am 
    17   10   22 2  
    18   18   11 2  
    19   11   23 1  
    20   19   12 1  
    21   15   13 2  
    22   13   18 1  
    23   14   19 2  
    24   14   20 1  
    25   14   24 1  
    26   15   23 1  
    27    1   25 1  
    28    1   26 1  
    29    1   27 1  
    30    2   28 1  
    31    2   29 1  
    32    2   30 1  
    33    3   31 1  
    34    3   32 1  
    35    3   33 1  
    36    4   34 1  
    37    4   35 1  
    38    4   36 1  
    39    5   37 1  
    40    6   38 1  
    41    6   39 1  
    42    7   40 1  
    43    7   41 1  
    44    8   42 1  
    45    8   43 1  
    46    9   44 1  
    47    9   45 1  
    48   16   46 1  
    49   17   47 1  
    50   20   48 1  
    51   21   49 1  
@<TRIPOS>SUBSTRUCTURE
     1 B0H         1

