### 
### Created by X-TOOL on Mon Sep 10 21:13:31 2018
### 

@<TRIPOS>MOLECULE
6eks_ligand
   44    44     1     0     0
SMALL
GAST_HUCK


@<TRIPOS>ATOM
      1 C1        -17.7630   22.7680   -0.5830 C.2       1 G39         0.0478
      2 O1A       -17.9870   22.3110   -1.7360 O.co2     1 G39        -0.5666
      3 O1B       -18.4440   23.7560   -0.2000 O.co2     1 G39        -0.5666
      4 C2        -16.7500   22.1870    0.2390 C.2       1 G39        -0.0181
      5 C3        -15.9690   21.0900   -0.2510 C.3       1 G39         0.0201
      6 C4        -14.6270   20.9490    0.5150 C.3       1 G39         0.0100
      7 C5        -14.9330   20.8840    2.0350 C.3       1 G39         0.1202
      8 N5        -13.6810   20.5660    2.7910 N.am      1 G39        -0.2740
      9 C10       -13.5210   19.4090    3.4600 C.2       1 G39         0.1735
     10 O10       -14.3900   18.5360    3.5190 O.2       1 G39        -0.3974
     11 C11       -12.1430   19.2040    4.1220 C.3       1 G39         0.0257
     12 C6        -15.4680   22.2400    2.4070 C.3       1 G39         0.1112
     13 C7        -16.5080   22.7020    1.5300 C.2       1 G39        -0.0470
     14 O7        -15.8510   22.2340    3.8000 O.3       1 G39        -0.3596
     15 C8        -16.1140   23.6030    4.1570 C.3       1 G39         0.0613
     16 C9        -16.7740   23.6520    5.5390 C.3       1 G39        -0.0292
     17 C81       -14.8400   24.4600    4.1160 C.3       1 G39        -0.0292
     18 C82       -13.7340   23.8650    4.9920 C.3       1 G39        -0.0629
     19 C91       -18.2590   23.3410    5.3280 C.3       1 G39        -0.0629
     20 N4        -13.9080   19.7430    0.1070 N.4       1 G39         0.2238
     21 H1        -15.7545   21.2542   -1.3173 H         1 G39         0.0441
     22 H2        -16.5460   20.1611   -0.1318 H         1 G39         0.0441
     23 H3        -13.9982   21.8268    0.3051 H         1 G39         0.0895
     24 H4        -15.6881   20.1111    2.2409 H         1 G39         0.0664
     25 H5        -12.9384   21.2356    2.7994 H         1 G39         0.1859
     26 H6        -12.1247   18.2323    4.6372 H         1 G39         0.0467
     27 H7        -11.9627   20.0085    4.8502 H         1 G39         0.0467
     28 H8        -11.3589   19.2250    3.3508 H         1 G39         0.0467
     29 H9        -14.6380   22.9544    2.3036 H         1 G39         0.0776
     30 H10       -17.1531   23.5039    1.8858 H         1 G39         0.0592
     31 H11       -16.8208   24.0180    3.4234 H         1 G39         0.0598
     32 H12       -16.6551   24.6523    5.9808 H         1 G39         0.0288
     33 H13       -16.3200   22.9016    6.2029 H         1 G39         0.0288
     34 H14       -15.0777   25.4710    4.4784 H         1 G39         0.0288
     35 H15       -14.4813   24.5175    3.0777 H         1 G39         0.0288
     36 H16       -12.8400   24.5036    4.9379 H         1 G39         0.0231
     37 H17       -13.4855   22.8552    4.6334 H         1 G39         0.0231
     38 H18       -14.0819   23.8088    6.0340 H         1 G39         0.0231
     39 H19       -18.7797   23.3642    6.2967 H         1 G39         0.0231
     40 H20       -18.3643   22.3424    4.8790 H         1 G39         0.0231
     41 H21       -18.6994   24.0931    4.6569 H         1 G39         0.0231
     42 H22       -13.7104   19.7875   -0.8804 H         1 G39         0.1999
     43 H23       -14.4750   18.9323    0.2999 H         1 G39         0.1999
     44 H24       -13.0428   19.6778    0.6201 H         1 G39         0.1999
@<TRIPOS>BOND
     1    1    2 ar 
     2    1    3 ar 
     3    1    4 1  
     4    4    5 1  
     5    4   13 2  
     6    5    6 1  
     7    6    7 1  
     8    6   20 1  
     9    7    8 1  
    10    7   12 1  
    11    8    9 am 
    12    9   10 2  
    13    9   11 1  
    14   12   13 1  
    15   12   14 1  
    16   14   15 1  
    17   15   16 1  
    18   15   17 1  
    19   16   19 1  
    20   17   18 1  
    21    5   21 1  
    22    5   22 1  
    23    6   23 1  
    24    7   24 1  
    25    8   25 1  
    26   11   26 1  
    27   11   27 1  
    28   11   28 1  
    29   12   29 1  
    30   13   30 1  
    31   15   31 1  
    32   16   32 1  
    33   16   33 1  
    34   17   34 1  
    35   17   35 1  
    36   18   36 1  
    37   18   37 1  
    38   18   38 1  
    39   19   39 1  
    40   19   40 1  
    41   19   41 1  
    42   20   42 1  
    43   20   43 1  
    44   20   44 1  
@<TRIPOS>SUBSTRUCTURE
     1 G39         1

