### 
### Created by X-TOOL on Mon Sep 10 21:13:31 2018
### 

@<TRIPOS>MOLECULE
6eku_ligand
   45    45     1     0     0
SMALL
GAST_HUCK


@<TRIPOS>ATOM
      1 C1        -11.6180   18.3600    9.8580 C.2       1 ZMR         0.0637
      2 O1A       -12.0240   19.3060   10.5710 O.co2     1 ZMR        -0.5663
      3 O1B       -10.4360   17.9430    9.8060 O.co2     1 ZMR        -0.5663
      4 C2        -12.6540   17.7050    8.9130 C.3       1 ZMR         0.1148
      5 C3        -12.3540   16.2060    8.7300 C.3       1 ZMR         0.0237
      6 C4        -13.5420   15.3830    8.2240 C.3       1 ZMR         0.1026
      7 C5        -14.7280   16.2530    7.8400 C.3       1 ZMR         0.1065
      8 N5        -15.8580   15.3340    7.6110 N.am      1 ZMR        -0.2778
      9 C10       -16.3820   15.0900    6.3950 C.2       1 ZMR         0.1733
     10 O10       -15.9800   15.6190    5.3670 O.2       1 ZMR        -0.3974
     11 C11       -17.5480   14.0900    6.3720 C.3       1 ZMR         0.0257
     12 C6        -15.0680   17.1810    9.0130 C.3       1 ZMR         0.1158
     13 O6        -13.9480   17.9860    9.4530 O.3       1 ZMR        -0.3542
     14 C7        -16.2040   18.1570    8.6630 C.3       1 ZMR         0.1116
     15 O7        -15.8060   18.9800    7.5760 O.3       1 ZMR        -0.3865
     16 C8        -16.4430   19.0840    9.8590 C.3       1 ZMR         0.1065
     17 O8        -16.8320   18.3130   11.0050 O.3       1 ZMR        -0.3869
     18 C9        -17.5000   20.1610    9.5370 C.3       1 ZMR         0.0727
     19 O9        -18.8190   19.5910    9.6110 O.3       1 ZMR        -0.3924
     20 NE        -13.1210   14.5610    7.0690 N.pl3     1 ZMR        -0.2671
     21 CZ        -13.4720   13.2810    6.8750 C.cat     1 ZMR         0.2885
     22 NH1       -14.2240   12.6390    7.7720 N.pl3     1 ZMR        -0.2849
     23 NH2       -13.0400   12.6320    5.7930 N.pl3     1 ZMR        -0.2849
     24 H1        -12.5843   18.1792    7.9229 H         1 ZMR         0.0767
     25 H2        -12.0399   15.7964    9.7014 H         1 ZMR         0.0346
     26 H3        -11.5318   16.1050    8.0063 H         1 ZMR         0.0346
     27 H4        -13.8615   14.7109    9.0340 H         1 ZMR         0.0752
     28 H5        -14.5091   16.8408    6.9364 H         1 ZMR         0.0621
     29 H6        -16.2563   14.8672    8.4006 H         1 ZMR         0.1856
     30 H7        -17.9010   13.9622    5.3381 H         1 ZMR         0.0467
     31 H8        -18.3701   14.4709    6.9957 H         1 ZMR         0.0467
     32 H9        -17.2077   13.1209    6.7657 H         1 ZMR         0.0467
     33 H10       -15.3921   16.5472    9.8516 H         1 ZMR         0.0649
     34 H11       -17.1192   17.6008    8.4121 H         1 ZMR         0.0647
     35 H12       -16.5092   19.5818    7.3618 H         1 ZMR         0.2100
     36 H13       -15.4971   19.5951   10.0914 H         1 ZMR         0.0643
     37 H14       -16.9782   18.8946   11.7418 H         1 ZMR         0.2100
     38 H15       -17.3272   20.5497    8.5226 H         1 ZMR         0.0584
     39 H16       -17.4166   20.9826   10.2637 H         1 ZMR         0.0584
     40 H17       -18.8921   18.8821    8.9829 H         1 ZMR         0.2095
     41 H18       -12.5150   15.0029    6.3631 H         1 ZMR         0.2645
     42 H19       -14.4881   11.6561    7.6136 H         1 ZMR         0.2615
     43 H20       -14.5401   13.1266    8.6224 H         1 ZMR         0.2615
     44 H21       -12.4594   13.1210    5.0968 H         1 ZMR         0.2615
     45 H22       -13.2869   11.6418    5.6536 H         1 ZMR         0.2615
@<TRIPOS>BOND
     1    1    2 ar 
     2    1    3 ar 
     3    1    4 1  
     4    4    5 1  
     5    4   13 1  
     6    5    6 1  
     7    6    7 1  
     8    6   20 1  
     9    7    8 1  
    10    7   12 1  
    11    8    9 am 
    12    9   10 2  
    13    9   11 1  
    14   12   13 1  
    15   12   14 1  
    16   14   15 1  
    17   14   16 1  
    18   16   17 1  
    19   16   18 1  
    20   18   19 1  
    21   20   21 ar 
    22   21   22 ar 
    23   21   23 ar 
    24    4   24 1  
    25    5   25 1  
    26    5   26 1  
    27    6   27 1  
    28    7   28 1  
    29    8   29 1  
    30   11   30 1  
    31   11   31 1  
    32   11   32 1  
    33   12   33 1  
    34   14   34 1  
    35   15   35 1  
    36   16   36 1  
    37   17   37 1  
    38   18   38 1  
    39   18   39 1  
    40   19   40 1  
    41   20   41 1  
    42   22   42 1  
    43   22   43 1  
    44   23   44 1  
    45   23   45 1  
@<TRIPOS>SUBSTRUCTURE
     1 ZMR         1

