### 
### Created by X-TOOL on Wed Jan  1 15:39:36 2020
### 

@<TRIPOS>MOLECULE
6el5_ligand
   51    53     1     0     0
SMALL
GAST_HUCK


@<TRIPOS>ATOM
      1 CL          2.2390   31.7810   24.8120 Cl        1 PU1        -0.0972
      2 C13         3.7780   32.5970   24.8890 C.ar      1 PU1         0.0521
      3 C15         4.8990   31.9510   24.3320 C.ar      1 PU1         0.1197
      4 O3          4.7380   30.8560   23.5230 O.3       1 PU1        -0.3287
      5 C20         4.8740   29.5380   24.0000 C.3       1 PU1         0.0565
      6 C17         6.1510   32.5790   24.3590 C.ar      1 PU1         0.1408
      7 O2          7.2630   31.9610   23.8480 O.3       1 PU1        -0.3338
      8 C19         7.4940   31.8830   22.4340 C.3       1 PU1         0.0527
      9 C16         6.3110   33.7850   25.0450 C.ar      1 PU1         0.1060
     10 O1          7.5700   34.3150   25.1280 O.3       1 PU1        -0.3292
     11 C18         7.7960   35.4490   25.9820 C.3       1 PU1         0.0565
     12 C14         5.1960   34.4130   25.6190 C.ar      1 PU1        -0.0468
     13 C12         3.9340   33.8310   25.5540 C.ar      1 PU1        -0.0367
     14 C6          2.8050   34.5730   26.2490 C.3       1 PU1         0.0529
     15 C5          1.6680   34.8760   25.2980 C.2       1 PU1         0.1335
     16 N3          0.4500   34.4990   25.5270 N.2       1 PU1        -0.3109
     17 C2         -0.3260   34.8510   24.4940 C.ar      1 PU1         0.0850
     18 C3         -1.6800   34.6860   24.1920 C.ar      1 PU1         0.1205
     19 N5         -2.5320   34.1060   25.1110 N.pl3     1 PU1        -0.3179
     20 C1          0.4980   35.5240   23.5860 C.ar      1 PU1         0.1470
     21 N1         -0.0110   35.9710   22.4590 N.ar      1 PU1        -0.2447
     22 C4         -1.2610   35.7390   22.1700 C.ar      1 PU1         0.2581
     23 N2         -2.1110   35.1440   23.0100 N.ar      1 PU1        -0.2400
     24 N4          1.7500   35.5520   24.1150 N.pl3     1 PU1        -0.2189
     25 C7          2.9140   36.2090   23.4860 C.3       1 PU1         0.0608
     26 C8          2.8750   37.7330   23.6810 C.3       1 PU1        -0.0149
     27 C9          2.9620   38.1330   25.1540 C.3       1 PU1         0.0113
     28 C10         4.3350   38.0650   25.7120 C.1       1 PU1        -0.1055
     29 C11         5.4100   38.0330   26.2000 C.1       1 PU1        -0.1192
     30 F          -1.6560   36.1950   20.9810 F         1 PU1        -0.1382
     31 H1          4.7015   28.8302   23.1758 H         1 PU1         0.0573
     32 H2          4.1378   29.3588   24.7974 H         1 PU1         0.0573
     33 H3          5.8890   29.3954   24.3993 H         1 PU1         0.0573
     34 H4          8.4372   31.3494   22.2455 H         1 PU1         0.0565
     35 H5          7.5575   32.8986   22.0162 H         1 PU1         0.0565
     36 H6          6.6644   31.3412   21.9563 H         1 PU1         0.0565
     37 H7          8.8548   35.7427   25.9290 H         1 PU1         0.0573
     38 H8          7.5405   35.1841   27.0186 H         1 PU1         0.0573
     39 H9          7.1659   36.2880   25.6519 H         1 PU1         0.0573
     40 H10         5.3193   35.3660   26.1207 H         1 PU1         0.0372
     41 H11         3.1949   35.5194   26.6520 H         1 PU1         0.0661
     42 H12         2.4246   33.9524   27.0736 H         1 PU1         0.0661
     43 H13        -3.5296   33.9862   24.8844 H         1 PU1         0.1811
     44 H14        -2.1699   33.7932   26.0231 H         1 PU1         0.1811
     45 H15         2.9109   35.9865   22.4088 H         1 PU1         0.0608
     46 H16         3.8352   35.8143   23.9394 H         1 PU1         0.0608
     47 H17         1.9325   38.1187   23.2651 H         1 PU1         0.0300
     48 H18         3.7236   38.1802   23.1426 H         1 PU1         0.0300
     49 H19         2.3173   37.4577   25.7356 H         1 PU1         0.0398
     50 H20         2.5971   39.1658   25.2552 H         1 PU1         0.0398
     51 H21         6.3712   38.0044   26.6363 H         1 PU1         0.1228
@<TRIPOS>BOND
     1    1    2 1  
     2    2    3 ar 
     3    2   13 ar 
     4    3    4 1  
     5    3    6 ar 
     6    4    5 1  
     7    6    7 1  
     8    6    9 ar 
     9    7    8 1  
    10    9   10 1  
    11    9   12 ar 
    12   10   11 1  
    13   12   13 ar 
    14   13   14 1  
    15   14   15 1  
    16   15   16 2  
    17   15   24 1  
    18   16   17 1  
    19   17   18 ar 
    20   17   20 ar 
    21   18   19 1  
    22   18   23 ar 
    23   20   21 ar 
    24   20   24 1  
    25   21   22 ar 
    26   22   23 ar 
    27   22   30 1  
    28   24   25 1  
    29   25   26 1  
    30   26   27 1  
    31   27   28 1  
    32   28   29 3  
    33    5   31 1  
    34    5   32 1  
    35    5   33 1  
    36    8   34 1  
    37    8   35 1  
    38    8   36 1  
    39   11   37 1  
    40   11   38 1  
    41   11   39 1  
    42   12   40 1  
    43   14   41 1  
    44   14   42 1  
    45   19   43 1  
    46   19   44 1  
    47   25   45 1  
    48   25   46 1  
    49   26   47 1  
    50   26   48 1  
    51   27   49 1  
    52   27   50 1  
    53   29   51 1  
@<TRIPOS>SUBSTRUCTURE
     1 PU1         1

