### 
### Created by X-TOOL on Wed Jan  1 15:39:35 2020
### 

@<TRIPOS>MOLECULE
6ela_ligand
   50    52     1     0     0
SMALL
GAST_HUCK


@<TRIPOS>ATOM
      1 C4         14.2850    6.1020   34.7410 C.ar      1 B9Z         0.0916
      2 C5         14.5030    7.3570   35.2940 C.ar      1 B9Z        -0.0322
      3 C6         13.4690    8.2790   35.3950 C.ar      1 B9Z        -0.0632
      4 C8         11.3100   10.2010   35.5120 C.ar      1 B9Z        -0.0616
      5 C10         9.0220   10.7930   35.2040 C.ar      1 B9Z         0.0282
      6 C20         4.0420   10.8180   34.3010 C.ar      1 B9Z        -0.0637
      7 C21         5.2640   11.4650   34.2700 C.ar      1 B9Z        -0.0123
      8 C22         5.6320   12.4420   33.1330 C.3       1 B9Z         0.0451
      9 C1         12.2050    7.9350   34.9400 C.ar      1 B9Z        -0.0320
     10 C12         9.7730    8.5790   34.6270 C.ar      1 B9Z        -0.0616
     11 C19         3.7320    9.9420   35.3270 C.ar      1 B9Z        -0.0749
     12 C23         6.7640   11.9150   32.2520 C.2       1 B9Z         0.0484
     13 C3         13.0290    5.7660   34.2860 C.ar      1 B9Z        -0.0322
     14 C2         11.9970    6.6820   34.3820 C.ar      1 B9Z        -0.0632
     15 C11         8.7500    9.5200   34.7240 C.ar      1 B9Z        -0.0481
     16 C15        16.4550    5.4020   35.4170 C.3       1 B9Z         0.0597
     17 C16         6.1480   11.2390   35.3140 C.ar      1 B9Z         0.0338
     18 C17         5.8400   10.3640   36.3480 C.ar      1 B9Z        -0.0538
     19 C18         4.6220    9.7120   36.3620 C.ar      1 B9Z        -0.0741
     20 C26         4.4300   12.7470   32.2230 C.3       1 B9Z        -0.0184
     21 C27         3.4200   13.6720   32.9040 C.3       1 B9Z         0.0036
     22 C28         2.2190   13.9600   32.0020 C.2       1 B9Z         0.0351
     23 C7         11.0560    8.9290   35.0290 C.ar      1 B9Z        -0.0307
     24 C9         10.2940   11.1310   35.6020 C.ar      1 B9Z        -0.0481
     25 O14        15.3140    5.1600   34.6250 O.3       1 B9Z        -0.3206
     26 O24         7.6980   12.6830   31.8680 O.co2     1 B9Z        -0.5663
     27 O25         6.7390   10.7210   31.8930 O.co2     1 B9Z        -0.5663
     28 O29         1.4180   14.8840   32.3020 O.co2     1 B9Z        -0.5690
     29 O30         2.0370   13.2710   30.9600 O.co2     1 B9Z        -0.5690
     30 S13         7.7500   12.0740   35.3420 S.3       1 B9Z        -0.0479
     31 H1         15.4920    7.6203   35.6512 H         1 B9Z         0.0545
     32 H2         13.6483    9.2577   35.8252 H         1 B9Z         0.0592
     33 H3         12.3137   10.4687   35.8217 H         1 B9Z         0.0595
     34 H4          3.3193   10.9988   33.5135 H         1 B9Z         0.0541
     35 H5          5.9639   13.3819   33.5981 H         1 B9Z         0.0611
     36 H6          9.5703    7.5859   34.2426 H         1 B9Z         0.0595
     37 H7          2.7775    9.4282   35.3199 H         1 B9Z         0.0544
     38 H8         12.8501    4.7878   33.8545 H         1 B9Z         0.0545
     39 H9         11.0117    6.4170   34.0160 H         1 B9Z         0.0592
     40 H10         7.7418    9.2575   34.4245 H         1 B9Z         0.0568
     41 H11        17.1944    4.6053   35.2479 H         1 B9Z         0.0578
     42 H12        16.1680    5.4165   36.4788 H         1 B9Z         0.0578
     43 H13        16.8929    6.3729   35.1422 H         1 B9Z         0.0578
     44 H14         6.5555   10.1927   37.1441 H         1 B9Z         0.0550
     45 H15         4.3681    9.0332   37.1682 H         1 B9Z         0.0544
     46 H16         3.9296   11.8018   31.9659 H         1 B9Z         0.0323
     47 H17         4.7930   13.2314   31.3046 H         1 B9Z         0.0323
     48 H18         3.9165   14.6221   33.1506 H         1 B9Z         0.0433
     49 H19         3.0648   13.1931   33.8284 H         1 B9Z         0.0433
     50 H20        10.4982   12.1243   35.9851 H         1 B9Z         0.0568
@<TRIPOS>BOND
     1    2    1 ar 
     2   13    1 ar 
     3    1   25 1  
     4    3    2 ar 
     5    9    3 ar 
     6    4   23 ar 
     7   24    4 ar 
     8    5   15 ar 
     9    5   24 ar 
    10   30    5 1  
    11    7    6 ar 
    12    6   11 ar 
    13    7    8 1  
    14   17    7 ar 
    15    8   12 1  
    16    8   20 1  
    17    9   14 ar 
    18   23    9 1  
    19   15   10 ar 
    20   10   23 ar 
    21   11   19 ar 
    22   12   26 ar 
    23   12   27 ar 
    24   14   13 ar 
    25   25   16 1  
    26   17   18 ar 
    27   17   30 1  
    28   18   19 ar 
    29   20   21 1  
    30   21   22 1  
    31   22   28 ar 
    32   22   29 ar 
    33    2   31 1  
    34    3   32 1  
    35    4   33 1  
    36    6   34 1  
    37    8   35 1  
    38   10   36 1  
    39   11   37 1  
    40   13   38 1  
    41   14   39 1  
    42   15   40 1  
    43   16   41 1  
    44   16   42 1  
    45   16   43 1  
    46   18   44 1  
    47   19   45 1  
    48   20   46 1  
    49   20   47 1  
    50   21   48 1  
    51   21   49 1  
    52   24   50 1  
@<TRIPOS>SUBSTRUCTURE
     1 B9Z         1

