### 
### Created by X-TOOL on Wed Jan  1 15:39:36 2020
### 

@<TRIPOS>MOLECULE
6eln_ligand
   38    40     1     0     0
SMALL
GAST_HUCK


@<TRIPOS>ATOM
      1 N1         63.4430   36.0480   22.1570 N.2       1 P4A        -0.2319
      2 N2         63.2220   34.9920   23.0440 N.pl3     1 P4A        -0.2275
      3 C3         64.0300   35.1520   24.0840 C.2       1 P4A         0.0841
      4 C4         64.7570   36.3780   23.9040 C.2       1 P4A        -0.0007
      5 C5         64.3640   36.8890   22.6890 C.2       1 P4A         0.0123
      6 C6         64.0860   34.2760   25.2830 C.ar      1 P4A         0.0324
      7 C7         65.7350   36.9840   24.8710 C.ar      1 P4A        -0.0480
      8 C8         64.8470   38.1530   22.0170 C.3       1 P4A        -0.0270
      9 C12        67.1070   37.0390   24.5330 C.ar      1 P4A        -0.0713
     10 C13        68.0280   37.5920   25.4160 C.ar      1 P4A        -0.0380
     11 C14        67.6260   38.0630   26.6740 C.ar      1 P4A         0.0862
     12 C15        66.2640   37.9920   27.0340 C.ar      1 P4A        -0.0380
     13 C16        65.3290   37.4280   26.1510 C.ar      1 P4A        -0.0713
     14 C21        62.8820   33.8680   25.9130 C.ar      1 P4A         0.0952
     15 C22        62.9200   33.0990   27.0780 C.ar      1 P4A        -0.0017
     16 C23        64.1620   32.6860   27.5810 C.ar      1 P4A         0.0822
     17 C24        65.3590   33.0710   26.9480 C.ar      1 P4A        -0.0410
     18 C25        65.3280   33.8520   25.8060 C.ar      1 P4A        -0.0650
     19 O29        64.2330   31.9450   28.7140 O.3       1 P4A        -0.3339
     20 O30        61.6830   34.2380   25.3980 O.3       1 P4A        -0.3315
     21 O33        68.6050   38.6090   27.4710 O.3       1 P4A        -0.3240
     22 C34        68.3020   39.1960   28.7430 C.3       1 P4A         0.0585
     23 H1         62.5491   34.2232   22.9135 H         1 P4A         0.2472
     24 H2         65.5905   38.6483   22.6587 H         1 P4A         0.0380
     25 H3         63.9953   38.8296   21.8531 H         1 P4A         0.0380
     26 H4         65.3069   37.9014   21.0499 H         1 P4A         0.0380
     27 H5         67.4429   36.6476   23.5796 H         1 P4A         0.0541
     28 H6         69.0708   37.6599   25.1279 H         1 P4A         0.0532
     29 H7         65.9382   38.3738   27.9948 H         1 P4A         0.0532
     30 H8         64.2919   37.3325   26.4516 H         1 P4A         0.0541
     31 H9         62.0025   32.8253   27.5862 H         1 P4A         0.0468
     32 H10        66.3111   32.7537   27.3577 H         1 P4A         0.0467
     33 H11        66.2517   34.1369   25.3154 H         1 P4A         0.0577
     34 H12        63.3549   31.7616   29.0266 H         1 P4A         0.2493
     35 H13        61.1783   33.4620   25.1843 H         1 P4A         0.2504
     36 H14        69.2284   39.5674   29.2054 H         1 P4A         0.0576
     37 H15        67.8440   38.4389   29.3965 H         1 P4A         0.0576
     38 H16        67.6011   40.0322   28.6034 H         1 P4A         0.0576
@<TRIPOS>BOND
     1    1    2 1  
     2    1    5 2  
     3    2    3 1  
     4    3    4 2  
     5    3    6 1  
     6    4    5 1  
     7    4    7 1  
     8    5    8 1  
     9    6   14 ar 
    10    6   18 ar 
    11    7    9 ar 
    12    7   13 ar 
    13    9   10 ar 
    14   10   11 ar 
    15   11   12 ar 
    16   11   21 1  
    17   12   13 ar 
    18   14   15 ar 
    19   14   20 1  
    20   15   16 ar 
    21   16   17 ar 
    22   16   19 1  
    23   17   18 ar 
    24   21   22 1  
    25    2   23 1  
    26    8   24 1  
    27    8   25 1  
    28    8   26 1  
    29    9   27 1  
    30   10   28 1  
    31   12   29 1  
    32   13   30 1  
    33   15   31 1  
    34   17   32 1  
    35   18   33 1  
    36   19   34 1  
    37   20   35 1  
    38   22   36 1  
    39   22   37 1  
    40   22   38 1  
@<TRIPOS>SUBSTRUCTURE
     1 P4A         1

