### 
### Created by X-TOOL on Wed Jan  1 15:39:37 2020
### 

@<TRIPOS>MOLECULE
6elo_ligand
   40    42     1     0     0
SMALL
GAST_HUCK


@<TRIPOS>ATOM
      1 C1         64.6630   32.3490   27.3720 C.ar      1 BAW         0.0853
      2 C2         63.4360   32.8660   26.9730 C.ar      1 BAW        -0.0064
      3 C3         63.3540   33.6990   25.8680 C.ar      1 BAW         0.0894
      4 C9         67.1640   32.0540   26.9330 C.3       1 BAW        -0.0280
      5 C10        67.3100   30.7270   26.1510 C.3       1 BAW        -0.0582
      6 C11        64.4110   34.9630   24.0150 C.2       1 BAW         0.0846
      7 C14        64.6980   36.7090   22.6170 C.2       1 BAW         0.0136
      8 C15        65.0490   36.2330   23.8650 C.2       1 BAW         0.0060
      9 C16        65.9750   36.8450   24.8660 C.ar      1 BAW        -0.0042
     10 C19        67.7630   37.9930   26.7150 C.ar      1 BAW        -0.0699
     11 C20        66.4180   37.8480   27.0410 C.ar      1 BAW        -0.0724
     12 C21        65.5240   37.2790   26.1230 C.ar      1 BAW        -0.0657
     13 C4         64.5090   34.0590   25.1720 C.ar      1 BAW         0.0270
     14 C5         65.7490   33.5380   25.5580 C.ar      1 BAW        -0.0631
     15 C6         65.8160   32.6440   26.6370 C.ar      1 BAW        -0.0212
     16 O7         64.6760   31.5310   28.4570 O.3       1 BAW        -0.3367
     17 O8         62.1370   34.1810   25.5060 O.3       1 BAW        -0.3351
     18 N12        63.6340   34.7630   22.9810 N.pl3     1 BAW        -0.2265
     19 N13        63.7840   35.8550   22.1010 N.2       1 BAW        -0.2312
     20 C17        67.3270   37.0050   24.5390 C.ar      1 BAW         0.1305
     21 C18        68.2090   37.5980   25.4550 C.ar      1 BAW        -0.0344
     22 F22        67.7260   36.6450   23.2960 F         1 BAW        -0.1875
     23 C23        65.0800   38.0270   21.9790 C.3       1 BAW        -0.0267
     24 H1         62.5391   32.6167   27.5284 H         1 BAW         0.0455
     25 H2         67.9513   32.7558   26.6206 H         1 BAW         0.0382
     26 H3         67.2534   31.8591   28.0119 H         1 BAW         0.0382
     27 H4         68.2952   30.2847   26.3602 H         1 BAW         0.0247
     28 H5         67.2183   30.9247   25.0728 H         1 BAW         0.0247
     29 H6         66.5204   30.0281   26.4641 H         1 BAW         0.0247
     30 H7         68.4580   38.4097   27.4350 H         1 BAW         0.0554
     31 H8         66.0596   38.1767   28.0098 H         1 BAW         0.0567
     32 H9         64.4775   37.1734   26.3854 H         1 BAW         0.0550
     33 H10        66.6504   33.8229   25.0276 H         1 BAW         0.0512
     34 H11        63.7969   31.4616   28.8104 H         1 BAW         0.2473
     35 H12        61.4730   33.8308   26.0882 H         1 BAW         0.2486
     36 H13        63.0196   33.9493   22.8352 H         1 BAW         0.2478
     37 H14        69.2465   37.7503   25.1803 H         1 BAW         0.0585
     38 H15        64.6323   38.0923   20.9763 H         1 BAW         0.0381
     39 H16        66.1750   38.0907   21.8965 H         1 BAW         0.0381
     40 H17        64.7102   38.8560   22.6003 H         1 BAW         0.0381
@<TRIPOS>BOND
     1    2    1 ar 
     2    1   15 ar 
     3    1   16 1  
     4    3    2 ar 
     5   13    3 ar 
     6    3   17 1  
     7    4    5 1  
     8   15    4 1  
     9    8    6 2  
    10    6   13 1  
    11    6   18 1  
    12    8    7 1  
    13    7   19 2  
    14    7   23 1  
    15    9    8 1  
    16   12    9 ar 
    17    9   20 ar 
    18   11   10 ar 
    19   10   21 ar 
    20   11   12 ar 
    21   13   14 ar 
    22   14   15 ar 
    23   18   19 1  
    24   20   21 ar 
    25   20   22 1  
    26    2   24 1  
    27    4   25 1  
    28    4   26 1  
    29    5   27 1  
    30    5   28 1  
    31    5   29 1  
    32   10   30 1  
    33   11   31 1  
    34   12   32 1  
    35   14   33 1  
    36   16   34 1  
    37   17   35 1  
    38   18   36 1  
    39   21   37 1  
    40   23   38 1  
    41   23   39 1  
    42   23   40 1  
@<TRIPOS>SUBSTRUCTURE
     1 BAW         1

