### 
### Created by X-TOOL on Wed Jan  1 15:39:35 2020
### 

@<TRIPOS>MOLECULE
6elp_ligand
   46    49     1     0     0
SMALL
GAST_HUCK


@<TRIPOS>ATOM
      1 C1          1.2430   33.7370   25.6920 C.ar      1 BA8        -0.0195
      2 C2          0.0670   33.3460   26.3560 C.ar      1 BA8         0.0847
      3 C3         -1.1860   33.7240   25.8570 C.ar      1 BA8        -0.0073
      4 C8         -0.1110   35.8300   22.8520 C.2       1 BA8         0.0945
      5 C9         -0.6690   35.6420   21.6070 C.2       1 BA8        -0.0455
      6 C10        -0.3960   36.7870   20.8510 C.2       1 BA8        -0.0089
      7 C13         1.0910   37.6900   23.9870 C.ar      1 BA8         0.1234
      8 C14         2.4810   37.6350   24.1380 C.ar      1 BA8         0.0753
      9 C15         3.1170   38.1740   25.2670 C.ar      1 BA8        -0.0519
     10 C16         2.3380   38.7410   26.2720 C.ar      1 BA8        -0.0682
     11 C21         2.6130   33.2690   26.1810 C.3       1 BA8        -0.0134
     12 C22         6.2470   30.2720   25.1000 C.ar      1 BA8        -0.0489
     13 C24         7.0470   32.3700   25.9850 C.ar      1 BA8         0.0028
     14 N25         5.8340   32.9030   25.8110 N.ar      1 BA8        -0.2979
     15 C27         4.9940   30.8810   24.9090 C.ar      1 BA8        -0.0323
     16 C4         -1.2790   34.5260   24.7160 C.ar      1 BA8         0.0882
     17 C5         -0.1090   34.9220   24.0330 C.ar      1 BA8         0.0269
     18 C6          1.1400   34.5120   24.5430 C.ar      1 BA8        -0.0637
     19 O7          0.1340   32.6520   27.5230 O.3       1 BA8        -0.3372
     20 N11         0.2890   37.6280   21.5810 N.2       1 BA8        -0.2114
     21 N12         0.4570   37.0840   22.8660 N.pl3     1 BA8        -0.1628
     22 C17         0.9450   38.7840   26.1310 C.ar      1 BA8        -0.0658
     23 C18         0.3130   38.2250   25.0270 C.ar      1 BA8        -0.0254
     24 CL          3.4130   36.8970   22.8810 Cl        1 BA8        -0.0740
     25 O20        -2.5090   34.8400   24.2490 O.3       1 BA8        -0.3358
     26 C23         7.2900   31.0400   25.6300 C.ar      1 BA8        -0.0410
     27 C26         4.8150   32.2080   25.3050 C.ar      1 BA8         0.0296
     28 C28         3.4960   32.8810   24.9890 C.3       1 BA8         0.0034
     29 H1         -2.0883   33.3928   26.3583 H         1 BA8         0.0453
     30 H2         -1.2206   34.7645   21.2729 H         1 BA8         0.0318
     31 H3         -0.7046   36.9515   19.8197 H         1 BA8         0.0654
     32 H4          4.1971   38.1493   25.3551 H         1 BA8         0.0605
     33 H5          2.8077   39.1477   27.1603 H         1 BA8         0.0557
     34 H6          2.4857   32.3962   26.8382 H         1 BA8         0.0410
     35 H7          3.0963   34.0827   26.7416 H         1 BA8         0.0410
     36 H8          6.4016   29.2305   24.8424 H         1 BA8         0.0719
     37 H9          7.8459   32.9716   26.4032 H         1 BA8         0.0803
     38 H10         4.1774   30.3273   24.4600 H         1 BA8         0.0651
     39 H11         2.0445   34.8094   24.0248 H         1 BA8         0.0507
     40 H12        -0.2529   33.1686   28.2200 H         1 BA8         0.2470
     41 H13         0.3480   39.2630   26.8986 H         1 BA8         0.0601
     42 H14        -0.7692   38.2020   24.9689 H         1 BA8         0.0585
     43 H15        -3.1684   34.4914   24.8374 H         1 BA8         0.2482
     44 H16         8.2753   30.6083   25.7637 H         1 BA8         0.0652
     45 H17         3.7180   33.7999   24.4266 H         1 BA8         0.0473
     46 H18         2.9159   32.1943   24.3551 H         1 BA8         0.0473
@<TRIPOS>BOND
     1    1    2 ar 
     2   11    1 1  
     3    1   18 ar 
     4    2    3 ar 
     5    2   19 1  
     6    3   16 ar 
     7    4    5 2  
     8   17    4 1  
     9    4   21 1  
    10    5    6 1  
    11   20    6 2  
    12    7    8 ar 
    13   21    7 1  
    14    7   23 ar 
    15    8    9 ar 
    16    8   24 1  
    17    9   10 ar 
    18   22   10 ar 
    19   28   11 1  
    20   15   12 ar 
    21   12   26 ar 
    22   14   13 ar 
    23   13   26 ar 
    24   27   14 ar 
    25   27   15 ar 
    26   17   16 ar 
    27   16   25 1  
    28   18   17 ar 
    29   21   20 1  
    30   23   22 ar 
    31   27   28 1  
    32    3   29 1  
    33    5   30 1  
    34    6   31 1  
    35    9   32 1  
    36   10   33 1  
    37   11   34 1  
    38   11   35 1  
    39   12   36 1  
    40   13   37 1  
    41   15   38 1  
    42   18   39 1  
    43   19   40 1  
    44   22   41 1  
    45   23   42 1  
    46   25   43 1  
    47   26   44 1  
    48   28   45 1  
    49   28   46 1  
@<TRIPOS>SUBSTRUCTURE
     1 BA8         1

