### 
### Created by X-TOOL on Wed Jan  1 15:39:38 2020
### 

@<TRIPOS>MOLECULE
6emh_ligand
   46    49     1     0     0
SMALL
GAST_HUCK


@<TRIPOS>ATOM
      1 C15         6.5740    1.9880  -15.6050 C.ar      1 BGE        -0.0498
      2 C17         8.4110    0.4460  -15.7970 C.ar      1 BGE         0.0291
      3 C21         9.6800   -1.8100  -15.8760 C.3       1 BGE         0.0481
      4 C22        10.8620   -2.4750  -16.6020 C.3       1 BGE         0.0669
      5 C24        10.1260   -1.6270  -18.6260 C.3       1 BGE         0.0669
      6 C01         4.5800    6.9970  -14.9260 C.ar      1 BGE        -0.0525
      7 C02         4.6570    6.5790  -13.6180 C.ar      1 BGE        -0.0138
      8 N03         5.2830    5.4720  -13.2880 N.ar      1 BGE        -0.2951
      9 C04         5.8600    4.6950  -14.1910 C.ar      1 BGE         0.1166
     10 C05         5.8290    5.0670  -15.5490 C.ar      1 BGE        -0.0195
     11 C06         5.1890    6.2550  -15.9310 C.ar      1 BGE        -0.0295
     12 C07         5.1050    6.6290  -17.2930 C.2       1 BGE         0.0314
     13 N08         5.2650    5.7670  -18.3020 N.2       1 BGE        -0.3266
     14 C09         5.1130    6.3930  -19.4440 C.2       1 BGE         0.0941
     15 N10         4.8760    7.6760  -19.2100 N.pl3     1 BGE        -0.2512
     16 C11         4.8510    7.8630  -17.9060 C.2       1 BGE         0.0736
     17 C12         4.5880    9.2380  -17.3110 C.3       1 BGE        -0.0008
     18 N13         6.5000    3.5300  -13.6470 N.pl3     1 BGE        -0.2700
     19 C14         7.1080    2.4740  -14.4200 C.ar      1 BGE         0.0483
     20 C16         7.2270    0.9810  -16.2990 C.ar      1 BGE        -0.0533
     21 C18         8.9410    0.9490  -14.6180 C.ar      1 BGE        -0.0533
     22 C19         8.2970    1.9600  -13.9280 C.ar      1 BGE        -0.0498
     23 N20         9.1090   -0.6050  -16.5250 N.pl3     1 BGE        -0.3105
     24 O23        11.2130   -1.8460  -17.7910 O.3       1 BGE        -0.3759
     25 C25         9.1410   -0.6270  -18.0000 C.3       1 BGE         0.0481
     26 H1          5.6457    2.3960  -15.9883 H         1 BGE         0.0503
     27 H2         10.0228   -1.5200  -14.8718 H         1 BGE         0.0532
     28 H3          8.8769   -2.5565  -15.7880 H         1 BGE         0.0532
     29 H4         10.5895   -3.5166  -16.8275 H         1 BGE         0.0579
     30 H5         11.7338   -2.4610  -15.9313 H         1 BGE         0.0579
     31 H6          9.6076   -2.5816  -18.7990 H         1 BGE         0.0579
     32 H7         10.4848   -1.2255  -19.5852 H         1 BGE         0.0579
     33 H8          4.0438    7.9061  -15.1733 H         1 BGE         0.0537
     34 H9          4.1910    7.1759  -12.8424 H         1 BGE         0.0752
     35 H10         6.2981    4.4373  -16.2963 H         1 BGE         0.0535
     36 H11         5.1721    5.9319  -20.4288 H         1 BGE         0.1190
     37 H12         4.7353    8.4031  -19.9258 H         1 BGE         0.2431
     38 H13         4.6104    9.1728  -16.2132 H         1 BGE         0.0443
     39 H14         3.6002    9.5958  -17.6370 H         1 BGE         0.0443
     40 H15         5.3632    9.9397  -17.6525 H         1 BGE         0.0443
     41 H16         6.5272    3.4410  -12.6212 H         1 BGE         0.2084
     42 H17         6.8166    0.6104  -17.2313 H         1 BGE         0.0489
     43 H18         9.8704    0.5452  -14.2331 H         1 BGE         0.0489
     44 H19         8.7197    2.3478  -13.0082 H         1 BGE         0.0503
     45 H20         8.1312   -0.8774  -18.3571 H         1 BGE         0.0532
     46 H21         9.4137    0.3802  -18.3480 H         1 BGE         0.0532
@<TRIPOS>BOND
     1   19    1 ar 
     2    1   20 ar 
     3   20    2 ar 
     4    2   21 ar 
     5    2   23 1  
     6    3    4 1  
     7   23    3 1  
     8    4   24 1  
     9   24    5 1  
    10    5   25 1  
    11    7    6 ar 
    12   11    6 ar 
    13    8    7 ar 
    14    9    8 ar 
    15    9   10 ar 
    16   18    9 1  
    17   10   11 ar 
    18   11   12 1  
    19   12   13 1  
    20   12   16 2  
    21   13   14 2  
    22   15   14 1  
    23   16   15 1  
    24   16   17 1  
    25   18   19 1  
    26   19   22 ar 
    27   21   22 ar 
    28   23   25 1  
    29    1   26 1  
    30    3   27 1  
    31    3   28 1  
    32    4   29 1  
    33    4   30 1  
    34    5   31 1  
    35    5   32 1  
    36    6   33 1  
    37    7   34 1  
    38   10   35 1  
    39   14   36 1  
    40   15   37 1  
    41   17   38 1  
    42   17   39 1  
    43   17   40 1  
    44   18   41 1  
    45   20   42 1  
    46   21   43 1  
    47   22   44 1  
    48   25   45 1  
    49   25   46 1  
@<TRIPOS>SUBSTRUCTURE
     1 BGE         1

