### 
### Created by X-TOOL on Wed Jan  1 15:39:37 2020
### 

@<TRIPOS>MOLECULE
6emu_ligand
   50    52     1     0     0
SMALL
GAST_HUCK


@<TRIPOS>ATOM
      1 N           3.3900  -15.9520  -10.6270 N.4       1 SAM         0.2328
      2 CA          2.0280  -16.4680  -10.5890 C.3       1 SAM         0.0327
      3 C           1.0320  -15.3350  -10.3660 C.2       1 SAM         0.0846
      4 O          -0.1810  -15.5410  -10.3420 O.co2     1 SAM        -0.5643
      5 OXT         1.4210  -14.1800  -10.2000 O.co2     1 SAM        -0.5643
      6 CB          1.8820  -17.5220   -9.4990 C.3       1 SAM         0.0473
      7 CG          0.7740  -18.5310   -9.7730 C.3       1 SAM         0.1163
      8 SD          0.5890  -19.7450   -8.4420 S.3       1 SAM        -0.0103
      9 CE          1.5800  -21.0820   -9.1560 C.3       1 SAM         0.0995
     10 C5'        -1.0890  -20.3730   -8.7210 C.3       1 SAM         0.1381
     11 C4'        -2.1800  -19.7210   -7.8740 C.3       1 SAM         0.1350
     12 O4'        -1.9870  -19.9410   -6.4860 O.3       1 SAM        -0.3344
     13 C3'        -2.2520  -18.2160   -8.0770 C.3       1 SAM         0.1168
     14 O3'        -3.2050  -17.8860   -9.0570 O.3       1 SAM        -0.3863
     15 C2'        -2.6670  -17.6740   -6.7300 C.3       1 SAM         0.1386
     16 O2'        -4.0520  -17.4150   -6.7360 O.3       1 SAM        -0.3836
     17 C1'        -2.3860  -18.7970   -5.7510 C.3       1 SAM         0.2011
     18 N9         -1.3030  -18.3900   -4.8390 N.pl3     1 SAM        -0.1919
     19 C8          0.0110  -18.7590   -4.9440 C.2       1 SAM         0.1123
     20 N7          0.7030  -18.1860   -3.9350 N.2       1 SAM        -0.2958
     21 C5         -0.1490  -17.4460   -3.1920 C.ar      1 SAM         0.1045
     22 C6          0.0360  -16.6620   -2.0590 C.ar      1 SAM         0.1298
     23 N6          1.2430  -16.5390   -1.5120 N.pl3     1 SAM        -0.3152
     24 N1         -1.0430  -16.0070   -1.5050 N.ar      1 SAM        -0.2698
     25 C2         -2.2950  -16.1320   -2.0720 C.ar      1 SAM         0.0533
     26 N3         -2.4690  -16.9140   -3.1970 N.ar      1 SAM        -0.2714
     27 C4         -1.4170  -17.5660   -3.7470 C.ar      1 SAM         0.1613
     28 H1          4.0337  -16.7134  -10.7749 H         1 SAM         0.2010
     29 H2          3.6019  -15.4980   -9.7523 H         1 SAM         0.2010
     30 H3          3.4767  -15.2876  -11.3801 H         1 SAM         0.2010
     31 H4          1.8085  -16.9384  -11.5588 H         1 SAM         0.1026
     32 H5          1.6616  -17.0125   -8.5494 H         1 SAM         0.0385
     33 H6          2.8340  -18.0659   -9.4110 H         1 SAM         0.0385
     34 H7          1.0070  -19.0648  -10.7061 H         1 SAM         0.0843
     35 H8         -0.1757  -17.9881   -9.8885 H         1 SAM         0.0843
     36 H9          1.5878  -21.9402   -8.4680 H         1 SAM         0.0803
     37 H10         2.6100  -20.7303   -9.3151 H         1 SAM         0.0803
     38 H11         1.1441  -21.3877  -10.1185 H         1 SAM         0.0803
     39 H12        -1.0888  -21.4512   -8.5032 H         1 SAM         0.0867
     40 H13        -1.3399  -20.2129   -9.7799 H         1 SAM         0.0867
     41 H14        -3.1422  -20.1634   -8.1715 H         1 SAM         0.0671
     42 H15        -1.2703  -17.8168   -8.3717 H         1 SAM         0.0649
     43 H16        -3.2319  -16.9427   -9.1660 H         1 SAM         0.2100
     44 H17        -2.1039  -16.7647   -6.4730 H         1 SAM         0.0676
     45 H18        -4.3129  -17.0740   -5.8886 H         1 SAM         0.2101
     46 H19        -3.2925  -19.0236   -5.1706 H         1 SAM         0.0996
     47 H20         0.4291  -19.4068   -5.7131 H         1 SAM         0.1349
     48 H21         1.3710  -15.9561   -0.6725 H         1 SAM         0.1820
     49 H22         2.0491  -17.0268   -1.9281 H         1 SAM         0.1820
     50 H23        -3.1420  -15.6163   -1.6343 H         1 SAM         0.0996
@<TRIPOS>BOND
     1    1    2 1  
     2    2    3 1  
     3    2    6 1  
     4    3    4 ar 
     5    3    5 ar 
     6    6    7 1  
     7    7    8 1  
     8    8    9 1  
     9    8   10 1  
    10   10   11 1  
    11   11   12 1  
    12   11   13 1  
    13   12   17 1  
    14   13   14 1  
    15   13   15 1  
    16   15   16 1  
    17   15   17 1  
    18   17   18 1  
    19   18   19 1  
    20   18   27 1  
    21   19   20 2  
    22   20   21 1  
    23   21   22 ar 
    24   21   27 ar 
    25   22   23 1  
    26   22   24 ar 
    27   24   25 ar 
    28   25   26 ar 
    29   26   27 ar 
    30    1   28 1  
    31    1   29 1  
    32    1   30 1  
    33    2   31 1  
    34    6   32 1  
    35    6   33 1  
    36    7   34 1  
    37    7   35 1  
    38    9   36 1  
    39    9   37 1  
    40    9   38 1  
    41   10   39 1  
    42   10   40 1  
    43   11   41 1  
    44   13   42 1  
    45   14   43 1  
    46   15   44 1  
    47   16   45 1  
    48   17   46 1  
    49   19   47 1  
    50   23   48 1  
    51   23   49 1  
    52   25   50 1  
@<TRIPOS>SUBSTRUCTURE
     1 SAM         1

