### 
### Created by X-TOOL on Wed Jan  1 15:39:38 2020
### 

@<TRIPOS>MOLECULE
6en4_ligand
   86    87     1     0     0
SMALL
GAST_HUCK


@<TRIPOS>ATOM
      1 C16       -53.6740   -6.3540   15.3360 C.2       1 BGZ        -0.0911
      2 C15       -54.3310   -4.2690   14.1050 C.3       1 BGZ        -0.0257
      3 C14       -53.3460   -5.2090   14.7360 C.2       1 BGZ        -0.0302
      4 C17       -54.9890   -6.8970   15.4980 C.2       1 BGZ        -0.1061
      5 C18       -55.2590   -8.0540   16.1000 C.2       1 BGZ        -0.0983
      6 C13       -51.8890   -4.8110   14.6590 C.3       1 BGZ         0.1324
      7 C11       -51.6080   -3.4000   15.1920 C.3       1 BGZ         0.0159
      8 C2        -50.3710   -5.7010   11.4070 C.3       1 BGZ         0.0749
      9 C3        -48.9150   -5.4970   11.0000 C.3       1 BGZ         0.0733
     10 C4        -48.2690   -4.3130   11.7010 C.3       1 BGZ        -0.0218
     11 C5        -48.9800   -2.9940   11.3860 C.3       1 BGZ        -0.0174
     12 C6        -48.4140   -1.7250   12.0390 C.3       1 BGZ         0.1002
     13 C1        -50.6780   -5.8090   12.8750 C.2       1 BGZ         0.2392
     14 C7        -47.0030   -1.4450   11.5390 C.3       1 BGZ        -0.0317
     15 O8        -52.9320   -6.9970   20.6860 O.3       1 BGZ        -0.3914
     16 C22       -56.7740   -8.0510   18.7360 C.3       1 BGZ         0.0875
     17 C26       -54.1820   -6.7390   21.3280 C.3       1 BGZ         0.0600
     18 C25       -54.9000   -5.5870   19.1870 C.3       1 BGZ        -0.0576
     19 C24       -55.2800   -6.6010   20.2650 C.3       1 BGZ         0.0109
     20 C28       -55.3590   -5.0800   22.8420 C.3       1 BGZ        -0.0629
     21 O7        -56.8890   -8.5430   20.0910 O.3       1 BGZ        -0.3677
     22 C27       -54.0770   -5.4560   22.1310 C.3       1 BGZ        -0.0294
     23 O2        -50.2750   -6.6770   13.6010 O.2       1 BGZ        -0.3701
     24 O1        -51.4720   -4.8060   13.2780 O.3       1 BGZ        -0.2547
     25 O3        -48.1750   -6.6820   11.3060 O.3       1 BGZ        -0.3893
     26 O4        -49.2700   -0.6330   11.6550 O.3       1 BGZ        -0.3841
     27 C23       -55.6440   -7.9590   19.6560 C.3       1 BGZ         0.0903
     28 O5        -47.8800   -0.5980   14.1170 O.3       1 BGZ        -0.2613
     29 O6        -47.1770   -1.6650   15.9560 O.2       1 BGZ        -0.3705
     30 C21       -56.8920   -9.0860   17.6330 C.3       1 BGZ        -0.0141
     31 C19       -56.6670   -8.5580   16.2150 C.3       1 BGZ        -0.0237
     32 C20       -56.9610   -9.6320   15.1700 C.3       1 BGZ        -0.0547
     33 C10       -50.1880   -3.0120   14.8890 C.2       1 BGZ        -0.0878
     34 C9        -49.8030   -2.0180   14.1170 C.2       1 BGZ        -0.0623
     35 C8        -48.4230   -1.8410   13.5740 C.3       1 BGZ         0.1334
     36 C29       -47.2580   -0.6600   15.3120 C.2       1 BGZ         0.2327
     37 C30       -46.7010    0.6680   15.6950 C.3       1 BGZ         0.0374
     38 C12       -51.8790   -3.2990   16.6950 C.3       1 BGZ        -0.0507
     39 H1        -52.8529   -6.9393   15.7472 H         1 BGZ         0.0249
     40 H2        -55.3487   -4.6681   14.2272 H         1 BGZ         0.0433
     41 H3        -54.1042   -4.1650   13.0337 H         1 BGZ         0.0433
     42 H4        -54.2622   -3.2849   14.5916 H         1 BGZ         0.0433
     43 H5        -55.8262   -6.3244   15.1016 H         1 BGZ         0.0372
     44 H6        -54.4436   -8.6441   16.5158 H         1 BGZ         0.0473
     45 H7        -51.2953   -5.5391   15.2312 H         1 BGZ         0.0880
     46 H8        -52.2788   -2.6976   14.6757 H         1 BGZ         0.0478
     47 H9        -50.7186   -6.6290   10.9296 H         1 BGZ         0.0544
     48 H10       -50.9446   -4.8490   11.0133 H         1 BGZ         0.0544
     49 H11       -48.8793   -5.3197    9.9150 H         1 BGZ         0.0620
     50 H12       -47.2213   -4.2370   11.3747 H         1 BGZ         0.0293
     51 H13       -48.3034   -4.4829   12.7872 H         1 BGZ         0.0293
     52 H14       -50.0265   -3.0954   11.7095 H         1 BGZ         0.0296
     53 H15       -48.9454   -2.8502   10.2960 H         1 BGZ         0.0296
     54 H16       -46.6181   -0.5332   12.0191 H         1 BGZ         0.0260
     55 H17       -47.0215   -1.3051   10.4481 H         1 BGZ         0.0260
     56 H18       -46.3502   -2.2944   11.7887 H         1 BGZ         0.0260
     57 H19       -52.2515   -7.0826   21.3432 H         1 BGZ         0.2098
     58 H20       -57.2763   -7.1245   18.4209 H         1 BGZ         0.0624
     59 H21       -54.4283   -7.5729   22.0017 H         1 BGZ         0.0596
     60 H22       -55.7106   -5.5178   18.4467 H         1 BGZ         0.0234
     61 H23       -53.9748   -5.9114   18.6883 H         1 BGZ         0.0234
     62 H24       -54.7411   -4.6019   19.6499 H         1 BGZ         0.0234
     63 H25       -56.1783   -6.2179   20.7712 H         1 BGZ         0.0349
     64 H26       -55.2077   -4.1445   23.4005 H         1 BGZ         0.0231
     65 H27       -55.6401   -5.8823   23.5401 H         1 BGZ         0.0231
     66 H28       -56.1610   -4.9398   22.1023 H         1 BGZ         0.0231
     67 H29       -53.8062   -4.6385   21.4466 H         1 BGZ         0.0287
     68 H30       -53.2853   -5.5810   22.8844 H         1 BGZ         0.0287
     69 H31       -48.1807   -6.8238   12.2453 H         1 BGZ         0.2100
     70 H32       -48.9460    0.1725   12.0405 H         1 BGZ         0.2105
     71 H33       -54.7434   -8.5712   19.5007 H         1 BGZ         0.0625
     72 H34       -57.9027   -9.5176   17.6786 H         1 BGZ         0.0316
     73 H35       -56.1481   -9.8733   17.8246 H         1 BGZ         0.0316
     74 H36       -57.3544   -7.7168   16.0420 H         1 BGZ         0.0438
     75 H37       -56.7900   -9.2213   14.1640 H         1 BGZ         0.0254
     76 H38       -58.0085   -9.9551   15.2609 H         1 BGZ         0.0254
     77 H39       -56.2962  -10.4932   15.3322 H         1 BGZ         0.0254
     78 H40       -49.4039   -3.6095   15.3517 H         1 BGZ         0.0456
     79 H41       -50.5472   -1.2676   13.8542 H         1 BGZ         0.0480
     80 H42       -47.7993   -2.6940   13.8795 H         1 BGZ         0.0804
     81 H43       -46.2006    0.5879   16.6713 H         1 BGZ         0.0483
     82 H44       -47.5169    1.4028   15.7604 H         1 BGZ         0.0483
     83 H45       -45.9742    0.9935   14.9362 H         1 BGZ         0.0483
     84 H46       -51.6665   -2.2756   17.0379 H         1 BGZ         0.0255
     85 H47       -51.2319   -4.0076   17.2327 H         1 BGZ         0.0255
     86 H48       -52.9333   -3.5411   16.8946 H         1 BGZ         0.0255
@<TRIPOS>BOND
     1    1    3 2  
     2    4    1 1  
     3    3    2 1  
     4    3    6 1  
     5    5    4 2  
     6   31    5 1  
     7    6    7 1  
     8    6   24 1  
     9    7   33 1  
    10    7   38 1  
    11    8    9 1  
    12   13    8 1  
    13    9   10 1  
    14    9   25 1  
    15   10   11 1  
    16   11   12 1  
    17   12   14 1  
    18   12   26 1  
    19   12   35 1  
    20   13   23 2  
    21   24   13 1  
    22   17   15 1  
    23   16   21 1  
    24   16   27 1  
    25   30   16 1  
    26   19   17 1  
    27   17   22 1  
    28   19   18 1  
    29   27   19 1  
    30   22   20 1  
    31   27   21 1  
    32   35   28 1  
    33   28   36 1  
    34   36   29 2  
    35   30   31 1  
    36   31   32 1  
    37   33   34 2  
    38   34   35 1  
    39   36   37 1  
    40    1   39 1  
    41    2   40 1  
    42    2   41 1  
    43    2   42 1  
    44    4   43 1  
    45    5   44 1  
    46    6   45 1  
    47    7   46 1  
    48    8   47 1  
    49    8   48 1  
    50    9   49 1  
    51   10   50 1  
    52   10   51 1  
    53   11   52 1  
    54   11   53 1  
    55   14   54 1  
    56   14   55 1  
    57   14   56 1  
    58   15   57 1  
    59   16   58 1  
    60   17   59 1  
    61   18   60 1  
    62   18   61 1  
    63   18   62 1  
    64   19   63 1  
    65   20   64 1  
    66   20   65 1  
    67   20   66 1  
    68   22   67 1  
    69   22   68 1  
    70   25   69 1  
    71   26   70 1  
    72   27   71 1  
    73   30   72 1  
    74   30   73 1  
    75   31   74 1  
    76   32   75 1  
    77   32   76 1  
    78   32   77 1  
    79   33   78 1  
    80   34   79 1  
    81   35   80 1  
    82   37   81 1  
    83   37   82 1  
    84   37   83 1  
    85   38   84 1  
    86   38   85 1  
    87   38   86 1  
@<TRIPOS>SUBSTRUCTURE
     1 BGZ         1

