### 
### Created by X-TOOL on Mon Sep 10 21:13:31 2018
### 

@<TRIPOS>MOLECULE
6en5_ligand
   57    58     1     0     0
SMALL
GAST_HUCK


@<TRIPOS>ATOM
      1 C01        -2.3190   29.5000   -0.3620 C.3       1 BJ2        -0.0039
      2 C02        -1.8220   28.6540   -1.5220 C.3       1 BJ2         0.0657
      3 C04        -2.3200   28.1470   -3.8950 C.3       1 BJ2         0.0557
      4 C05        -0.8380   28.5350   -4.2240 C.2       1 BJ2         0.0869
      5 C08        -3.4010   28.6470   -4.9600 C.3       1 BJ2         0.0996
      6 C09        -4.5300   27.8170   -5.0420 C.3       1 BJ2        -0.0209
      7 C10        -3.9550   26.5640   -5.7850 C.3       1 BJ2        -0.0301
      8 C11        -2.9880   27.2230   -6.8430 C.3       1 BJ2         0.0348
      9 C13        -2.2630   29.6020   -7.1590 C.2       1 BJ2         0.2292
     10 C15        -1.7550   29.2450   -8.6250 C.3       1 BJ2         0.0765
     11 C17        -0.2030   29.6630   -8.6640 C.3       1 BJ2         0.0607
     12 C18         0.4940   29.1390   -9.9480 C.2       1 BJ2         0.0425
     13 C21        -1.7530   27.1680   -1.1130 C.2       1 BJ2         0.2285
     14 C24         0.4810   27.5100   -0.0070 C.3       1 BJ2         0.0363
     15 C25         1.5560   26.5060    0.5470 C.3       1 BJ2        -0.0288
     16 C26         0.7130   25.2580    0.9630 C.3       1 BJ2        -0.0159
     17 C27        -0.4180   25.2580    0.1740 C.3       1 BJ2         0.0973
     18 C28        -1.6740   24.9830    0.9970 C.2       1 BJ2         0.0603
     19 N03        -2.7980   28.7950   -2.6460 N.4       1 BJ2         0.2613
     20 N12        -2.8090   28.5050   -6.4150 N.am      1 BJ2        -0.2583
     21 N16        -2.6220   29.9850   -9.5370 N.4       1 BJ2         0.2391
     22 N23        -0.5730   26.7420   -0.3670 N.am      1 BJ2        -0.2529
     23 O06         0.0060   27.6340   -4.5310 O.co2     1 BJ2        -0.5642
     24 O07        -0.4750   29.7730   -4.1720 O.co2     1 BJ2        -0.5642
     25 O14        -2.1780   30.7200   -6.6960 O.2       1 BJ2        -0.3905
     26 O19         1.0530   29.9770  -10.7340 O.co2     1 BJ2        -0.5686
     27 O20         0.4920   27.8970  -10.1720 O.co2     1 BJ2        -0.5686
     28 O22        -2.6230   26.3710   -1.3400 O.2       1 BJ2        -0.3906
     29 O29        -2.2210   23.8570    1.0090 O.co2     1 BJ2        -0.5666
     30 O30        -2.1620   25.9000    1.7020 O.co2     1 BJ2        -0.5666
     31 H1         -2.3623   30.5552   -0.6699 H         1 BJ2         0.0310
     32 H2         -1.6312   29.3946    0.4899 H         1 BJ2         0.0310
     33 H3         -3.3234   29.1629   -0.0662 H         1 BJ2         0.0310
     34 H4         -0.8263   28.9993   -1.8371 H         1 BJ2         0.1096
     35 H5         -2.3688   27.0521   -3.8019 H         1 BJ2         0.1049
     36 H6         -3.6880   29.6842   -4.7325 H         1 BJ2         0.0634
     37 H7         -5.3348   28.2920   -5.6223 H         1 BJ2         0.0291
     38 H8         -4.9056   27.5522   -4.0426 H         1 BJ2         0.0291
     39 H9         -4.7539   25.9900   -6.2772 H         1 BJ2         0.0285
     40 H10        -3.4043   25.9082   -5.0947 H         1 BJ2         0.0285
     41 H11        -3.4452   27.2108   -7.8434 H         1 BJ2         0.0522
     42 H12        -2.0270   26.6886   -6.8725 H         1 BJ2         0.0522
     43 H13        -1.8473   28.1679   -8.8283 H         1 BJ2         0.1117
     44 H14         0.3036   29.2398   -7.7841 H         1 BJ2         0.0512
     45 H15        -0.1273   30.7601   -8.6384 H         1 BJ2         0.0512
     46 H16         0.8753   28.0553   -0.8771 H         1 BJ2         0.0524
     47 H17         0.1862   28.2277    0.7727 H         1 BJ2         0.0524
     48 H18         2.0812   26.9321    1.4145 H         1 BJ2         0.0286
     49 H19         2.2872   26.2441   -0.2320 H         1 BJ2         0.0286
     50 H20         0.4336   25.3269    2.0247 H         1 BJ2         0.0306
     51 H21         1.2914   24.3376    0.7950 H         1 BJ2         0.0306
     52 H22        -0.3213   24.5305   -0.6453 H         1 BJ2         0.0728
     53 H23        -2.9452   29.7758   -2.8260 H         1 BJ2         0.2053
     54 H24        -3.6698   28.3688   -2.3733 H         1 BJ2         0.2053
     55 H25        -3.5697   29.6551   -9.4416 H         1 BJ2         0.2016
     56 H26        -2.3109   29.8436  -10.4853 H         1 BJ2         0.2016
     57 H27        -2.5841   30.9673   -9.3139 H         1 BJ2         0.2016
@<TRIPOS>BOND
     1    2    1 1  
     2   13    2 1  
     3    2   19 1  
     4    3    4 1  
     5    3    5 1  
     6   19    3 1  
     7    4   23 ar 
     8    4   24 ar 
     9    5    6 1  
    10    5   20 1  
    11    6    7 1  
    12    8    7 1  
    13   20    8 1  
    14    9   10 1  
    15   20    9 am 
    16    9   25 2  
    17   10   11 1  
    18   10   21 1  
    19   11   12 1  
    20   12   26 ar 
    21   12   27 ar 
    22   22   13 am 
    23   13   28 2  
    24   14   15 1  
    25   14   22 1  
    26   15   16 1  
    27   16   17 1  
    28   17   18 1  
    29   17   22 1  
    30   18   29 ar 
    31   18   30 ar 
    32    1   31 1  
    33    1   32 1  
    34    1   33 1  
    35    2   34 1  
    36    3   35 1  
    37    5   36 1  
    38    6   37 1  
    39    6   38 1  
    40    7   39 1  
    41    7   40 1  
    42    8   41 1  
    43    8   42 1  
    44   10   43 1  
    45   11   44 1  
    46   11   45 1  
    47   14   46 1  
    48   14   47 1  
    49   15   48 1  
    50   15   49 1  
    51   16   50 1  
    52   16   51 1  
    53   17   52 1  
    54   19   53 1  
    55   19   54 1  
    56   21   55 1  
    57   21   56 1  
    58   21   57 1  
@<TRIPOS>SUBSTRUCTURE
     1 BJ2         1

