### 
### Created by X-TOOL on Wed Jan  1 15:39:36 2020
### 

@<TRIPOS>MOLECULE
6en6_ligand
   57    58     1     0     0
SMALL
GAST_HUCK


@<TRIPOS>ATOM
      1 C01        -2.1230   29.6480   -0.3650 C.3       1 BJ2        -0.0039
      2 C02        -1.6910   28.7440   -1.5120 C.3       1 BJ2         0.0657
      3 C04        -2.1780   28.2060   -3.9040 C.3       1 BJ2         0.0557
      4 C05        -0.7030   28.6010   -4.2620 C.2       1 BJ2         0.0869
      5 C08        -3.2810   28.6360   -4.9700 C.3       1 BJ2         0.0996
      6 C09        -4.3830   27.7850   -5.0420 C.3       1 BJ2        -0.0209
      7 C10        -3.8290   26.5770   -5.8750 C.3       1 BJ2        -0.0301
      8 C11        -2.8300   27.2550   -6.8840 C.3       1 BJ2         0.0348
      9 C13        -2.2160   29.6540   -7.1970 C.2       1 BJ2         0.2292
     10 C15        -1.6750   29.3580   -8.6760 C.3       1 BJ2         0.0765
     11 C17        -0.1020   29.7330   -8.6700 C.3       1 BJ2         0.0607
     12 C18         0.6190   29.2420   -9.9480 C.2       1 BJ2         0.0425
     13 C21        -1.6500   27.2620   -1.0840 C.2       1 BJ2         0.2285
     14 C24         0.6040   27.5070    0.0470 C.3       1 BJ2         0.0363
     15 C25         1.6270   26.4420    0.5710 C.3       1 BJ2        -0.0288
     16 C26         0.7770   25.1880    0.9330 C.3       1 BJ2        -0.0159
     17 C27        -0.3900   25.2850    0.1870 C.3       1 BJ2         0.0973
     18 C28        -1.6300   25.0740    1.0580 C.2       1 BJ2         0.0603
     19 N03        -2.6270   28.9260   -2.6810 N.4       1 BJ2         0.2613
     20 N12        -2.7050   28.5360   -6.4400 N.am      1 BJ2        -0.2583
     21 N16        -2.4570   30.1370   -9.6320 N.4       1 BJ2         0.2391
     22 N23        -0.4760   26.7940   -0.3410 N.am      1 BJ2        -0.2529
     23 O06        -0.2860   29.8060   -4.2420 O.co2     1 BJ2        -0.5642
     24 O07         0.1370   27.6900   -4.5260 O.co2     1 BJ2        -0.5642
     25 O14        -2.1660   30.7440   -6.7090 O.2       1 BJ2        -0.3905
     26 O19         0.6460   27.9770  -10.1420 O.co2     1 BJ2        -0.5686
     27 O20         1.1550   30.0860  -10.7570 O.co2     1 BJ2        -0.5686
     28 O22        -2.5500   26.4770   -1.3080 O.2       1 BJ2        -0.3906
     29 O29        -2.0820   26.0520    1.7230 O.co2     1 BJ2        -0.5666
     30 O30        -2.2120   23.9660    1.1330 O.co2     1 BJ2        -0.5666
     31 H1         -2.1400   30.6930   -0.7082 H         1 BJ2         0.0310
     32 H2         -1.4126   29.5474    0.4688 H         1 BJ2         0.0310
     33 H3         -3.1285   29.3567   -0.0272 H         1 BJ2         0.0310
     34 H4         -0.6785   29.0400   -1.8237 H         1 BJ2         0.1096
     35 H5         -2.2136   27.1172   -3.7513 H         1 BJ2         0.1049
     36 H6         -3.6064   29.6616   -4.7414 H         1 BJ2         0.0634
     37 H7         -5.2256   28.2693   -5.5572 H         1 BJ2         0.0291
     38 H8         -4.7021   27.4630   -4.0398 H         1 BJ2         0.0291
     39 H9         -4.6409   26.0634   -6.4107 H         1 BJ2         0.0285
     40 H10        -3.3059   25.8589   -5.2264 H         1 BJ2         0.0285
     41 H11        -3.2384   27.2368   -7.9052 H         1 BJ2         0.0522
     42 H12        -1.8566   26.7428   -6.8691 H         1 BJ2         0.0522
     43 H13        -1.7906   28.2903   -8.9141 H         1 BJ2         0.1117
     44 H14         0.3708   29.2647   -7.7941 H         1 BJ2         0.0512
     45 H15         0.0017   30.8260   -8.6022 H         1 BJ2         0.0512
     46 H16         1.0260   28.0627   -0.8033 H         1 BJ2         0.0524
     47 H17         0.3348   28.2112    0.8480 H         1 BJ2         0.0524
     48 H18         2.1526   26.8195    1.4605 H         1 BJ2         0.0286
     49 H19         2.3601   26.1962   -0.2114 H         1 BJ2         0.0286
     50 H20         0.5435   25.1825    2.0079 H         1 BJ2         0.0306
     51 H21         1.3219   24.2690    0.6714 H         1 BJ2         0.0306
     52 H22        -0.3747   24.5658   -0.6452 H         1 BJ2         0.0728
     53 H23        -2.6895   29.9096   -2.8923 H         1 BJ2         0.2053
     54 H24        -3.5371   28.5798   -2.4206 H         1 BJ2         0.2053
     55 H25        -3.4235   29.8548   -9.5845 H         1 BJ2         0.2016
     56 H26        -2.1056   29.9770  -10.5631 H         1 BJ2         0.2016
     57 H27        -2.3818   31.1170   -9.4083 H         1 BJ2         0.2016
@<TRIPOS>BOND
     1    2    1 1  
     2   13    2 1  
     3    2   19 1  
     4    3    4 1  
     5    3    5 1  
     6   19    3 1  
     7    4   23 ar 
     8    4   24 ar 
     9    5    6 1  
    10    5   20 1  
    11    6    7 1  
    12    8    7 1  
    13   20    8 1  
    14    9   10 1  
    15   20    9 am 
    16    9   25 2  
    17   10   11 1  
    18   10   21 1  
    19   11   12 1  
    20   12   26 ar 
    21   12   27 ar 
    22   22   13 am 
    23   13   28 2  
    24   14   15 1  
    25   14   22 1  
    26   15   16 1  
    27   16   17 1  
    28   17   18 1  
    29   17   22 1  
    30   18   29 ar 
    31   18   30 ar 
    32    1   31 1  
    33    1   32 1  
    34    1   33 1  
    35    2   34 1  
    36    3   35 1  
    37    5   36 1  
    38    6   37 1  
    39    6   38 1  
    40    7   39 1  
    41    7   40 1  
    42    8   41 1  
    43    8   42 1  
    44   10   43 1  
    45   11   44 1  
    46   11   45 1  
    47   14   46 1  
    48   14   47 1  
    49   15   48 1  
    50   15   49 1  
    51   16   50 1  
    52   16   51 1  
    53   17   52 1  
    54   19   53 1  
    55   19   54 1  
    56   21   55 1  
    57   21   56 1  
    58   21   57 1  
@<TRIPOS>SUBSTRUCTURE
     1 BJ2         1

