### 
### Created by X-TOOL on Wed Jan  1 15:39:35 2020
### 

@<TRIPOS>MOLECULE
6enm_ligand
   47    49     1     0     0
SMALL
GAST_HUCK


@<TRIPOS>ATOM
      1 O3          5.4770    0.6600    8.9130 O.2       1 LPW        -0.3940
      2 C24         5.6830    1.0850    7.7480 C.2       1 LPW         0.2104
      3 N1          6.8480    1.2400    7.2080 N.am      1 LPW        -0.1626
      4 ON1         7.8850    0.8990    8.0190 O.3       1 LPW        -0.2716
      5 C23         4.5360    1.3700    6.8130 C.3       1 LPW         0.0738
      6 C22         3.3530    1.8750    7.6360 C.ar      1 LPW         0.0008
      7 C21         2.5110    0.9270    8.1210 C.ar      1 LPW        -0.0562
      8 C20         1.4070    1.2540    8.8890 C.ar      1 LPW        -0.0680
      9 C19         1.1680    2.5310    9.1760 C.ar      1 LPW        -0.0666
     10 C18         1.9660    3.5320    8.7090 C.ar      1 LPW        -0.0429
     11 C17         3.1170    3.2210    7.9110 C.ar      1 LPW         0.0969
     12 S1          4.0920    4.5120    7.4180 S.o2      1 LPW         0.0223
     13 OSB         3.2240    5.6180    7.3580 O.2       1 LPW        -0.1655
     14 OSA         4.7760    4.2350    6.2450 O.2       1 LPW        -0.1655
     15 C13         5.1560    4.8410    8.6420 C.ar      1 LPW         0.0910
     16 C12         6.5490    4.9010    8.3940 C.ar      1 LPW        -0.0377
     17 C11         7.4390    5.2970    9.3610 C.ar      1 LPW        -0.0549
     18 C10         7.0530    5.6140   10.6250 C.ar      1 LPW        -0.0246
     19 C15         5.6400    5.6340   10.8920 C.ar      1 LPW        -0.0549
     20 C14         4.7290    5.2060    9.9130 C.ar      1 LPW        -0.0377
     21 C4          7.9180    6.1980   11.6860 C.ar      1 LPW        -0.0279
     22 C3          8.8420    7.1390   11.2360 C.ar      1 LPW        -0.0616
     23 C2          9.6320    7.8450   12.1540 C.ar      1 LPW        -0.0312
     24 C1          9.4270    7.7280   13.5230 C.ar      1 LPW         0.0926
     25 OA         10.1910    8.4650   14.3740 O.3       1 LPW        -0.3200
     26 C8          9.7720    8.6020   15.7400 C.3       1 LPW         0.0599
     27 C6          8.4690    6.7620   13.9600 C.ar      1 LPW        -0.0312
     28 C5          7.6850    6.0750   13.0540 C.ar      1 LPW        -0.0616
     29 H1          6.9750    1.5805    6.2764 H         1 LPW         0.2218
     30 H2          8.7044    1.0378    7.5588 H         1 LPW         0.2490
     31 H3          4.2524    0.4492    6.2823 H         1 LPW         0.0659
     32 H4          4.8343    2.1369    6.0830 H         1 LPW         0.0659
     33 H5          2.7089   -0.1157    7.9005 H         1 LPW         0.0561
     34 H6          0.7438    0.4776    9.2530 H         1 LPW         0.0600
     35 H7          0.3161    2.7817    9.7977 H         1 LPW         0.0562
     36 H8          1.7309    4.5645    8.9407 H         1 LPW         0.0619
     37 H9          6.9225    4.6268    7.4140 H         1 LPW         0.0633
     38 H10         8.4909    5.3593    9.1066 H         1 LPW         0.0609
     39 H11         5.2769    5.9808   11.8527 H         1 LPW         0.0609
     40 H12         3.6730    5.1594   10.1531 H         1 LPW         0.0633
     41 H13         8.9502    7.3255   10.1737 H         1 LPW         0.0601
     42 H14        10.4185    8.4952   11.7883 H         1 LPW         0.0548
     43 H15        10.4971    9.2240   16.2853 H         1 LPW         0.0579
     44 H16         9.7165    7.6081   16.2080 H         1 LPW         0.0579
     45 H17         8.7814    9.0790   15.7736 H         1 LPW         0.0579
     46 H18         8.3558    6.5652   15.0200 H         1 LPW         0.0548
     47 H19         6.8841    5.4367   13.4092 H         1 LPW         0.0601
@<TRIPOS>BOND
     1    1    2 2  
     2    2    3 am 
     3    2    5 1  
     4    3    4 1  
     5    5    6 1  
     6    6    7 ar 
     7    6   11 ar 
     8    7    8 ar 
     9    8    9 ar 
    10    9   10 ar 
    11   10   11 ar 
    12   11   12 1  
    13   12   13 2  
    14   12   14 2  
    15   12   15 1  
    16   15   16 ar 
    17   15   20 ar 
    18   16   17 ar 
    19   17   18 ar 
    20   18   19 ar 
    21   18   21 1  
    22   19   20 ar 
    23   21   22 ar 
    24   21   28 ar 
    25   22   23 ar 
    26   23   24 ar 
    27   24   25 1  
    28   24   27 ar 
    29   25   26 1  
    30   27   28 ar 
    31    3   29 1  
    32    4   30 1  
    33    5   31 1  
    34    5   32 1  
    35    7   33 1  
    36    8   34 1  
    37    9   35 1  
    38   10   36 1  
    39   16   37 1  
    40   17   38 1  
    41   19   39 1  
    42   20   40 1  
    43   22   41 1  
    44   23   42 1  
    45   26   43 1  
    46   26   44 1  
    47   26   45 1  
    48   27   46 1  
    49   28   47 1  
@<TRIPOS>SUBSTRUCTURE
     1 LPW         1

