### 
### Created by X-TOOL on Mon Sep 10 21:13:33 2018
### 

@<TRIPOS>MOLECULE
6eo8_ligand
   90    94     1     0     0
SMALL
GAST_HUCK


@<TRIPOS>ATOM
      1 C2         15.5660   27.8390   11.6770 C.2       1 2FN         0.0959
      2 C4         16.4830   26.8860   11.4860 C.2       1 2FN        -0.0591
      3 C5         16.3480   25.8470   12.3330 C.2       1 2FN        -0.0635
      4 C6         15.3250   25.9940   13.1810 C.2       1 2FN         0.0719
      5 O8         14.3560   25.4380   15.2750 O.3       1 2FN        -0.1786
      6 C7         14.9740   25.1150   14.1160 C.2       1 2FN         0.1597
      7 O31        10.5500   19.1970   13.3640 O.2       1 2FN        -0.3875
      8 C21        10.9720   20.2360   12.8590 C.2       1 2FN         0.2012
      9 C22        10.0130   21.2720   12.2700 C.3       1 2FN         0.0629
     10 C30         9.8790   21.0470   10.7730 C.3       1 2FN         0.0078
     11 C29         8.8660   22.0260   10.2020 C.3       1 2FN        -0.0293
     12 N25         7.5530   21.8600   10.8430 N.4       1 2FN         0.2372
     13 C26         6.5980   22.8130   10.2600 C.3       1 2FN        -0.0266
     14 C28         6.8640   23.0100    8.7660 C.3       1 2FN        -0.0218
     15 C27         5.1580   22.3400   10.4640 C.3       1 2FN        -0.0218
     16 C24         7.6760   22.1100   12.2860 C.3       1 2FN        -0.0293
     17 C23         8.6500   21.1340   12.9280 C.3       1 2FN         0.0078
     18 N20        12.2710   20.5550   12.7760 N.am      1 2FN        -0.2405
     19 C19        13.1430   19.6840   13.2760 C.ar      1 2FN         0.1258
     20 C14        13.8000   19.9820   14.4580 C.ar      1 2FN         0.1070
     21 O13        13.5090   21.1730   15.0480 O.3       1 2FN        -0.3161
     22 C12        14.7170   21.7870   15.5050 C.3       1 2FN         0.1055
     23 C11        14.6920   23.2790   15.1650 C.2       1 2FN         0.0557
     24 N9         14.1780   24.2210   15.9530 N.2       1 2FN        -0.1567
     25 C10        15.1810   23.8040   14.0440 C.2       1 2FN        -0.0207
     26 S3         14.5720   27.4120   12.8970 S.3       1 2FN        -0.0237
     27 CL1        15.4500   29.3060   10.7680 Cl        1 2FN        -0.0551
     28 C18        13.3750   18.4940   12.6040 C.ar      1 2FN         0.1045
     29 C17        14.2850   17.5790   13.1220 C.ar      1 2FN        -0.0567
     30 C16        14.9480   17.8770   14.3120 C.ar      1 2FN        -0.0940
     31 C15        14.7120   19.0750   14.9860 C.ar      1 2FN        -0.0565
     32 O32        12.6850   18.2860   11.4510 O.3       1 2FN        -0.3275
     33 C33        12.0210   17.0210   11.5150 C.3       1 2FN         0.0688
     34 C34        11.2000   16.8110   10.2410 C.3       1 2FN        -0.0020
     35 C35        11.5740   15.4690    9.6080 C.3       1 2FN         0.0532
     36 O36        12.9500   15.4910    9.2220 O.3       1 2FN        -0.3486
     37 C37        13.0860   14.9540    7.8980 C.3       1 2FN         0.1879
     38 C46        12.7720   16.0370    6.8780 C.3       1 2FN         0.1341
     39 O47        11.4250   16.4950    7.0650 O.3       1 2FN        -0.3841
     40 C44        12.9250   15.4720    5.4750 C.3       1 2FN         0.1141
     41 O45        12.7610   16.5260    4.5140 O.3       1 2FN        -0.3864
     42 C42        14.3070   14.8580    5.3230 C.3       1 2FN         0.1119
     43 O42        14.4050   14.2080    4.0470 O.3       1 2FN        -0.3865
     44 C39        14.5330   13.8400    6.4290 C.3       1 2FN         0.1130
     45 O38        14.4290   14.4890    7.7050 O.3       1 2FN        -0.3405
     46 C40        15.9270   13.2260    6.2800 C.3       1 2FN         0.0730
     47 O41        15.9040   12.2360    5.2480 O.3       1 2FN        -0.3924
     48 H1         17.2593   26.9432   10.7244 H         1 2FN         0.0439
     49 H2         17.0040   24.9778   12.3274 H         1 2FN         0.0451
     50 H3         10.4076   22.2821   12.4542 H         1 2FN         0.0545
     51 H4          9.5397   20.0175   10.5859 H         1 2FN         0.0344
     52 H5         10.8544   21.2052   10.2897 H         1 2FN         0.0344
     53 H6          8.7636   21.8482    9.1213 H         1 2FN         0.0816
     54 H7          9.2223   23.0526   10.3726 H         1 2FN         0.0816
     55 H8          7.2228   20.9196   10.6925 H         1 2FN         0.2036
     56 H9          6.7234   23.7805   10.7681 H         1 2FN         0.0846
     57 H10         6.1370   23.7262    8.3555 H         1 2FN         0.0284
     58 H11         6.7633   22.0463    8.2454 H         1 2FN         0.0284
     59 H12         7.8828   23.3992    8.6231 H         1 2FN         0.0284
     60 H13         4.4658   23.0700   10.0192 H         1 2FN         0.0284
     61 H14         4.9514   22.2476   11.5405 H         1 2FN         0.0284
     62 H15         5.0210   21.3622    9.9791 H         1 2FN         0.0284
     63 H16         6.6885   21.9942   12.7565 H         1 2FN         0.0816
     64 H17         8.0392   23.1363   12.4435 H         1 2FN         0.0816
     65 H18         8.7371   21.3559   14.0019 H         1 2FN         0.0344
     66 H19         8.2808   20.1065   12.7946 H         1 2FN         0.0344
     67 H20        12.5718   21.4113   12.3561 H         1 2FN         0.2183
     68 H21        15.5784   21.3131   15.0117 H         1 2FN         0.0757
     69 H22        14.8030   21.6607   16.5943 H         1 2FN         0.0757
     70 H23        15.6578   23.2646   13.2269 H         1 2FN         0.0373
     71 H24        14.4768   16.6448   12.6067 H         1 2FN         0.0412
     72 H25        15.6579   17.1664   14.7196 H         1 2FN         0.0436
     73 H26        15.2333   19.2963   15.9103 H         1 2FN         0.0412
     74 H27        11.3533   17.0011   12.3889 H         1 2FN         0.0608
     75 H28        12.7682   16.2189   11.6061 H         1 2FN         0.0608
     76 H29        11.4120   17.6233    9.5302 H         1 2FN         0.0313
     77 H30        10.1287   16.8126   10.4908 H         1 2FN         0.0313
     78 H31        10.9472   15.2946    8.7210 H         1 2FN         0.0562
     79 H32        11.4106   14.6616   10.3369 H         1 2FN         0.0562
     80 H33        12.3861   14.1152    7.7691 H         1 2FN         0.0937
     81 H34        13.4672   16.8789    7.0118 H         1 2FN         0.0671
     82 H35        11.2303   17.1715    6.4271 H         1 2FN         0.2101
     83 H36        12.1604   14.6995    5.3057 H         1 2FN         0.0648
     84 H37        12.8568   16.1718    3.6377 H         1 2FN         0.2100
     85 H38        15.0689   15.6485    5.3911 H         1 2FN         0.0647
     86 H39        15.2693   13.8248    3.9536 H         1 2FN         0.2100
     87 H40        13.7739   13.0471    6.3582 H         1 2FN         0.0647
     88 H41        16.2252   12.7585    7.2300 H         1 2FN         0.0584
     89 H42        16.6483   14.0136    6.0165 H         1 2FN         0.0584
     90 H43        15.6463   12.6408    4.4281 H         1 2FN         0.2095
@<TRIPOS>BOND
     1    1    2 2  
     2   26    1 1  
     3    1   27 1  
     4    3    2 1  
     5    4    3 2  
     6    6    4 1  
     7    4   26 1  
     8    5    6 1  
     9   24    5 1  
    10    6   25 2  
    11    8    7 2  
    12    8    9 1  
    13   18    8 am 
    14    9   10 1  
    15    9   17 1  
    16   10   11 1  
    17   11   12 1  
    18   12   13 1  
    19   16   12 1  
    20   13   14 1  
    21   13   15 1  
    22   17   16 1  
    23   19   18 1  
    24   20   19 ar 
    25   19   28 ar 
    26   21   20 1  
    27   20   31 ar 
    28   22   21 1  
    29   23   22 1  
    30   23   24 2  
    31   23   25 1  
    32   28   29 ar 
    33   28   32 1  
    34   29   30 ar 
    35   30   31 ar 
    36   32   33 1  
    37   33   34 1  
    38   34   35 1  
    39   35   36 1  
    40   36   37 1  
    41   37   38 1  
    42   37   45 1  
    43   38   39 1  
    44   38   40 1  
    45   40   41 1  
    46   40   42 1  
    47   42   43 1  
    48   42   44 1  
    49   44   45 1  
    50   44   46 1  
    51   46   47 1  
    52    2   48 1  
    53    3   49 1  
    54    9   50 1  
    55   10   51 1  
    56   10   52 1  
    57   11   53 1  
    58   11   54 1  
    59   12   55 1  
    60   13   56 1  
    61   14   57 1  
    62   14   58 1  
    63   14   59 1  
    64   15   60 1  
    65   15   61 1  
    66   15   62 1  
    67   16   63 1  
    68   16   64 1  
    69   17   65 1  
    70   17   66 1  
    71   18   67 1  
    72   22   68 1  
    73   22   69 1  
    74   25   70 1  
    75   29   71 1  
    76   30   72 1  
    77   31   73 1  
    78   33   74 1  
    79   33   75 1  
    80   34   76 1  
    81   34   77 1  
    82   35   78 1  
    83   35   79 1  
    84   37   80 1  
    85   38   81 1  
    86   39   82 1  
    87   40   83 1  
    88   41   84 1  
    89   42   85 1  
    90   43   86 1  
    91   44   87 1  
    92   46   88 1  
    93   46   89 1  
    94   47   90 1  
@<TRIPOS>SUBSTRUCTURE
     1 2FN         1

