### 
### Created by X-TOOL on Mon Sep 10 21:13:33 2018
### 

@<TRIPOS>MOLECULE
6eo9_ligand
  110   114     1     0     0
SMALL
GAST_HUCK


@<TRIPOS>ATOM
      1 CL1        15.2550   -6.5960   10.6420 Cl        1 2OJ        -0.0551
      2 C2         15.4890   -8.0980   11.6090 C.2       1 2OJ         0.0959
      3 S3         14.5980   -8.4750   12.9280 S.3       1 2OJ        -0.0237
      4 C4         16.3690   -9.0960   11.3840 C.2       1 2OJ        -0.0591
      5 C5         16.2760  -10.0920   12.2910 C.2       1 2OJ        -0.0635
      6 C6         15.3510   -9.8530   13.2260 C.2       1 2OJ         0.0719
      7 C7         15.0160  -10.6550   14.1870 C.2       1 2OJ         0.1597
      8 O8         14.3870  -10.3460   15.1330 O.3       1 2OJ        -0.1786
      9 N9         14.1590  -11.3700   15.8760 N.2       1 2OJ        -0.1567
     10 C10        15.2410  -11.9630   14.1720 C.2       1 2OJ        -0.0207
     11 C11        14.7030  -12.4220   15.2780 C.2       1 2OJ         0.0557
     12 C12        14.6970  -13.9120   15.7290 C.3       1 2OJ         0.1055
     13 O13        13.5890  -14.6380   15.1240 O.3       1 2OJ        -0.3161
     14 C14        13.7560  -15.8930   14.5550 C.ar      1 2OJ         0.1070
     15 C15        14.6830  -16.8310   14.9710 C.ar      1 2OJ        -0.0565
     16 C16        14.7800  -18.0680   14.3300 C.ar      1 2OJ        -0.0940
     17 C17        13.9350  -18.4140   13.2750 C.ar      1 2OJ        -0.0567
     18 C19        12.9370  -16.2570   13.4820 C.ar      1 2OJ         0.1258
     19 N20        12.0500  -15.4190   13.0280 N.am      1 2OJ        -0.2405
     20 C21        10.7860  -15.7660   13.0980 C.2       1 2OJ         0.2012
     21 C22         9.8520  -14.7650   12.4050 C.3       1 2OJ         0.0629
     22 C23         8.5560  -14.7840   13.0450 C.3       1 2OJ         0.0078
     23 C24         7.7700  -13.7190   12.4210 C.3       1 2OJ        -0.0293
     24 N25         7.4740  -13.9950   11.0130 N.4       1 2OJ         0.2372
     25 C26         6.8150  -12.7910   10.5070 C.3       1 2OJ        -0.0266
     26 C27         5.3240  -12.9560   10.5600 C.3       1 2OJ        -0.0218
     27 C28         7.1490  -12.4510    9.0910 C.3       1 2OJ        -0.0218
     28 C29         8.6950  -14.2380   10.2600 C.3       1 2OJ        -0.0293
     29 C30         9.6480  -15.1740   10.9840 C.3       1 2OJ         0.0078
     30 O31        10.3690  -16.7630   13.6800 O.2       1 2OJ        -0.3875
     31 C18        13.0130  -17.4850   12.8180 C.ar      1 2OJ         0.1045
     32 O32        12.1080  -17.7330   11.7980 O.3       1 2OJ        -0.3275
     33 C33        12.4410  -18.2550   10.5320 C.3       1 2OJ         0.0688
     34 C34        11.3430  -19.2080   10.0120 C.3       1 2OJ        -0.0020
     35 C35         9.9320  -18.8310   10.5000 C.3       1 2OJ         0.0532
     36 O36         9.0050  -19.9070   10.2990 O.3       1 2OJ        -0.3483
     37 C37         7.9520  -19.7850    9.2680 C.3       1 2OJ         0.1931
     38 O38         7.0160  -18.6160    9.2160 O.3       1 2OJ        -0.3394
     39 C46         7.1520  -21.0760    9.3280 C.3       1 2OJ         0.1712
     40 O47         8.0460  -22.2440    9.3250 O.3       1 2OJ        -0.2655
     41 C85         8.0710  -22.7850   10.5690 C.2       1 2OJ         0.2311
     42 O86         8.9060  -22.5050   11.4240 O.2       1 2OJ        -0.3707
     43 C87         6.9600  -23.8160   10.8670 C.3       1 2OJ         0.0372
     44 C44         6.2380  -21.1650    8.1240 C.3       1 2OJ         0.1556
     45 O45         5.5780  -22.4450    8.2100 O.3       1 2OJ        -0.2675
     46 C88         5.4200  -22.7960    6.9240 C.2       1 2OJ         0.2310
     47 C89         6.6060  -23.5430    6.3230 C.3       1 2OJ         0.0372
     48 O90         4.4430  -22.4850    6.2650 O.2       1 2OJ        -0.3707
     49 C42         5.2120  -20.0530    8.1670 C.3       1 2OJ         0.1495
     50 O42         4.2310  -20.0660    7.0290 O.3       1 2OJ        -0.2679
     51 C91         2.9720  -19.6770    7.4050 C.2       1 2OJ         0.2310
     52 C92         2.5150  -20.2190    8.7530 C.3       1 2OJ         0.0372
     53 O93         2.2310  -18.9520    6.7400 O.2       1 2OJ        -0.3707
     54 C39         5.9260  -18.7270    8.1820 C.3       1 2OJ         0.1227
     55 C40         4.7950  -17.6780    8.3100 C.3       1 2OJ         0.1059
     56 O41         4.9180  -16.7330    7.2710 O.3       1 2OJ        -0.2743
     57 C94         3.6630  -16.2250    6.9420 C.2       1 2OJ         0.2307
     58 O96         2.6220  -16.3690    7.5940 O.2       1 2OJ        -0.3707
     59 C95         3.6350  -15.4090    5.6550 C.3       1 2OJ         0.0372
     60 H1         17.0790   -9.0979   10.5583 H         1 2OJ         0.0439
     61 H2         16.8881  -10.9923   12.2637 H         1 2OJ         0.0451
     62 H3         15.7616  -12.5343   13.4048 H         1 2OJ         0.0373
     63 H4         14.6000  -13.9557   16.8238 H         1 2OJ         0.0757
     64 H5         15.6436  -14.3831   15.4256 H         1 2OJ         0.0757
     65 H6         15.3405  -16.6040   15.8024 H         1 2OJ         0.0412
     66 H7         15.5305  -18.7770   14.6604 H         1 2OJ         0.0436
     67 H8         13.9985  -19.3954   12.8191 H         1 2OJ         0.0412
     68 H9         12.3229  -14.5393   12.6385 H         1 2OJ         0.2183
     69 H10        10.2861  -13.7554   12.4531 H         1 2OJ         0.0545
     70 H11         8.6618  -14.5962   14.1237 H         1 2OJ         0.0344
     71 H12         8.0688  -15.7577   12.8883 H         1 2OJ         0.0344
     72 H13         8.3363  -12.7781   12.4850 H         1 2OJ         0.0816
     73 H14         6.8211  -13.6138   12.9674 H         1 2OJ         0.0816
     74 H15         6.8643  -14.7937   10.9332 H         1 2OJ         0.2036
     75 H16         7.1133  -11.9490   11.1489 H         1 2OJ         0.0846
     76 H17         4.8405  -12.0451   10.1773 H         1 2OJ         0.0284
     77 H18         5.0108  -13.1279   11.6004 H         1 2OJ         0.0284
     78 H19         5.0280  -13.8158    9.9411 H         1 2OJ         0.0284
     79 H20         6.6120  -11.5371    8.7969 H         1 2OJ         0.0284
     80 H21         6.8483  -13.2804    8.4340 H         1 2OJ         0.0284
     81 H22         8.2325  -12.2851    8.9995 H         1 2OJ         0.0284
     82 H23         9.2035  -13.2771   10.0926 H         1 2OJ         0.0816
     83 H24         8.4289  -14.6857    9.2911 H         1 2OJ         0.0816
     84 H25         9.2323  -16.1922   10.9625 H         1 2OJ         0.0344
     85 H26        10.6190  -15.1633   10.4672 H         1 2OJ         0.0344
     86 H27        13.3883  -18.8086   10.6105 H         1 2OJ         0.0608
     87 H28        12.5599  -17.4237    9.8215 H         1 2OJ         0.0608
     88 H29        11.5719  -20.2269   10.3577 H         1 2OJ         0.0313
     89 H30        11.3508  -19.1835    8.9123 H         1 2OJ         0.0313
     90 H31         9.5837  -17.9494    9.9419 H         1 2OJ         0.0562
     91 H32         9.9761  -18.5920   11.5728 H         1 2OJ         0.0562
     92 H33         8.4856  -19.7602    8.3064 H         1 2OJ         0.0941
     93 H34         6.5490  -21.0826   10.2480 H         1 2OJ         0.0732
     94 H35         7.0725  -24.1892   11.8956 H         1 2OJ         0.0483
     95 H36         7.0404  -24.6560   10.1614 H         1 2OJ         0.0483
     96 H37         5.9760  -23.3370   10.7564 H         1 2OJ         0.0483
     97 H38         6.8212  -21.0953    7.1940 H         1 2OJ         0.0712
     98 H39         6.3901  -23.7894    5.2729 H         1 2OJ         0.0483
     99 H40         6.7803  -24.4701    6.8888 H         1 2OJ         0.0483
    100 H41         7.5030  -22.9083    6.3737 H         1 2OJ         0.0483
    101 H42         4.6420  -20.1596    9.1017 H         1 2OJ         0.0708
    102 H43         1.4994  -19.8559    8.9689 H         1 2OJ         0.0483
    103 H44         3.2026  -19.8739    9.5392 H         1 2OJ         0.0483
    104 H45         2.5129  -21.3186    8.7245 H         1 2OJ         0.0483
    105 H46         6.4133  -18.5875    7.2057 H         1 2OJ         0.0654
    106 H47         4.8743  -17.1685    9.2817 H         1 2OJ         0.0640
    107 H48         3.8186  -18.1793    8.2374 H         1 2OJ         0.0640
    108 H49         2.6121  -15.0483    5.4717 H         1 2OJ         0.0483
    109 H50         3.9575  -16.0400    4.8137 H         1 2OJ         0.0483
    110 H51         4.3151  -14.5497    5.7507 H         1 2OJ         0.0483
@<TRIPOS>BOND
     1    1    2 1  
     2    2    3 1  
     3    2    4 2  
     4    3    6 1  
     5    4    5 1  
     6    5    6 2  
     7    6    7 1  
     8    7    8 1  
     9    7   10 2  
    10    8    9 1  
    11    9   11 2  
    12   10   11 1  
    13   11   12 1  
    14   12   13 1  
    15   13   14 1  
    16   14   15 ar 
    17   14   18 ar 
    18   15   16 ar 
    19   16   17 ar 
    20   17   31 ar 
    21   18   19 1  
    22   18   31 ar 
    23   19   20 am 
    24   20   21 1  
    25   20   30 2  
    26   21   22 1  
    27   21   29 1  
    28   22   23 1  
    29   23   24 1  
    30   24   25 1  
    31   24   28 1  
    32   25   26 1  
    33   25   27 1  
    34   28   29 1  
    35   31   32 1  
    36   32   33 1  
    37   33   34 1  
    38   34   35 1  
    39   35   36 1  
    40   36   37 1  
    41   37   38 1  
    42   37   39 1  
    43   38   54 1  
    44   39   40 1  
    45   39   44 1  
    46   40   41 1  
    47   41   42 2  
    48   41   43 1  
    49   44   45 1  
    50   44   49 1  
    51   45   46 1  
    52   46   47 1  
    53   46   48 2  
    54   49   50 1  
    55   49   54 1  
    56   50   51 1  
    57   51   52 1  
    58   51   53 2  
    59   54   55 1  
    60   55   56 1  
    61   56   57 1  
    62   57   58 2  
    63   57   59 1  
    64    4   60 1  
    65    5   61 1  
    66   10   62 1  
    67   12   63 1  
    68   12   64 1  
    69   15   65 1  
    70   16   66 1  
    71   17   67 1  
    72   19   68 1  
    73   21   69 1  
    74   22   70 1  
    75   22   71 1  
    76   23   72 1  
    77   23   73 1  
    78   24   74 1  
    79   25   75 1  
    80   26   76 1  
    81   26   77 1  
    82   26   78 1  
    83   27   79 1  
    84   27   80 1  
    85   27   81 1  
    86   28   82 1  
    87   28   83 1  
    88   29   84 1  
    89   29   85 1  
    90   33   86 1  
    91   33   87 1  
    92   34   88 1  
    93   34   89 1  
    94   35   90 1  
    95   35   91 1  
    96   37   92 1  
    97   39   93 1  
    98   43   94 1  
    99   43   95 1  
   100   43   96 1  
   101   44   97 1  
   102   47   98 1  
   103   47   99 1  
   104   47  100 1  
   105   49  101 1  
   106   52  102 1  
   107   52  103 1  
   108   52  104 1  
   109   54  105 1  
   110   55  106 1  
   111   55  107 1  
   112   59  108 1  
   113   59  109 1  
   114   59  110 1  
@<TRIPOS>SUBSTRUCTURE
     1 2OJ         1

