### 
### Created by X-TOOL on Wed Jan  1 15:39:34 2020
### 

@<TRIPOS>MOLECULE
6eog_ligand
   49    52     1     0     0
SMALL
GAST_HUCK


@<TRIPOS>ATOM
      1 C1        -17.3340    7.5260   -1.6710 C.3       1 BKK         0.1475
      2 C2        -19.3540    6.3500   -0.9040 C.3       1 BKK         0.1124
      3 C3        -18.1100    8.8250   -1.5850 C.3       1 BKK         0.1287
      4 C4        -19.5870    8.4890   -1.7970 C.3       1 BKK         0.1462
      5 C5        -19.9700    5.3880    0.1080 C.3       1 BKK         0.0730
      6 C6        -15.2090    8.1860   -0.3820 C.2       1 BKK         0.0867
      7 C10       -11.4880    8.6940   -0.5880 C.ar      1 BKK        -0.0318
      8 C11       -11.6840    8.7300    2.1450 C.ar      1 BKK         0.1601
      9 C12       -10.4510    8.9160    1.5670 C.ar      1 BKK         0.1939
     10 C13       -10.3630    8.9280    0.1290 C.ar      1 BKK         0.1601
     11 C14       -23.7370    7.6190   -4.5000 C.ar      1 BKK        -0.0547
     12 C15       -22.9760    8.7060   -4.9130 C.ar      1 BKK        -0.0673
     13 C7        -13.8870    8.1760   -0.7510 C.2       1 BKK         0.0655
     14 C8        -12.7050    8.4940    0.0440 C.ar      1 BKK        -0.0269
     15 C9        -12.7920    8.4220    1.4190 C.ar      1 BKK        -0.0318
     16 CL        -24.4870    5.8050   -2.6350 Cl        1 BKK        -0.0725
     17 C19       -23.5230    7.2050   -3.1890 C.ar      1 BKK         0.0346
     18 C18       -22.5970    7.8540   -2.3530 C.ar      1 BKK        -0.0359
     19 C17       -21.8370    8.9760   -2.7970 C.ar      1 BKK         0.0184
     20 C16       -22.0810    9.3640   -4.1220 C.ar      1 BKK        -0.0496
     21 S         -20.6640    9.8200   -1.8240 S.3       1 BKK        -0.0674
     22 O2        -20.0020    7.6000   -0.7610 O.3       1 BKK        -0.3529
     23 O3        -21.3550    5.1530   -0.1310 O.3       1 BKK        -0.3924
     24 C         -17.8890    6.5530   -0.6750 C.3       1 BKK         0.1195
     25 O         -17.6280    6.9700    0.6520 O.3       1 BKK        -0.3857
     26 O1        -17.6920    9.7500   -2.6160 O.3       1 BKK        -0.3847
     27 N         -15.9160    7.7640   -1.4450 N.pl3     1 BKK        -0.1596
     28 N2        -13.7990    7.7180   -2.0330 N.2       1 BKK        -0.2177
     29 N1        -15.0710    7.4880   -2.4670 N.2       1 BKK        -0.0907
     30 F2         -9.1600    9.1080   -0.4560 F         1 BKK        -0.1864
     31 F1         -9.3410    9.1570    2.2550 F         1 BKK        -0.1880
     32 F         -11.7010    8.7030    3.5160 F         1 BKK        -0.1864
     33 H1        -17.4583    7.1052   -2.6797 H         1 BKK         0.0746
     34 H2        -19.5100    5.9575   -1.9197 H         1 BKK         0.0646
     35 H3        -17.9610    9.2838   -0.5964 H         1 BKK         0.0664
     36 H4        -19.6724    7.9749   -2.7657 H         1 BKK         0.0766
     37 H5        -19.8539    5.8146    1.1152 H         1 BKK         0.0584
     38 H6        -19.4353    4.4283    0.0523 H         1 BKK         0.0584
     39 H7        -15.6091    8.4798    0.5873 H         1 BKK         0.1066
     40 H8        -11.4358    8.6628   -1.6703 H         1 BKK         0.0525
     41 H9        -24.4482    7.1276   -5.1541 H         1 BKK         0.0565
     42 H10       -23.1022    9.0540   -5.9318 H         1 BKK         0.0600
     43 H11       -13.7152    8.1289    1.9058 H         1 BKK         0.0525
     44 H12       -22.4568    7.4907   -1.3414 H         1 BKK         0.0570
     45 H13       -21.5424   10.2119   -4.5296 H         1 BKK         0.0567
     46 H14       -21.8283    5.9750   -0.0780 H         1 BKK         0.2095
     47 H15       -17.3853    5.5872   -0.8281 H         1 BKK         0.0655
     48 H16       -16.6926    7.0903    0.7668 H         1 BKK         0.2100
     49 H17       -17.8129    9.3482   -3.4683 H         1 BKK         0.2101
@<TRIPOS>BOND
     1    3    1 1  
     2    1   24 1  
     3    1   27 1  
     4    2    5 1  
     5   22    2 1  
     6    2   24 1  
     7    4    3 1  
     8    3   26 1  
     9   21    4 1  
    10    4   22 1  
    11    5   23 1  
    12    6   13 2  
    13   27    6 1  
    14    7   10 ar 
    15   14    7 ar 
    16    8    9 ar 
    17   15    8 ar 
    18    8   32 1  
    19   10    9 ar 
    20    9   31 1  
    21   10   30 1  
    22   12   11 ar 
    23   17   11 ar 
    24   20   12 ar 
    25   13   14 1  
    26   13   28 1  
    27   14   15 ar 
    28   17   16 1  
    29   18   17 ar 
    30   19   18 ar 
    31   19   20 ar 
    32   19   21 1  
    33   24   25 1  
    34   27   29 1  
    35   28   29 2  
    36    1   33 1  
    37    2   34 1  
    38    3   35 1  
    39    4   36 1  
    40    5   37 1  
    41    5   38 1  
    42    6   39 1  
    43    7   40 1  
    44   11   41 1  
    45   12   42 1  
    46   15   43 1  
    47   18   44 1  
    48   20   45 1  
    49   23   46 1  
    50   24   47 1  
    51   25   48 1  
    52   26   49 1  
@<TRIPOS>SUBSTRUCTURE
     1 BKK         1

