### 
### Created by X-TOOL on Wed Jan  1 15:39:35 2020
### 

@<TRIPOS>MOLECULE
6eol_ligand
   49    52     1     0     0
SMALL
GAST_HUCK


@<TRIPOS>ATOM
      1 C15       -24.5340    9.3570   -1.9170 C.ar      1 BKH        -0.0533
      2 C14       -25.0580    8.0730   -1.9000 C.ar      1 BKH         0.0469
      3 C13       -10.7930    9.0210    0.1080 C.ar      1 BKH         0.1601
      4 C12       -10.8160    8.9660    1.4830 C.ar      1 BKH         0.1939
      5 C11       -12.0180    8.7460    2.1150 C.ar      1 BKH         0.1601
      6 C10       -11.9290    8.8410   -0.6380 C.ar      1 BKH        -0.0318
      7 C8        -13.1440    8.6530    0.0140 C.ar      1 BKH        -0.0269
      8 C9        -13.1830    8.5960    1.4110 C.ar      1 BKH        -0.0318
      9 C6        -15.6710    8.3670   -0.3530 C.2       1 BKH         0.0867
     10 C5        -20.3440    5.3690   -0.0550 C.3       1 BKH         0.0730
     11 N1        -15.5620    7.8780   -2.5120 N.2       1 BKH        -0.0907
     12 C2        -19.8070    6.4510   -0.9430 C.3       1 BKH         0.1124
     13 C3        -18.6530    9.0700   -1.2330 C.3       1 BKH         0.1287
     14 O3        -21.7000    5.0920   -0.2990 O.3       1 BKH        -0.3924
     15 C4        -20.1450    8.7890   -1.3940 C.3       1 BKH         0.1463
     16 CL1       -24.8780    5.3930   -2.2590 Cl        1 BKH        -0.0718
     17 C19       -24.2790    7.0070   -2.3300 C.ar      1 BKH         0.0485
     18 CL        -26.6710    7.8140   -1.3100 Cl        1 BKH        -0.0764
     19 C18       -22.9810    7.2140   -2.7560 C.ar      1 BKH        -0.0353
     20 C17       -22.4480    8.4940   -2.7590 C.ar      1 BKH         0.0186
     21 C16       -23.2360    9.5710   -2.3590 C.ar      1 BKH        -0.0490
     22 S         -20.7130    8.6130   -3.0990 S.3       1 BKH        -0.0671
     23 O2        -20.5470    7.6520   -0.6450 O.3       1 BKH        -0.3529
     24 C         -18.3200    6.6920   -0.7130 C.3       1 BKH         0.1195
     25 O         -18.0860    7.0000    0.6650 O.3       1 BKH        -0.3857
     26 O1        -18.2700   10.1380   -2.0990 O.3       1 BKH        -0.3847
     27 C1        -17.8230    7.8320   -1.5910 C.3       1 BKH         0.1475
     28 N         -16.3780    8.0300   -1.4500 N.pl3     1 BKH        -0.1596
     29 C7        -14.3730    8.4360   -0.7670 C.2       1 BKH         0.0655
     30 N2        -14.3420    8.1200   -2.0960 N.2       1 BKH        -0.2177
     31 F2         -9.6330    9.3430   -0.5000 F         1 BKH        -0.1864
     32 F1         -9.6850    9.2500    2.1470 F         1 BKH        -0.1880
     33 F         -12.0410    8.6670    3.4810 F         1 BKH        -0.1864
     34 H1        -25.1383   10.1934   -1.5850 H         1 BKH         0.0606
     35 H2        -11.8815    8.8451   -1.7210 H         1 BKH         0.0525
     36 H3        -14.1217    8.4354    1.9288 H         1 BKH         0.0525
     37 H4        -16.0544    8.5461    0.6504 H         1 BKH         0.1066
     38 H5        -20.2322    5.6853    0.9926 H         1 BKH         0.0584
     39 H6        -19.7611    4.4519   -0.2254 H         1 BKH         0.0584
     40 H7        -19.9623    6.1693   -1.9949 H         1 BKH         0.0646
     41 H8        -18.4515    9.3528   -0.1893 H         1 BKH         0.0664
     42 H9        -22.2145    5.8762   -0.1476 H         1 BKH         0.2095
     43 H10       -20.6691    9.6606   -0.9750 H         1 BKH         0.0766
     44 H11       -22.3793    6.3756   -3.0879 H         1 BKH         0.0571
     45 H12       -22.8348   10.5774   -2.3931 H         1 BKH         0.0567
     46 H13       -17.7675    5.7771   -0.9733 H         1 BKH         0.0655
     47 H14       -18.3739    6.2728    1.2042 H         1 BKH         0.2100
     48 H15       -18.4503    9.8943   -2.9993 H         1 BKH         0.2101
     49 H16       -18.0188    7.5781   -2.6432 H         1 BKH         0.0746
@<TRIPOS>BOND
     1    1    2 ar 
     2   21    1 ar 
     3   17    2 ar 
     4    2   18 1  
     5    3    4 ar 
     6    6    3 ar 
     7    3   31 1  
     8    5    4 ar 
     9    4   32 1  
    10    8    5 ar 
    11    5   33 1  
    12    7    6 ar 
    13    7    8 ar 
    14   29    7 1  
    15   28    9 1  
    16    9   29 2  
    17   12   10 1  
    18   10   14 1  
    19   28   11 1  
    20   11   30 2  
    21   12   23 1  
    22   24   12 1  
    23   13   15 1  
    24   13   26 1  
    25   27   13 1  
    26   15   22 1  
    27   15   23 1  
    28   17   16 1  
    29   19   17 ar 
    30   20   19 ar 
    31   20   21 ar 
    32   22   20 1  
    33   24   25 1  
    34   27   24 1  
    35   27   28 1  
    36   29   30 1  
    37    1   34 1  
    38    6   35 1  
    39    8   36 1  
    40    9   37 1  
    41   10   38 1  
    42   10   39 1  
    43   12   40 1  
    44   13   41 1  
    45   14   42 1  
    46   15   43 1  
    47   19   44 1  
    48   21   45 1  
    49   24   46 1  
    50   25   47 1  
    51   26   48 1  
    52   27   49 1  
@<TRIPOS>SUBSTRUCTURE
     1 BKH         1

