### 
### Created by X-TOOL on Wed Jan  1 15:39:34 2020
### 

@<TRIPOS>MOLECULE
6eox_ligand
   44    46     1     0     0
SMALL
GAST_HUCK


@<TRIPOS>ATOM
      1 OP3         2.2550   -9.8510    5.6620 O.co2     1 BKW        -0.5664
      2 CZ          2.1190  -10.6150    4.6730 C.2       1 BKW         0.0464
      3 OP2         3.1130  -11.1200    4.0820 O.co2     1 BKW        -0.5664
      4 C34         0.7300  -11.0220    4.2310 C.3       1 BKW         0.0353
      5 C29         0.8340  -11.9460    3.0090 C.ar      1 BKW        -0.0050
      6 C30         1.1260  -11.3180    1.8340 C.ar      1 BKW        -0.0568
      7 C31         1.3170  -12.0610    0.7100 C.ar      1 BKW        -0.0682
      8 C32         1.1880  -13.4570    0.7740 C.ar      1 BKW        -0.0667
      9 C33         0.9090  -14.1150    1.9260 C.ar      1 BKW        -0.0430
     10 C28         0.7380  -13.3210    3.0730 C.ar      1 BKW         0.0962
     11 S1          0.4240  -14.1720    4.4140 S.o2      1 BKW         0.0222
     12 OS1        -0.7060  -13.6000    5.1150 O.2       1 BKW        -0.1655
     13 OS2         0.1430  -15.5190    4.0510 O.2       1 BKW        -0.1655
     14 C1          1.7250  -14.2680    5.3010 C.ar      1 BKW         0.0910
     15 C6          1.8540  -13.6770    6.5230 C.ar      1 BKW        -0.0377
     16 C5          2.9360  -13.8560    7.3050 C.ar      1 BKW        -0.0549
     17 C4          3.9870  -14.6270    6.8510 C.ar      1 BKW        -0.0246
     18 C3          3.8640  -15.2400    5.5860 C.ar      1 BKW        -0.0549
     19 C2          2.6960  -15.0500    4.8250 C.ar      1 BKW        -0.0377
     20 C7          5.1910  -14.8960    7.6230 C.ar      1 BKW        -0.0279
     21 C12         5.1670  -15.0360    9.0250 C.ar      1 BKW        -0.0616
     22 C11         6.3570  -15.3840    9.6950 C.ar      1 BKW        -0.0312
     23 C10         7.5380  -15.5690    8.9910 C.ar      1 BKW         0.0926
     24 O13         8.7230  -15.8220    9.6320 O.3       1 BKW        -0.3200
     25 C14         8.9690  -17.0040   10.4100 C.3       1 BKW         0.0599
     26 C9          7.5510  -15.4380    7.6090 C.ar      1 BKW        -0.0312
     27 C8          6.3760  -15.1080    6.9550 C.ar      1 BKW        -0.0616
     28 H1          0.1520  -10.1248    3.9645 H         1 BKW         0.0589
     29 H2          0.2249  -11.5535    5.0510 H         1 BKW         0.0589
     30 H3          1.2052  -10.2376    1.7959 H         1 BKW         0.0560
     31 H4          1.5669  -11.5782   -0.2278 H         1 BKW         0.0600
     32 H5          1.3168  -14.0329   -0.1353 H         1 BKW         0.0561
     33 H6          0.8225  -15.1950    1.9606 H         1 BKW         0.0619
     34 H7          1.0542  -13.0379    6.8792 H         1 BKW         0.0633
     35 H8          2.9811  -13.3969    8.2859 H         1 BKW         0.0609
     36 H9          4.6683  -15.8564    5.2011 H         1 BKW         0.0609
     37 H10         2.5859  -15.5341    3.8614 H         1 BKW         0.0633
     38 H11         4.2486  -14.8786    9.5789 H         1 BKW         0.0601
     39 H12         6.3494  -15.5084   10.7718 H         1 BKW         0.0548
     40 H13         9.9901  -16.9687   10.8177 H         1 BKW         0.0579
     41 H14         8.8598  -17.8928    9.7712 H         1 BKW         0.0579
     42 H15         8.2456  -17.0558   11.2370 H         1 BKW         0.0579
     43 H16         8.4672  -15.5917    7.0503 H         1 BKW         0.0548
     44 H17         6.3897  -15.0129    5.8753 H         1 BKW         0.0601
@<TRIPOS>BOND
     1    1    2 ar 
     2    2    3 ar 
     3    2    4 1  
     4    4    5 1  
     5    5    6 ar 
     6    5   10 ar 
     7    6    7 ar 
     8    7    8 ar 
     9    8    9 ar 
    10    9   10 ar 
    11   10   11 1  
    12   11   12 2  
    13   11   13 2  
    14   11   14 1  
    15   14   15 ar 
    16   14   19 ar 
    17   15   16 ar 
    18   16   17 ar 
    19   17   18 ar 
    20   17   20 1  
    21   18   19 ar 
    22   20   21 ar 
    23   20   27 ar 
    24   21   22 ar 
    25   22   23 ar 
    26   23   24 1  
    27   23   26 ar 
    28   24   25 1  
    29   26   27 ar 
    30    4   28 1  
    31    4   29 1  
    32    6   30 1  
    33    7   31 1  
    34    8   32 1  
    35    9   33 1  
    36   15   34 1  
    37   16   35 1  
    38   18   36 1  
    39   19   37 1  
    40   21   38 1  
    41   22   39 1  
    42   25   40 1  
    43   25   41 1  
    44   25   42 1  
    45   26   43 1  
    46   27   44 1  
@<TRIPOS>SUBSTRUCTURE
     1 BKW         1

