### 
### Created by X-TOOL on Mon Sep 10 21:13:32 2018
### 

@<TRIPOS>MOLECULE
6ep4_ligand
   56    55     1     0     0
SMALL
GAST_HUCK


@<TRIPOS>ATOM
      1 N1        -17.8870  -45.8650  -24.0380 N.4       1 DME         0.2369
      2 C2        -19.0390  -45.6190  -23.1640 C.3       1 DME        -0.0309
      3 C3        -19.6540  -44.2480  -23.4230 C.3       1 DME        -0.0125
      4 C4        -20.9180  -44.0850  -22.5840 C.3       1 DME        -0.0483
      5 C5        -21.4700  -42.7000  -22.8360 C.3       1 DME        -0.0529
      6 C6        -22.8290  -42.4610  -22.1730 C.3       1 DME        -0.0531
      7 C7        -23.1060  -41.0160  -22.5470 C.3       1 DME        -0.0531
      8 C8        -22.0730  -40.1740  -21.7990 C.3       1 DME        -0.0529
      9 C9        -22.1350  -38.7240  -22.2480 C.3       1 DME        -0.0483
     10 C10       -21.6340  -38.7270  -23.6880 C.3       1 DME        -0.0125
     11 C11       -21.6470  -37.3250  -24.2810 C.3       1 DME        -0.0309
     12 N12       -21.0290  -37.3500  -25.6110 N.4       1 DME         0.2369
     13 C13       -18.3850  -46.0040  -25.4130 C.3       1 DME        -0.0418
     14 C14       -17.0080  -44.6900  -24.0510 C.3       1 DME        -0.0418
     15 C15       -17.1540  -47.0630  -23.6060 C.3       1 DME        -0.0418
     16 C16       -21.1850  -36.0380  -26.2460 C.3       1 DME        -0.0418
     17 C17       -21.5100  -38.4510  -26.4530 C.3       1 DME        -0.0418
     18 C18       -19.5890  -37.5470  -25.3870 C.3       1 DME        -0.0418
     19 H1        -18.7099  -45.6708  -22.1157 H         1 DME         0.0815
     20 H2        -19.7992  -46.3923  -23.3484 H         1 DME         0.0815
     21 H3        -19.9086  -44.1569  -24.4892 H         1 DME         0.0317
     22 H4        -18.9307  -43.4653  -23.1505 H         1 DME         0.0317
     23 H5        -20.6759  -44.2020  -21.5174 H         1 DME         0.0267
     24 H6        -21.6606  -44.8418  -22.8767 H         1 DME         0.0267
     25 H7        -21.5815  -42.5605  -23.9214 H         1 DME         0.0265
     26 H8        -20.7551  -41.9621  -22.4430 H         1 DME         0.0265
     27 H9        -22.7705  -42.5883  -21.0820 H         1 DME         0.0265
     28 H10       -23.5975  -43.1346  -22.5801 H         1 DME         0.0265
     29 H11       -24.1234  -40.7315  -22.2404 H         1 DME         0.0265
     30 H12       -22.9975  -40.8760  -23.6326 H         1 DME         0.0265
     31 H13       -21.0677  -40.5720  -22.0016 H         1 DME         0.0265
     32 H14       -22.2776  -40.2267  -20.7195 H         1 DME         0.0265
     33 H15       -21.4884  -38.0971  -21.6164 H         1 DME         0.0267
     34 H16       -23.1683  -38.3497  -22.2004 H         1 DME         0.0267
     35 H17       -22.2835  -39.3775  -24.2921 H         1 DME         0.0317
     36 H18       -20.6050  -39.1152  -23.7086 H         1 DME         0.0317
     37 H19       -21.0815  -36.6451  -23.6269 H         1 DME         0.0815
     38 H20       -22.6855  -36.9726  -24.3661 H         1 DME         0.0815
     39 H21       -17.5398  -46.1898  -26.0920 H         1 DME         0.0778
     40 H22       -18.8991  -45.0787  -25.7121 H         1 DME         0.0778
     41 H23       -19.0890  -46.8477  -25.4645 H         1 DME         0.0778
     42 H24       -16.5978  -44.5279  -23.0433 H         1 DME         0.0778
     43 H25       -17.5836  -43.8048  -24.3593 H         1 DME         0.0778
     44 H26       -16.1837  -44.8565  -24.7600 H         1 DME         0.0778
     45 H27       -17.8335  -47.9280  -23.6048 H         1 DME         0.0778
     46 H28       -16.7593  -46.9054  -22.5914 H         1 DME         0.0778
     47 H29       -16.3205  -47.2525  -24.2984 H         1 DME         0.0778
     48 H30       -20.7217  -36.0561  -27.2435 H         1 DME         0.0778
     49 H31       -20.6952  -35.2710  -25.6281 H         1 DME         0.0778
     50 H32       -22.2551  -35.8024  -26.3430 H         1 DME         0.0778
     51 H33       -21.3672  -39.4055  -25.9253 H         1 DME         0.0778
     52 H34       -20.9443  -38.4654  -27.3963 H         1 DME         0.0778
     53 H35       -22.5791  -38.3076  -26.6687 H         1 DME         0.0778
     54 H36       -19.2013  -36.7331  -24.7567 H         1 DME         0.0778
     55 H37       -19.0638  -37.5442  -26.3535 H         1 DME         0.0778
     56 H38       -19.4248  -38.5109  -24.8832 H         1 DME         0.0778
@<TRIPOS>BOND
     1    1    2 1  
     2    1   13 1  
     3    1   14 1  
     4    1   15 1  
     5    2    3 1  
     6    3    4 1  
     7    4    5 1  
     8    5    6 1  
     9    6    7 1  
    10    7    8 1  
    11    8    9 1  
    12    9   10 1  
    13   10   11 1  
    14   11   12 1  
    15   12   16 1  
    16   12   17 1  
    17   12   18 1  
    18    2   19 1  
    19    2   20 1  
    20    3   21 1  
    21    3   22 1  
    22    4   23 1  
    23    4   24 1  
    24    5   25 1  
    25    5   26 1  
    26    6   27 1  
    27    6   28 1  
    28    7   29 1  
    29    7   30 1  
    30    8   31 1  
    31    8   32 1  
    32    9   33 1  
    33    9   34 1  
    34   10   35 1  
    35   10   36 1  
    36   11   37 1  
    37   11   38 1  
    38   13   39 1  
    39   13   40 1  
    40   13   41 1  
    41   14   42 1  
    42   14   43 1  
    43   14   44 1  
    44   15   45 1  
    45   15   46 1  
    46   15   47 1  
    47   16   48 1  
    48   16   49 1  
    49   16   50 1  
    50   17   51 1  
    51   17   52 1  
    52   17   53 1  
    53   18   54 1  
    54   18   55 1  
    55   18   56 1  
@<TRIPOS>SUBSTRUCTURE
     1 DME         1

