### 
### Created by X-TOOL on Mon Aug  2 16:13:17 2021
### 

@<TRIPOS>MOLECULE
6ep9_ligand
   88    93     1     0     0
SMALL
GAST_HUCK


@<TRIPOS>ATOM
      1 C1         25.4670    6.2500    3.2540 C.ar      1 BNB        -0.0413
      2 C2         26.6550    5.6490    2.8110 C.ar      1 BNB        -0.0854
      3 C3         27.8720    5.9480    3.4000 C.ar      1 BNB        -0.0889
      4 C4         27.9450    6.8510    4.4520 C.ar      1 BNB        -0.0542
      5 C5         26.7790    7.4570    4.9210 C.ar      1 BNB         0.0609
      6 C6         25.5390    7.1720    4.3240 C.ar      1 BNB        -0.0260
      7 C8         24.2960    7.8640    4.8490 C.3       1 BNB        -0.0379
      8 C9         26.5210    8.0780    7.2700 C.2       1 BNB         0.2205
      9 C12        26.5310    8.8480    9.6620 C.ar      1 BNB        -0.0530
     10 C19        24.5190   11.9080   12.7100 C.3       1 BNB        -0.0330
     11 C18        26.0420   11.8560   12.5040 C.3       1 BNB         0.0279
     12 C20        23.9370   13.2570   12.2590 C.3       1 BNB        -0.0495
     13 C21        24.3160   13.4930   10.7930 C.3       1 BNB        -0.0330
     14 C22        25.8500   13.5140   10.6810 C.3       1 BNB         0.0279
     15 C23        24.1980    5.8630    2.5550 C.2       1 BNB         0.0323
     16 C16        26.5020   10.4980    7.8880 C.ar      1 BNB        -0.0530
     17 C15        26.4920   11.5130    8.8270 C.ar      1 BNB        -0.0381
     18 C24        23.0350    5.6820    3.2600 C.2       1 BNB         0.0685
     19 N7         26.8200    8.3820    5.9760 N.am      1 BNB        -0.2400
     20 C10        26.5320    9.1510    8.2930 C.ar      1 BNB         0.0418
     21 O11        26.2120    6.9410    7.5970 O.2       1 BNB        -0.3803
     22 C13        26.5170    9.8710   10.5910 C.ar      1 BNB        -0.0381
     23 C14        26.4890   11.2210   10.1970 C.ar      1 BNB         0.0457
     24 N17        26.4920   12.2640   11.1500 N.pl3     1 BNB        -0.3060
     25 N25        21.8720    5.3230    2.6350 N.am      1 BNB        -0.2077
     26 C26        21.8820    5.1240    1.2860 C.2       1 BNB         0.2833
     27 C27        23.1380    5.3110    0.5470 C.2       1 BNB         0.2116
     28 N28        24.2220    5.6710    1.2160 N.2       1 BNB        -0.2971
     29 O29        20.8770    4.7990    0.6670 O.2       1 BNB        -0.3847
     30 C30        20.6360    5.1550    3.4110 C.3       1 BNB         0.0563
     31 N31        23.0930    5.0880   -0.8340 N.pl3     1 BNB        -0.2451
     32 C32        24.1130    5.2140   -1.7760 C.ar      1 BNB         0.0694
     33 C33        25.3990    5.6640   -1.4610 C.ar      1 BNB        -0.0324
     34 C34        26.3620    5.7720   -2.4480 C.ar      1 BNB        -0.0517
     35 C35        26.0560    5.4360   -3.7760 C.ar      1 BNB         0.0377
     36 C36        24.7660    4.9720   -4.0870 C.ar      1 BNB        -0.0517
     37 C37        23.8100    4.8710   -3.0970 C.ar      1 BNB        -0.0324
     38 C38        27.0940    5.5410   -4.8350 C.2       1 BNB         0.1988
     39 N39        26.9900    6.3810   -5.9010 N.am      1 BNB        -0.2640
     40 O40        28.0820    4.8350   -4.7390 O.2       1 BNB        -0.3901
     41 C41        28.0540    6.4420   -6.9350 C.3       1 BNB         0.0733
     42 C42        27.4150    6.1990   -8.3150 C.3       1 BNB        -0.0113
     43 N43        26.3250    7.1670   -8.5510 N.4       1 BNB         0.2359
     44 C44        25.2770    7.0050   -7.5250 C.3       1 BNB        -0.0113
     45 C45        25.8370    7.2830   -6.1250 C.3       1 BNB         0.0733
     46 C46        25.7030    6.7910   -9.8310 C.3       1 BNB        -0.0430
     47 H1         26.6195    4.9382    1.9934 H         1 BNB         0.0414
     48 H2         28.7759    5.4727    3.0364 H         1 BNB         0.0506
     49 H3         28.9015    7.0837    4.9060 H         1 BNB         0.0428
     50 H4         23.4198    7.5295    4.2742 H         1 BNB         0.0352
     51 H5         24.4101    8.9529    4.7431 H         1 BNB         0.0352
     52 H6         24.1564    7.6115    5.9105 H         1 BNB         0.0352
     53 H7         26.5412    7.8150    9.9905 H         1 BNB         0.0636
     54 H8         24.2972   11.7617   13.7774 H         1 BNB         0.0284
     55 H9         24.0511   11.1029   12.1245 H         1 BNB         0.0284
     56 H10        26.3781   10.8238   12.6816 H         1 BNB         0.0516
     57 H11        26.5116   12.5262   13.2390 H         1 BNB         0.0516
     58 H12        24.3493   14.0644   12.8820 H         1 BNB         0.0267
     59 H13        22.8417   13.2393   12.3594 H         1 BNB         0.0267
     60 H14        23.9064   14.4561   10.4546 H         1 BNB         0.0284
     61 H15        23.9099   12.6825   10.1699 H         1 BNB         0.0284
     62 H16        26.2322   14.3500   11.2852 H         1 BNB         0.0516
     63 H17        26.1204   13.6701    9.6263 H         1 BNB         0.0516
     64 H18        26.4866   10.7420    6.8319 H         1 BNB         0.0636
     65 H19        26.4864   12.5463    8.4993 H         1 BNB         0.0530
     66 H20        23.0376    5.8271    4.3393 H         1 BNB         0.1100
     67 H21        27.0852    9.3228    5.7647 H         1 BNB         0.2222
     68 H22        26.5278    9.6276   11.6473 H         1 BNB         0.0530
     69 H23        20.8388    5.3600    4.4725 H         1 BNB         0.0599
     70 H24        20.2707    4.1234    3.3001 H         1 BNB         0.0599
     71 H25        19.8729    5.8559    3.0416 H         1 BNB         0.0599
     72 H26        22.1800    4.7895   -1.2058 H         1 BNB         0.2186
     73 H27        25.6423    5.9294   -0.4385 H         1 BNB         0.0549
     74 H28        27.3577    6.1177   -2.1947 H         1 BNB         0.0639
     75 H29        24.5219    4.6932   -5.1057 H         1 BNB         0.0639
     76 H30        22.8143    4.5223   -3.3460 H         1 BNB         0.0549
     77 H31        28.8093    5.6677   -6.7352 H         1 BNB         0.0575
     78 H32        28.5312    7.4329   -6.9173 H         1 BNB         0.0575
     79 H33        27.0080    5.1777   -8.3520 H         1 BNB         0.0834
     80 H34        28.1808    6.3171   -9.0957 H         1 BNB         0.0834
     81 H35        26.6760    8.1118   -8.5670 H         1 BNB         0.2032
     82 H36        24.8929    5.9749   -7.5615 H         1 BNB         0.0834
     83 H37        24.4579    7.7094   -7.7320 H         1 BNB         0.0834
     84 H38        26.1649    8.3307   -6.0563 H         1 BNB         0.0575
     85 H39        25.0615    7.0911   -5.3688 H         1 BNB         0.0575
     86 H40        26.4406    6.8920  -10.6407 H         1 BNB         0.0778
     87 H41        24.8466    7.4518  -10.0306 H         1 BNB         0.0778
     88 H42        25.3570    5.7482   -9.7782 H         1 BNB         0.0778
@<TRIPOS>BOND
     1    1    2 ar 
     2    6    1 ar 
     3    1   15 1  
     4    3    2 ar 
     5    4    3 ar 
     6    5    4 ar 
     7    5    6 ar 
     8   19    5 1  
     9    6    7 1  
    10    8   19 am 
    11   20    8 1  
    12    8   21 2  
    13    9   20 ar 
    14   22    9 ar 
    15   11   10 1  
    16   10   12 1  
    17   24   11 1  
    18   13   12 1  
    19   14   13 1  
    20   24   14 1  
    21   15   18 2  
    22   15   28 1  
    23   17   16 ar 
    24   16   20 ar 
    25   23   17 ar 
    26   18   25 1  
    27   23   22 ar 
    28   23   24 1  
    29   25   26 am 
    30   25   30 1  
    31   26   27 1  
    32   26   29 2  
    33   27   28 2  
    34   27   31 1  
    35   31   32 1  
    36   32   33 ar 
    37   32   37 ar 
    38   33   34 ar 
    39   34   35 ar 
    40   35   36 ar 
    41   35   38 1  
    42   36   37 ar 
    43   38   39 am 
    44   38   40 2  
    45   39   41 1  
    46   39   45 1  
    47   41   42 1  
    48   42   43 1  
    49   43   44 1  
    50   43   46 1  
    51   44   45 1  
    52    2   47 1  
    53    3   48 1  
    54    4   49 1  
    55    7   50 1  
    56    7   51 1  
    57    7   52 1  
    58    9   53 1  
    59   10   54 1  
    60   10   55 1  
    61   11   56 1  
    62   11   57 1  
    63   12   58 1  
    64   12   59 1  
    65   13   60 1  
    66   13   61 1  
    67   14   62 1  
    68   14   63 1  
    69   16   64 1  
    70   17   65 1  
    71   18   66 1  
    72   19   67 1  
    73   22   68 1  
    74   30   69 1  
    75   30   70 1  
    76   30   71 1  
    77   31   72 1  
    78   33   73 1  
    79   34   74 1  
    80   36   75 1  
    81   37   76 1  
    82   41   77 1  
    83   41   78 1  
    84   42   79 1  
    85   42   80 1  
    86   43   81 1  
    87   44   82 1  
    88   44   83 1  
    89   45   84 1  
    90   45   85 1  
    91   46   86 1  
    92   46   87 1  
    93   46   88 1  
@<TRIPOS>SUBSTRUCTURE
     1 BNB         1

