### 
### Created by X-TOOL on Wed Jan  1 15:39:36 2020
### 

@<TRIPOS>MOLECULE
6epa_ligand
   44    47     1     0     0
SMALL
GAST_HUCK


@<TRIPOS>ATOM
      1 C10        -7.4790  -10.2110   12.2470 C.ar      1 BNQ        -0.0646
      2 C13        -8.8890   -3.5920   10.6180 C.3       1 BNQ         0.0676
      3 C15        -6.4550   -3.6170    9.8500 C.ar      1 BNQ        -0.0266
      4 C17        -4.9390   -4.7230    8.3370 C.ar      1 BNQ        -0.0682
      5 C20        -5.6570   -4.0360   10.9080 C.ar      1 BNQ        -0.0579
      6 C21        -7.3800   -1.5650   10.9670 C.ar      1 BNQ        -0.0266
      7 C22        -7.1540   -0.3190   10.3970 C.ar      1 BNQ        -0.0579
      8 C24        -6.7810    0.6440   12.5590 C.ar      1 BNQ        -0.0685
      9 C26        -7.2940   -1.6860   12.3480 C.ar      1 BNQ        -0.0579
     10 C05        -8.5910   -6.8450   12.3480 C.2       1 BNQ         0.2117
     11 C06        -9.3570   -9.0040   13.1450 C.ar      1 BNQ         0.0475
     12 C07        -9.8920  -10.1800   13.6550 C.ar      1 BNQ        -0.0540
     13 C08        -9.2100  -11.3690   13.4520 C.ar      1 BNQ        -0.0754
     14 C09        -8.0170  -11.3820   12.7550 C.ar      1 BNQ        -0.0765
     15 C11        -8.1500   -9.0010   12.4390 C.ar      1 BNQ         0.0067
     16 C12        -8.5540   -5.0650   10.7340 C.2       1 BNQ         0.2222
     17 C14        -7.6970   -2.7690   10.0880 C.3       1 BNQ         0.0430
     18 C16        -6.0740   -3.9640    8.5600 C.ar      1 BNQ        -0.0579
     19 C18        -4.1630   -5.1410    9.3980 C.ar      1 BNQ        -0.0685
     20 C19        -4.5240   -4.7970   10.6830 C.ar      1 BNQ        -0.0682
     21 C23        -6.8590    0.7770   11.1880 C.ar      1 BNQ        -0.0682
     22 C25        -6.9990   -0.5890   13.1380 C.ar      1 BNQ        -0.0682
     23 N03        -7.7290   -7.7530   11.9850 N.2       1 BNQ        -0.3094
     24 N04        -8.4100   -5.5230   12.0120 N.am      1 BNQ        -0.1888
     25 O02        -8.6620   -5.8240    9.7740 O.2       1 BNQ        -0.3781
     26 S01        -9.9880   -7.3830   13.2450 S.3       1 BNQ         0.0301
     27 H1         -6.5416  -10.2335   11.7030 H         1 BNQ         0.0528
     28 H2         -9.1692   -3.2121   11.6115 H         1 BNQ         0.0558
     29 H3         -9.7372   -3.4738    9.9276 H         1 BNQ         0.0558
     30 H4         -4.6585   -4.9902    7.3246 H         1 BNQ         0.0600
     31 H5         -5.9258   -3.7631   11.9221 H         1 BNQ         0.0561
     32 H6         -7.2093   -0.2039    9.3205 H         1 BNQ         0.0561
     33 H7         -6.5497    1.5035   13.1777 H         1 BNQ         0.0561
     34 H8         -7.4600   -2.6513   12.8124 H         1 BNQ         0.0561
     35 H9        -10.8274  -10.1678   14.2027 H         1 BNQ         0.0554
     36 H10        -9.6152  -12.2954   13.8427 H         1 BNQ         0.0527
     37 H11        -7.4956  -12.3203   12.6039 H         1 BNQ         0.0543
     38 H12        -8.0029   -2.3741    9.1080 H         1 BNQ         0.0644
     39 H13        -6.6731   -3.6362    7.7181 H         1 BNQ         0.0561
     40 H14        -3.2745   -5.7365    9.2223 H         1 BNQ         0.0561
     41 H15        -3.9179   -5.1240   11.5202 H         1 BNQ         0.0600
     42 H16        -6.6885    1.7440   10.7288 H         1 BNQ         0.0600
     43 H17        -6.9390   -0.6987   14.2148 H         1 BNQ         0.0600
     44 H18        -8.1637   -4.8732   12.7311 H         1 BNQ         0.2449
@<TRIPOS>BOND
     1    1   14 ar 
     2   15    1 ar 
     3   16    2 1  
     4    2   17 1  
     5    3    5 ar 
     6   17    3 1  
     7    3   18 ar 
     8   18    4 ar 
     9    4   19 ar 
    10    5   20 ar 
    11    6    7 ar 
    12    6    9 ar 
    13   17    6 1  
    14    7   21 ar 
    15   21    8 ar 
    16   22    8 ar 
    17    9   22 ar 
    18   10   23 2  
    19   24   10 1  
    20   10   26 1  
    21   11   12 ar 
    22   11   15 ar 
    23   26   11 1  
    24   12   13 ar 
    25   13   14 ar 
    26   23   15 1  
    27   16   24 am 
    28   16   25 2  
    29   19   20 ar 
    30    1   27 1  
    31    2   28 1  
    32    2   29 1  
    33    4   30 1  
    34    5   31 1  
    35    7   32 1  
    36    8   33 1  
    37    9   34 1  
    38   12   35 1  
    39   13   36 1  
    40   14   37 1  
    41   17   38 1  
    42   18   39 1  
    43   19   40 1  
    44   20   41 1  
    45   21   42 1  
    46   22   43 1  
    47   24   44 1  
@<TRIPOS>SUBSTRUCTURE
     1 BNQ         1

