### 
### Created by X-TOOL on Wed Jan  1 15:39:35 2020
### 

@<TRIPOS>MOLECULE
6epy_ligand
   66    68     1     0     0
SMALL
GAST_HUCK


@<TRIPOS>ATOM
      1 O6'       132.9510    9.5630   70.6300 O.3       1 RAF        -0.3924
      2 C6'       132.6090   10.8810   71.1220 C.3       1 RAF         0.0730
      3 C5'       132.4150   10.9120   72.6620 C.3       1 RAF         0.1134
      4 C4'       133.7130   10.6260   73.4460 C.3       1 RAF         0.1145
      5 O4'       134.4100   11.8340   73.7920 O.3       1 RAF        -0.3864
      6 C3'       133.1200   10.0650   74.7150 C.3       1 RAF         0.1395
      7 O3'       134.0480    9.2580   75.4620 O.3       1 RAF        -0.3837
      8 O2'       131.5230    9.8060   72.9770 O.3       1 RAF        -0.3362
      9 C2'       131.8680    9.2720   74.2800 C.3       1 RAF         0.2252
     10 C1'       130.8480    9.5430   75.4120 C.3       1 RAF         0.1009
     11 O1'       129.5410    9.1020   75.0950 O.3       1 RAF        -0.3896
     12 O1        132.0370    7.7880   74.1800 O.3       1 RAF        -0.3125
     13 C1        132.8730    7.2450   73.0970 C.3       1 RAF         0.1912
     14 C2        132.3920    5.8600   72.6520 C.3       1 RAF         0.1342
     15 O2        131.0550    5.9790   72.2590 O.3       1 RAF        -0.3841
     16 C3        132.5780    4.8640   73.8150 C.3       1 RAF         0.1141
     17 O3        132.1730    3.5530   73.4310 O.3       1 RAF        -0.3864
     18 C4        134.0760    4.8470   74.1700 C.3       1 RAF         0.1119
     19 O4        134.3720    3.8830   75.1700 O.3       1 RAF        -0.3865
     20 C5        134.4550    6.2480   74.6410 C.3       1 RAF         0.1134
     21 O5        134.2460    7.2020   73.5580 O.3       1 RAF        -0.3404
     22 C6        135.9430    6.3260   74.9520 C.3       1 RAF         0.0796
     23 O6        136.1090    6.6550   76.3310 O.3       1 RAF        -0.3460
     24 C1X       137.3380    6.1250   76.8140 C.3       1 RAF         0.1880
     25 O5X       138.4540    6.7910   76.1460 O.3       1 RAF        -0.3405
     26 C5X       138.6600    8.1890   76.4020 C.3       1 RAF         0.1130
     27 C6X       139.7720    8.7070   75.4630 C.3       1 RAF         0.0730
     28 O6X       139.4140    8.3320   74.1260 O.3       1 RAF        -0.3924
     29 C4X       138.9660    8.3470   77.8850 C.3       1 RAF         0.1119
     30 O4X       140.0770    7.4760   78.2470 O.3       1 RAF        -0.3865
     31 C3X       137.7020    7.8650   78.6500 C.3       1 RAF         0.1141
     32 O3X       137.9460    7.9990   80.0220 O.3       1 RAF        -0.3864
     33 C2X       137.4110    6.3630   78.3550 C.3       1 RAF         0.1341
     34 O2X       136.1570    6.0190   78.9430 O.3       1 RAF        -0.3841
     35 H1        132.2555    8.9541   70.8491 H         1 RAF         0.2095
     36 H2        131.6732   11.2041   70.6426 H         1 RAF         0.0584
     37 H3        133.4174   11.5775   70.8548 H         1 RAF         0.0584
     38 H4        131.9897   11.8785   72.9701 H         1 RAF         0.0647
     39 H5        134.3772    9.9227   72.9223 H         1 RAF         0.0648
     40 H6        133.8496   12.3777   74.3331 H         1 RAF         0.2100
     41 H7        132.8092   10.8989   75.3615 H         1 RAF         0.0675
     42 H8        134.3309    8.5256   74.9272 H         1 RAF         0.2101
     43 H9        130.8159   10.6257   75.6034 H         1 RAF         0.0612
     44 H10       131.1841    9.0200   76.3195 H         1 RAF         0.0612
     45 H11       129.5540    8.1656   74.9352 H         1 RAF         0.2096
     46 H12       132.8119    7.9219   72.2321 H         1 RAF         0.0939
     47 H13       132.9891    5.5177   71.7939 H         1 RAF         0.0671
     48 H14       130.5369    6.2889   72.9925 H         1 RAF         0.2101
     49 H15       131.9866    5.1903   74.6832 H         1 RAF         0.0648
     50 H16       132.6977    3.2639   72.6936 H         1 RAF         0.2100
     51 H17       134.6547    4.5996   73.2679 H         1 RAF         0.0647
     52 H18       133.8811    4.0848   75.9580 H         1 RAF         0.2100
     53 H19       133.8579    6.5187   75.5243 H         1 RAF         0.0647
     54 H20       136.4108    7.1019   74.3281 H         1 RAF         0.0587
     55 H21       136.4153    5.3545   74.7445 H         1 RAF         0.0587
     56 H22       137.3820    5.0456   76.6068 H         1 RAF         0.0937
     57 H23       137.7366    8.7432   76.1779 H         1 RAF         0.0647
     58 H24       140.7360    8.2526   75.7354 H         1 RAF         0.0584
     59 H25       139.8482    9.8017   75.5387 H         1 RAF         0.0584
     60 H26       138.5786    8.7245   73.9012 H         1 RAF         0.2095
     61 H27       139.2013    9.3938   78.1275 H         1 RAF         0.0647
     62 H28       140.8431    7.7136   77.7378 H         1 RAF         0.2100
     63 H29       136.8354    8.4752   78.3556 H         1 RAF         0.0648
     64 H30       137.1831    7.7087   80.5080 H         1 RAF         0.2100
     65 H31       138.2085    5.7400   78.7860 H         1 RAF         0.0671
     66 H32       136.1982    6.1631   79.8811 H         1 RAF         0.2101
@<TRIPOS>BOND
     1    1    2 1  
     2    2    3 1  
     3    3    4 1  
     4    3    8 1  
     5    4    5 1  
     6    4    6 1  
     7    6    7 1  
     8    6    9 1  
     9    8    9 1  
    10    9   10 1  
    11    9   12 1  
    12   10   11 1  
    13   12   13 1  
    14   13   14 1  
    15   13   21 1  
    16   14   15 1  
    17   14   16 1  
    18   16   17 1  
    19   16   18 1  
    20   18   19 1  
    21   18   20 1  
    22   20   21 1  
    23   20   22 1  
    24   22   23 1  
    25   23   24 1  
    26   24   25 1  
    27   24   33 1  
    28   25   26 1  
    29   26   27 1  
    30   26   29 1  
    31   27   28 1  
    32   29   30 1  
    33   29   31 1  
    34   31   32 1  
    35   31   33 1  
    36   33   34 1  
    37    1   35 1  
    38    2   36 1  
    39    2   37 1  
    40    3   38 1  
    41    4   39 1  
    42    5   40 1  
    43    6   41 1  
    44    7   42 1  
    45   10   43 1  
    46   10   44 1  
    47   11   45 1  
    48   13   46 1  
    49   14   47 1  
    50   15   48 1  
    51   16   49 1  
    52   17   50 1  
    53   18   51 1  
    54   19   52 1  
    55   20   53 1  
    56   22   54 1  
    57   22   55 1  
    58   24   56 1  
    59   26   57 1  
    60   27   58 1  
    61   27   59 1  
    62   28   60 1  
    63   29   61 1  
    64   30   62 1  
    65   31   63 1  
    66   32   64 1  
    67   33   65 1  
    68   34   66 1  
@<TRIPOS>SUBSTRUCTURE
     1 RAF         1

