### 
### Created by X-TOOL on Wed Jan  1 15:39:35 2020
### 

@<TRIPOS>MOLECULE
6epz_ligand
   45    46     1     0     0
SMALL
GAST_HUCK


@<TRIPOS>ATOM
      1 C1        136.3260    5.9610   76.3830 C.3       1 MLB         0.1880
      2 O1        135.1730    6.6850   75.9560 O.3       1 MLB        -0.3460
      3 C2        136.5220    6.0880   77.9420 C.3       1 MLB         0.1341
      4 O2        135.2620    5.8490   78.5710 O.3       1 MLB        -0.3841
      5 C3        136.9650    7.5390   78.2830 C.3       1 MLB         0.1141
      6 O3        137.3390    7.6520   79.6620 O.3       1 MLB        -0.3864
      7 C4        138.1210    8.0190   77.4410 C.3       1 MLB         0.1119
      8 O4        139.2890    7.2390   77.7990 O.3       1 MLB        -0.3865
      9 C5        137.8070    7.8370   75.9330 C.3       1 MLB         0.1130
     10 O5        137.5130    6.4280   75.6940 O.3       1 MLB        -0.3405
     11 C6        138.9970    8.3130   75.0960 C.3       1 MLB         0.0730
     12 O6        138.7170    8.1380   73.7000 O.3       1 MLB        -0.3924
     13 C1'       134.0570    9.3270   72.7640 C.3       1 MLB         0.1854
     14 O1'       134.1130   10.7480   72.9690 O.3       1 MLB        -0.3649
     15 C2'       132.8860    8.8780   71.7760 C.3       1 MLB         0.1339
     16 O2'       132.0430    9.9720   71.3710 O.3       1 MLB        -0.3841
     17 C3'       132.0200    7.7190   72.3290 C.3       1 MLB         0.1141
     18 O3'       131.3900    7.0950   71.1910 O.3       1 MLB        -0.3864
     19 C4'       132.8950    6.6620   73.0270 C.3       1 MLB         0.1119
     20 O4'       132.0980    5.5570   73.4710 O.3       1 MLB        -0.3865
     21 C5'       133.6060    7.2480   74.2500 C.3       1 MLB         0.1134
     22 O5'       134.0550    8.6510   74.0850 O.3       1 MLB        -0.3407
     23 C6'       134.7400    6.2960   74.6590 C.3       1 MLB         0.0796
     24 H1        136.1767    4.8993   76.1369 H         1 MLB         0.0937
     25 H2        137.2730    5.3653   78.2937 H         1 MLB         0.0671
     26 H3        135.3608    5.9215   79.5131 H         1 MLB         0.2101
     27 H4        136.1068    8.2015   78.0969 H         1 MLB         0.0648
     28 H5        136.5975    7.4228   80.2099 H         1 MLB         0.2100
     29 H6        138.3089    9.0834   77.6454 H         1 MLB         0.0647
     30 H7        140.0310    7.5253   77.2794 H         1 MLB         0.2100
     31 H8        136.9248    8.4381   75.6678 H         1 MLB         0.0647
     32 H9        139.8886    7.7275   75.3647 H         1 MLB         0.0584
     33 H10       139.1826    9.3780   75.2994 H         1 MLB         0.0584
     34 H11       137.9478    8.6443   73.4666 H         1 MLB         0.2095
     35 H12       134.9943    9.0386   72.2657 H         1 MLB         0.0935
     36 H13       134.1147   11.1884   72.1273 H         1 MLB         0.2126
     37 H14       133.3786    8.5007   70.8677 H         1 MLB         0.0671
     38 H15       132.5670   10.6244   70.9213 H         1 MLB         0.2101
     39 H16       131.2668    8.1069   73.0305 H         1 MLB         0.0648
     40 H17       130.8521    7.7340   70.7384 H         1 MLB         0.2100
     41 H18       133.6478    6.3017   72.3104 H         1 MLB         0.0647
     42 H19       131.6696    5.1565   72.7236 H         1 MLB         0.2100
     43 H20       132.8755    7.2566   75.0723 H         1 MLB         0.0647
     44 H21       134.3718    5.2597   74.6804 H         1 MLB         0.0587
     45 H22       135.5730    6.3746   73.9450 H         1 MLB         0.0587
@<TRIPOS>BOND
     1    2    1 1  
     2    1    3 1  
     3    1   10 1  
     4   23    2 1  
     5    3    4 1  
     6    3    5 1  
     7    5    6 1  
     8    5    7 1  
     9    7    8 1  
    10    9    7 1  
    11   10    9 1  
    12    9   11 1  
    13   11   12 1  
    14   13   14 1  
    15   13   15 1  
    16   22   13 1  
    17   15   16 1  
    18   17   15 1  
    19   17   18 1  
    20   19   17 1  
    21   19   20 1  
    22   21   19 1  
    23   21   22 1  
    24   21   23 1  
    25    1   24 1  
    26    3   25 1  
    27    4   26 1  
    28    5   27 1  
    29    6   28 1  
    30    7   29 1  
    31    8   30 1  
    32    9   31 1  
    33   11   32 1  
    34   11   33 1  
    35   12   34 1  
    36   13   35 1  
    37   14   36 1  
    38   15   37 1  
    39   16   38 1  
    40   17   39 1  
    41   18   40 1  
    42   19   41 1  
    43   20   42 1  
    44   21   43 1  
    45   23   44 1  
    46   23   45 1  
@<TRIPOS>SUBSTRUCTURE
     1 MLB         1

