### 
### Created by X-TOOL on Wed Jan  1 15:39:36 2020
### 

@<TRIPOS>MOLECULE
6eq1_ligand
   87    90     1     0     0
SMALL
GAST_HUCK


@<TRIPOS>ATOM
      1 C1X        31.2480   28.9360   68.8820 C.3       1 STW         0.1880
      2 O5X        30.0520   28.3320   69.5480 O.3       1 STW        -0.3405
      3 C5X        30.2070   26.9370   69.8140 C.3       1 STW         0.1130
      4 C6X        28.8840   26.2540   70.1790 C.3       1 STW         0.0730
      5 O6X        27.8650   26.5840   69.2370 O.3       1 STW        -0.3924
      6 C4X        31.3600   26.7400   70.8570 C.3       1 STW         0.1119
      7 O4X        31.0190   27.4160   72.0850 O.3       1 STW        -0.3865
      8 C3X        32.6720   27.3290   70.2620 C.3       1 STW         0.1141
      9 O3X        33.7180   27.3240   71.2260 O.3       1 STW        -0.3864
     10 C2X        32.4720   28.7780   69.7630 C.3       1 STW         0.1341
     11 O2X        33.6430   29.2400   69.1200 O.3       1 STW        -0.3841
     12 C1Y        29.6310   29.2710   63.1590 C.3       1 STW         0.1880
     13 O5Y        29.5300   29.3750   64.6230 O.3       1 STW        -0.3405
     14 C5Y        30.7610   29.0200   65.2900 C.3       1 STW         0.1134
     15 C6Y        30.3620   28.6900   66.7200 C.3       1 STW         0.0796
     16 O6Y        31.4740   28.3720   67.5990 O.3       1 STW        -0.3460
     17 C4Y        31.7020   30.2220   65.1160 C.3       1 STW         0.1119
     18 O4Y        31.1250   31.4110   65.7030 O.3       1 STW        -0.3865
     19 C3Y        31.9180   30.5700   63.6200 C.3       1 STW         0.1141
     20 O3Y        33.3020   30.4070   63.2670 O.3       1 STW        -0.3864
     21 C2Y        31.0110   29.8050   62.6050 C.3       1 STW         0.1341
     22 O2Y        30.7650   30.6600   61.4670 O.3       1 STW        -0.3841
     23 C1         29.0510   24.1730   60.4030 C.3       1 STW         0.1912
     24 O1         29.7770   23.3640   61.4160 O.3       1 STW        -0.3125
     25 C2'        29.0510   22.2490   62.1340 C.3       1 STW         0.2252
     26 C1'        28.9220   20.9420   61.2740 C.3       1 STW         0.1009
     27 O1'        27.6850   20.8760   60.5380 O.3       1 STW        -0.3896
     28 O2'        27.6790   22.6380   62.5620 O.3       1 STW        -0.3362
     29 C5'        27.5850   22.7900   64.0120 C.3       1 STW         0.1134
     30 C4'        28.8520   22.2610   64.6610 C.3       1 STW         0.1145
     31 O4'        28.5320   21.0740   65.4520 O.3       1 STW        -0.3864
     32 C3'        29.8540   22.0010   63.4780 C.3       1 STW         0.1395
     33 O3'        30.4850   20.6640   63.5520 O.3       1 STW        -0.3837
     34 C6'        27.3920   24.2690   64.3300 C.3       1 STW         0.0730
     35 O6'        26.2860   24.7370   63.5500 O.3       1 STW        -0.3924
     36 O5         28.5790   25.4460   60.8940 O.3       1 STW        -0.3404
     37 C5         29.6540   26.3140   61.2590 C.3       1 STW         0.1134
     38 C6         28.8540   27.4870   61.7670 C.3       1 STW         0.0796
     39 O6         29.5140   27.8450   62.9480 O.3       1 STW        -0.3460
     40 C4         30.5520   26.7110   60.0210 C.3       1 STW         0.1119
     41 O4         31.7560   27.4570   60.3800 O.3       1 STW        -0.3865
     42 C3         31.0170   25.4710   59.2530 C.3       1 STW         0.1141
     43 O3         31.4600   25.9040   57.9440 O.3       1 STW        -0.3864
     44 C2         29.9140   24.3850   59.1150 C.3       1 STW         0.1342
     45 O2         30.5350   23.1680   58.7880 O.3       1 STW        -0.3841
     46 H1         31.0569   30.0111   68.7495 H         1 STW         0.0937
     47 H2         30.5434   26.4649   68.8791 H         1 STW         0.0647
     48 H3         28.5709   26.5865   71.1797 H         1 STW         0.0584
     49 H4         29.0306   25.1638   70.1840 H         1 STW         0.0584
     50 H5         27.0560   26.1507   69.4825 H         1 STW         0.2095
     51 H6         31.4976   25.6674   71.0584 H         1 STW         0.0647
     52 H7         30.2125   27.0529   72.4316 H         1 STW         0.2100
     53 H8         32.9732   26.7021   69.4098 H         1 STW         0.0648
     54 H9         34.5057   27.6875   70.8388 H         1 STW         0.2100
     55 H10        32.3119   29.4087   70.6499 H         1 STW         0.0671
     56 H11        34.3686   29.2193   69.7329 H         1 STW         0.2101
     57 H12        28.8099   29.8156   62.6700 H         1 STW         0.0937
     58 H13        31.2220   28.1338   64.8295 H         1 STW         0.0647
     59 H14        29.6846   27.8236   66.6962 H         1 STW         0.0587
     60 H15        29.8318   29.5586   67.1377 H         1 STW         0.0587
     61 H16        32.6666   29.9923   65.5922 H         1 STW         0.0647
     62 H17        30.2978   31.6035   65.2774 H         1 STW         0.2100
     63 H18        31.6727   31.6368   63.5118 H         1 STW         0.0648
     64 H19        33.4212   30.6228   62.3496 H         1 STW         0.2100
     65 H20        31.5799   28.9274   62.2642 H         1 STW         0.0671
     66 H21        30.2134   30.2034   60.8427 H         1 STW         0.2101
     67 H22        28.1630   23.5921   60.1133 H         1 STW         0.0939
     68 H23        28.9777   20.0727   61.9457 H         1 STW         0.0612
     69 H24        29.7578   20.9077   60.5597 H         1 STW         0.0612
     70 H25        26.9549   20.8970   61.1454 H         1 STW         0.2096
     71 H26        26.7222   22.2205   64.3878 H         1 STW         0.0647
     72 H27        29.2783   23.0204   65.3330 H         1 STW         0.0648
     73 H28        27.9019   21.3036   66.1249 H         1 STW         0.2100
     74 H29        30.6628   22.7442   63.5376 H         1 STW         0.0675
     75 H30        29.8115   19.9949   63.5177 H         1 STW         0.2101
     76 H31        28.3006   24.8310   64.0681 H         1 STW         0.0584
     77 H32        27.1771   24.3978   65.4011 H         1 STW         0.0584
     78 H33        26.4778   24.6179   62.6272 H         1 STW         0.2095
     79 H34        30.2868   25.8752   62.0444 H         1 STW         0.0647
     80 H35        27.8135   27.1945   61.9712 H         1 STW         0.0587
     81 H36        28.8668   28.3149   61.0429 H         1 STW         0.0587
     82 H37        29.9405   27.3366   59.3541 H         1 STW         0.0647
     83 H38        32.2466   27.6621   59.5928 H         1 STW         0.2100
     84 H39        31.8666   25.0257   59.7913 H         1 STW         0.0648
     85 H40        32.1760   26.5207   58.0412 H         1 STW         0.2100
     86 H41        29.2407   24.6818   58.2974 H         1 STW         0.0671
     87 H42        31.1444   22.9296   59.4767 H         1 STW         0.2101
@<TRIPOS>BOND
     1    1    2 1  
     2    1   10 1  
     3   16    1 1  
     4    2    3 1  
     5    3    4 1  
     6    3    6 1  
     7    4    5 1  
     8    6    7 1  
     9    8    6 1  
    10    8    9 1  
    11   10    8 1  
    12   10   11 1  
    13   12   13 1  
    14   12   21 1  
    15   39   12 1  
    16   13   14 1  
    17   14   15 1  
    18   14   17 1  
    19   15   16 1  
    20   17   18 1  
    21   19   17 1  
    22   19   20 1  
    23   21   19 1  
    24   21   22 1  
    25   23   24 1  
    26   36   23 1  
    27   23   44 1  
    28   24   25 1  
    29   25   26 1  
    30   25   28 1  
    31   25   32 1  
    32   26   27 1  
    33   28   29 1  
    34   30   29 1  
    35   29   34 1  
    36   30   31 1  
    37   32   30 1  
    38   32   33 1  
    39   34   35 1  
    40   37   36 1  
    41   38   37 1  
    42   37   40 1  
    43   38   39 1  
    44   40   41 1  
    45   40   42 1  
    46   42   43 1  
    47   42   44 1  
    48   44   45 1  
    49    1   46 1  
    50    3   47 1  
    51    4   48 1  
    52    4   49 1  
    53    5   50 1  
    54    6   51 1  
    55    7   52 1  
    56    8   53 1  
    57    9   54 1  
    58   10   55 1  
    59   11   56 1  
    60   12   57 1  
    61   14   58 1  
    62   15   59 1  
    63   15   60 1  
    64   17   61 1  
    65   18   62 1  
    66   19   63 1  
    67   20   64 1  
    68   21   65 1  
    69   22   66 1  
    70   23   67 1  
    71   26   68 1  
    72   26   69 1  
    73   27   70 1  
    74   29   71 1  
    75   30   72 1  
    76   31   73 1  
    77   32   74 1  
    78   33   75 1  
    79   34   76 1  
    80   34   77 1  
    81   35   78 1  
    82   37   79 1  
    83   38   80 1  
    84   38   81 1  
    85   40   82 1  
    86   41   83 1  
    87   42   84 1  
    88   43   85 1  
    89   44   86 1  
    90   45   87 1  
@<TRIPOS>SUBSTRUCTURE
     1 STW         1

