### 
### Created by X-TOOL on Mon Aug  2 16:13:17 2021
### 

@<TRIPOS>MOLECULE
6eq2_ligand
   16    17     1     0     0
SMALL
GAST_HUCK


@<TRIPOS>ATOM
      1 C02       -13.2260   13.0340   12.6870 C.2       1 BU8         0.2172
      2 C04       -13.8530   11.6830   14.3040 C.ar      1 BU8         0.1016
      3 C05       -14.4670   10.9040   15.2760 C.ar      1 BU8        -0.0254
      4 C06       -13.6480   10.1170   16.0760 C.ar      1 BU8        -0.0511
      5 C07       -12.2730   10.1350   15.8950 C.ar      1 BU8        -0.0115
      6 C09       -12.4200   11.6230   14.1980 C.ar      1 BU8         0.0792
      7 N01       -13.2140   13.9610   11.6420 N.pl3     1 BU8        -0.2862
      8 N03       -14.3650   12.5760   13.3470 N.pl3     1 BU8        -0.2222
      9 N08       -11.6250   10.8740   14.9700 N.ar      1 BU8        -0.3130
     10 N10       -12.1010   12.4920   13.1770 N.2       1 BU8        -0.2948
     11 H1        -15.5432   10.9098   15.4054 H         1 BU8         0.0658
     12 H2        -14.0845    9.4877   16.8431 H         1 BU8         0.0597
     13 H3        -11.6736    9.5083   16.5455 H         1 BU8         0.0722
     14 H4        -14.0993   14.3551   11.2929 H         1 BU8         0.1874
     15 H5        -12.3198   14.2504   11.2206 H         1 BU8         0.1874
     16 H6        -15.3479   12.8312   13.1745 H         1 BU8         0.2337
@<TRIPOS>BOND
     1    1    7 1  
     2    8    1 1  
     3    1   10 2  
     4    2    3 ar 
     5    2    6 ar 
     6    2    8 1  
     7    3    4 ar 
     8    4    5 ar 
     9    5    9 ar 
    10    6    9 ar 
    11    6   10 1  
    12    3   11 1  
    13    4   12 1  
    14    5   13 1  
    15    7   14 1  
    16    7   15 1  
    17    8   16 1  
@<TRIPOS>SUBSTRUCTURE
     1 BU8         1

