### 
### Created by X-TOOL on Mon Aug  2 16:13:17 2021
### 

@<TRIPOS>MOLECULE
6eq3_ligand
   25    27     1     0     0
SMALL
GAST_HUCK


@<TRIPOS>ATOM
      1 C10       -15.8850   10.1790  -21.8190 C.2       1 BU5         0.1106
      2 C13       -18.0470    9.1100  -21.6650 C.2       1 BU5         0.0100
      3 C15       -19.1490   10.7760  -23.2820 C.3       1 BU5         0.0797
      4 C01       -14.4120   12.2110  -23.7070 C.2       1 BU5        -0.0533
      5 C02       -13.3500   12.9540  -24.1890 C.2       1 BU5         0.0290
      6 C04       -12.5590   11.7760  -22.4190 C.ar      1 BU5         0.1377
      7 C05       -13.9390   11.4610  -22.5850 C.ar      1 BU5         0.0116
      8 C06       -14.4930   10.5480  -21.6900 C.ar      1 BU5         0.0224
      9 C07       -13.6850   10.0130  -20.7060 C.ar      1 BU5        -0.0375
     10 C08       -12.3200   10.4110  -20.6340 C.ar      1 BU5        -0.0028
     11 C12       -18.0080   10.2010  -22.4930 C.2       1 BU5         0.0295
     12 N03       -12.2040   12.7070  -23.4220 N.pl3     1 BU5        -0.2641
     13 N09       -11.7320   11.2790  -21.4640 N.ar      1 BU5        -0.2843
     14 N11       -16.7530   10.8160  -22.5780 N.2       1 BU5        -0.3007
     15 O16       -20.3060   10.0940  -22.8820 O.3       1 BU5        -0.3844
     16 S14       -16.5160    8.8060  -20.9740 S.3       1 BU5        -0.0170
     17 H1        -18.9383    8.5146  -21.4728 H         1 BU5         0.0630
     18 H2        -18.9765   10.6289  -24.3584 H         1 BU5         0.0697
     19 H3        -19.2514   11.8506  -23.0705 H         1 BU5         0.0697
     20 H4        -15.4242   12.1992  -24.1087 H         1 BU5         0.0313
     21 H5        -13.3975   13.6318  -25.0401 H         1 BU5         0.0979
     22 H6        -14.0856    9.2981  -19.9965 H         1 BU5         0.0636
     23 H7        -11.7121    9.9782  -19.8478 H         1 BU5         0.0749
     24 H8        -11.2739   13.1265  -23.5629 H         1 BU5         0.2312
     25 H9        -20.4420   10.2226  -21.9506 H         1 BU5         0.2122
@<TRIPOS>BOND
     1    8    1 1  
     2    1   14 2  
     3    1   16 1  
     4    2   11 2  
     5   16    2 1  
     6   11    3 1  
     7    3   15 1  
     8    4    5 2  
     9    7    4 1  
    10   12    5 1  
    11    7    6 ar 
    12    6   12 1  
    13    6   13 ar 
    14    7    8 ar 
    15    8    9 ar 
    16    9   10 ar 
    17   10   13 ar 
    18   11   14 1  
    19    2   17 1  
    20    3   18 1  
    21    3   19 1  
    22    4   20 1  
    23    5   21 1  
    24    9   22 1  
    25   10   23 1  
    26   12   24 1  
    27   15   25 1  
@<TRIPOS>SUBSTRUCTURE
     1 BU5         1

