### 
### Created by X-TOOL on Mon Aug  2 16:13:17 2021
### 

@<TRIPOS>MOLECULE
6eq4_ligand
   24    26     1     0     0
SMALL
GAST_HUCK


@<TRIPOS>ATOM
      1 C10       -15.9360   10.2690  -20.7390 C.ar      1 BSW         0.0379
      2 C15       -16.8640   11.2970  -20.5500 C.ar      1 BSW         0.1699
      3 C01       -14.6730   12.1870  -23.0390 C.2       1 BSW        -0.0545
      4 C02       -13.6280   12.8410  -23.7320 C.2       1 BSW         0.0280
      5 C04       -12.6480   11.6460  -22.0680 C.ar      1 BSW         0.1359
      6 C05       -14.0430   11.4130  -21.9660 C.ar      1 BSW         0.0075
      7 C06       -14.5180   10.5440  -20.9370 C.ar      1 BSW        -0.0042
      8 C07       -13.5820    9.9670  -20.0500 C.ar      1 BSW        -0.0422
      9 C08       -12.2070   10.2620  -20.2400 C.ar      1 BSW        -0.0049
     10 C11       -16.4350    8.9440  -20.6800 C.ar      1 BSW        -0.0275
     11 C12       -17.8190    8.7240  -20.4690 C.ar      1 BSW         0.0070
     12 C14       -18.2260   11.0620  -20.3330 C.ar      1 BSW         0.0452
     13 F16       -16.4250   12.6330  -20.5670 F         1 BSW        -0.1715
     14 N03       -12.4120   12.5200  -23.1150 N.pl3     1 BSW        -0.2649
     15 N09       -11.7600   11.0780  -21.2080 N.ar      1 BSW        -0.2863
     16 N13       -18.6690    9.7800  -20.2960 N.ar      1 BSW        -0.3002
     17 H1        -15.7377   12.2469  -23.2596 H         1 BSW         0.0309
     18 H2        -13.7485   13.4866  -24.6006 H         1 BSW         0.0970
     19 H3        -13.9055    9.3163  -19.2457 H         1 BSW         0.0614
     20 H4        -11.4839    9.8074  -19.5725 H         1 BSW         0.0746
     21 H5        -15.7613    8.1027  -20.7957 H         1 BSW         0.0708
     22 H6        -18.2058    7.7117  -20.4447 H         1 BSW         0.0786
     23 H7        -18.9143   11.8884  -20.1970 H         1 BSW         0.0808
     24 H8        -11.4880   12.8779  -23.3961 H         1 BSW         0.2309
@<TRIPOS>BOND
     1    1    2 ar 
     2    7    1 1  
     3    1   10 ar 
     4    2   12 ar 
     5    2   13 1  
     6    3    4 2  
     7    6    3 1  
     8   14    4 1  
     9    6    5 ar 
    10    5   14 1  
    11    5   15 ar 
    12    6    7 ar 
    13    7    8 ar 
    14    8    9 ar 
    15    9   15 ar 
    16   10   11 ar 
    17   11   16 ar 
    18   12   16 ar 
    19    3   17 1  
    20    4   18 1  
    21    8   19 1  
    22    9   20 1  
    23   10   21 1  
    24   11   22 1  
    25   12   23 1  
    26   14   24 1  
@<TRIPOS>SUBSTRUCTURE
     1 BSW         1

