### 
### Created by X-TOOL on Mon Aug  2 16:13:17 2021
### 

@<TRIPOS>MOLECULE
6eq5_ligand
   17    18     1     0     0
SMALL
GAST_HUCK


@<TRIPOS>ATOM
      1 NAF       -12.3470   11.0060   14.1780 N.2       1 AX7        -0.3139
      2 CAI       -13.3380   10.6030   15.1140 C.ar      1 AX7         0.0112
      3 CAD       -13.2670    9.7200   16.1720 C.ar      1 AX7        -0.0694
      4 CAB       -14.3980    9.5220   16.9280 C.ar      1 AX7        -0.0809
      5 CAC       -15.5970   10.2010   16.6240 C.ar      1 AX7        -0.0787
      6 CAE       -15.6810   11.0870   15.5630 C.ar      1 AX7        -0.0448
      7 CAJ       -14.5370   11.3070   14.7860 C.ar      1 AX7         0.0750
      8 NAG       -14.3320   12.1540   13.6580 N.pl3     1 AX7        -0.2304
      9 CAH       -13.0080   11.9340   13.3330 C.2       1 AX7         0.2106
     10 NAA       -12.3080   12.4960   12.3370 N.pl3     1 AX7        -0.2887
     11 H1        -12.3453    9.1972   16.4006 H         1 AX7         0.0516
     12 H2        -14.3684    8.8365   17.7672 H         1 AX7         0.0508
     13 H3        -16.4741   10.0247   17.2361 H         1 AX7         0.0513
     14 H4        -16.6104   11.5981   15.3393 H         1 AX7         0.0533
     15 H5        -15.0082   12.7792   13.1967 H         1 AX7         0.2311
     16 H6        -11.3185   12.2460   12.1981 H         1 AX7         0.1860
     17 H7        -12.7598   13.1777   11.7108 H         1 AX7         0.1860
@<TRIPOS>BOND
     1    1    2 1  
     2    1    9 2  
     3    2    3 ar 
     4    2    7 ar 
     5    3    4 ar 
     6    4    5 ar 
     7    5    6 ar 
     8    6    7 ar 
     9    7    8 1  
    10    8    9 1  
    11    9   10 1  
    12    3   11 1  
    13    4   12 1  
    14    5   13 1  
    15    6   14 1  
    16    8   15 1  
    17   10   16 1  
    18   10   17 1  
@<TRIPOS>SUBSTRUCTURE
     1 AX7         1

