### 
### Created by X-TOOL on Mon Aug  2 16:13:17 2021
### 

@<TRIPOS>MOLECULE
6eq6_ligand
   30    32     1     0     0
SMALL
GAST_HUCK


@<TRIPOS>ATOM
      1 N12       -12.4310   12.3600  -22.9700 N.pl3     1 EV2        -0.3129
      2 C10       -12.7080   12.0920  -21.6160 C.ar      1 EV2         0.1687
      3 N8        -11.6780   11.7490  -20.8100 N.ar      1 EV2        -0.2736
      4 C6        -11.9130   11.4730  -19.4570 C.ar      1 EV2         0.0421
      5 C4        -10.8120   11.1060  -18.5730 C.ar      1 EV2        -0.0463
      6 C2        -11.0350   10.8410  -17.2220 C.ar      1 EV2        -0.0614
      7 C9        -14.0980   12.1960  -21.0810 C.ar      1 EV2         0.1733
      8 N7        -14.2750   11.9270  -19.7870 N.ar      1 EV2        -0.2733
      9 C5        -13.2040   11.5630  -18.9330 C.ar      1 EV2         0.0421
     10 C3        -13.4220   11.2780  -17.5140 C.ar      1 EV2        -0.0463
     11 C1        -12.3570   10.9240  -16.6880 C.ar      1 EV2        -0.0614
     12 N11       -15.1600   12.5640  -22.0390 N.pl3     1 EV2        -0.2850
     13 C16       -15.3740   11.8440  -23.3090 C.3       1 EV2         0.0318
     14 C14       -16.9130   11.5460  -23.4270 C.3       1 EV2        -0.0305
     15 C13       -17.5800   12.6470  -22.6870 C.3       1 EV2        -0.0305
     16 C15       -16.5510   13.1120  -21.6300 C.3       1 EV2         0.0318
     17 H1        -13.1942   12.6238  -23.6094 H         1 EV2         0.1802
     18 H2        -11.4651   12.2923  -23.3213 H         1 EV2         0.1802
     19 H3         -9.8063   11.0383  -18.9719 H         1 EV2         0.0616
     20 H4        -10.2056   10.5723  -16.5778 H         1 EV2         0.0617
     21 H5        -14.4223   11.3430  -17.1014 H         1 EV2         0.0616
     22 H6        -12.5320   10.7115  -15.6395 H         1 EV2         0.0617
     23 H7        -14.8076   10.9010  -23.3067 H         1 EV2         0.0525
     24 H8        -15.0458   12.4668  -24.1542 H         1 EV2         0.0525
     25 H9        -17.1538   10.5740  -22.9719 H         1 EV2         0.0286
     26 H10       -17.2261   11.5448  -24.4815 H         1 EV2         0.0286
     27 H11       -18.4960   12.2832  -22.1986 H         1 EV2         0.0286
     28 H12       -17.8312   13.4726  -23.3691 H         1 EV2         0.0286
     29 H13       -16.5233   14.2111  -21.5949 H         1 EV2         0.0525
     30 H14       -16.8299   12.7204  -20.6406 H         1 EV2         0.0525
@<TRIPOS>BOND
     1    1    2 1  
     2    2    3 ar 
     3    2    7 ar 
     4    3    4 ar 
     5    4    5 ar 
     6    4    9 ar 
     7    5    6 ar 
     8    6   11 ar 
     9    7    8 ar 
    10    7   12 1  
    11    8    9 ar 
    12    9   10 ar 
    13   10   11 ar 
    14   12   13 1  
    15   12   16 1  
    16   13   14 1  
    17   14   15 1  
    18   15   16 1  
    19    1   17 1  
    20    1   18 1  
    21    5   19 1  
    22    6   20 1  
    23   10   21 1  
    24   11   22 1  
    25   13   23 1  
    26   13   24 1  
    27   14   25 1  
    28   14   26 1  
    29   15   27 1  
    30   15   28 1  
    31   16   29 1  
    32   16   30 1  
@<TRIPOS>SUBSTRUCTURE
     1 EV2         1

