### 
### Created by X-TOOL on Mon Aug  2 16:13:17 2021
### 

@<TRIPOS>MOLECULE
6eq7_ligand
   25    27     1     0     0
SMALL
GAST_HUCK


@<TRIPOS>ATOM
      1 C10       -15.5130  -12.4370    9.3180 C.ar      1 BS8         0.0445
      2 C13       -16.0220  -16.7200   10.0260 C.ar      1 BS8        -0.0443
      3 C02       -12.6080  -16.8220   12.9980 C.2       1 BS8         0.2172
      4 C04       -14.2300  -16.3770   11.5930 C.ar      1 BS8         0.0488
      5 C05       -15.2190  -15.8210   10.7290 C.ar      1 BS8         0.0024
      6 C06       -15.3980  -14.4450   10.5990 C.ar      1 BS8         0.0367
      7 C07       -15.6690  -13.6840   11.7240 C.ar      1 BS8        -0.0283
      8 C08       -15.8480  -12.3170   11.5890 C.ar      1 BS8         0.0064
      9 C11       -15.3180  -13.8090    9.3670 C.ar      1 BS8         0.1690
     10 C14       -15.8420  -18.0960   10.1690 C.ar      1 BS8        -0.0078
     11 C16       -14.0850  -17.7380   11.7050 C.ar      1 BS8         0.1483
     12 F12       -15.0580  -14.5070    8.2240 F         1 BS8        -0.1721
     13 N01       -11.5280  -16.6490   13.9440 N.pl3     1 BS8        -0.2867
     14 N03       -13.2850  -15.8370   12.4180 N.2       1 BS8        -0.3020
     15 N09       -15.7690  -11.7330   10.4060 N.ar      1 BS8        -0.3008
     16 N15       -14.9000  -18.5490   10.9850 N.ar      1 BS8        -0.2881
     17 N17       -13.0730  -17.9880   12.5830 N.pl3     1 BS8        -0.2148
     18 H1        -15.4538  -11.9291    8.3622 H         1 BS8         0.0806
     19 H2        -16.7931  -16.3456    9.3624 H         1 BS8         0.0608
     20 H3        -15.7402  -14.1527   12.6989 H         1 BS8         0.0704
     21 H4        -16.0561  -11.7169   12.4674 H         1 BS8         0.0785
     22 H5        -16.4670  -18.7891    9.6176 H         1 BS8         0.0722
     23 H6        -11.2268  -15.7018   14.2142 H         1 BS8         0.1871
     24 H7        -11.0600  -17.4730   14.3476 H         1 BS8         0.1871
     25 H8        -12.7324  -18.9165   12.8709 H         1 BS8         0.2349
@<TRIPOS>BOND
     1    9    1 ar 
     2    1   15 ar 
     3    5    2 ar 
     4    2   10 ar 
     5    3   13 1  
     6   14    3 2  
     7    3   17 1  
     8    5    4 ar 
     9    4   11 ar 
    10    4   14 1  
    11    6    5 1  
    12    6    7 ar 
    13    6    9 ar 
    14    7    8 ar 
    15    8   15 ar 
    16    9   12 1  
    17   10   16 ar 
    18   11   16 ar 
    19   11   17 1  
    20    1   18 1  
    21    2   19 1  
    22    7   20 1  
    23    8   21 1  
    24   10   22 1  
    25   13   23 1  
    26   13   24 1  
    27   17   25 1  
@<TRIPOS>SUBSTRUCTURE
     1 BS8         1

