### 
### Created by X-TOOL on Wed Jan  1 15:39:36 2020
### 

@<TRIPOS>MOLECULE
6eq8_ligand
   45    46     1     0     0
SMALL
GAST_HUCK


@<TRIPOS>ATOM
      1 C4        139.5810    7.7310   77.7300 C.3       1 BQZ         0.1119
      2 C5        139.2540    7.6420   76.2390 C.3       1 BQZ         0.1130
      3 C6        140.3390    8.2210   75.3420 C.3       1 BQZ         0.0730
      4 C11       134.8190    6.8420   72.8650 C.3       1 BQZ         0.1118
      5 C7        136.2060    5.9420   74.8610 C.3       1 BQZ         0.1183
      6 C8        135.3050    4.6610   74.8510 C.3       1 BQZ         0.1122
      7 C9        134.7580    4.3810   73.4400 C.3       1 BQZ         0.1118
      8 C10       133.9330    5.5720   72.9050 C.3       1 BQZ         0.1118
      9 C12       135.4150    7.1630   74.2900 C.3       1 BQZ         0.1122
     10 C3        138.3820    7.2120   78.5110 C.3       1 BQZ         0.1141
     11 C1        137.8410    5.6360   76.5810 C.3       1 BQZ         0.1884
     12 C2        138.0610    5.7440   78.0980 C.3       1 BQZ         0.1341
     13 O1        136.5880    6.2280   76.2160 O.3       1 BQZ        -0.3401
     14 O2        136.9640    5.2310   78.8100 O.3       1 BQZ        -0.3841
     15 O3        138.7570    7.2460   79.8650 O.3       1 BQZ        -0.3864
     16 O4        140.6950    6.8880   78.0440 O.3       1 BQZ        -0.3865
     17 O5        138.9540    6.2670   75.8680 O.3       1 BQZ        -0.3405
     18 O6        139.9490    7.9480   73.9930 O.3       1 BQZ        -0.3924
     19 O8        134.2230    4.7850   75.8060 O.3       1 BQZ        -0.3865
     20 O9        133.9780    3.2070   73.4940 O.3       1 BQZ        -0.3865
     21 O10       133.4990    5.2640   71.5920 O.3       1 BQZ        -0.3865
     22 O11       134.0360    7.9320   72.3710 O.3       1 BQZ        -0.3865
     23 O12       136.2370    8.3170   74.2890 O.3       1 BQZ        -0.3865
     24 H1        139.8025    8.7724   78.0064 H         1 BQZ         0.0647
     25 H2        138.3453    8.2386   76.0708 H         1 BQZ         0.0647
     26 H3        141.3057    7.7439   75.5606 H         1 BQZ         0.0584
     27 H4        140.4217    9.3064   75.5000 H         1 BQZ         0.0584
     28 H5        135.6562    6.6674   72.1732 H         1 BQZ         0.0647
     29 H6        137.1033    5.7662   74.2495 H         1 BQZ         0.0651
     30 H7        135.9276    3.8051   75.1505 H         1 BQZ         0.0647
     31 H8        135.6049    4.2148   72.7580 H         1 BQZ         0.0647
     32 H9        133.0636    5.7466   73.5559 H         1 BQZ         0.0647
     33 H10       134.5674    7.3599   74.9630 H         1 BQZ         0.0647
     34 H11       137.5028    7.8494   78.3355 H         1 BQZ         0.0648
     35 H12       137.8128    4.5712   76.3064 H         1 BQZ         0.0938
     36 H13       138.9367    5.1289   78.3524 H         1 BQZ         0.0671
     37 H14       137.1277    5.3108   79.7424 H         1 BQZ         0.2101
     38 H15       138.0439    6.9150   80.3983 H         1 BQZ         0.2100
     39 H16       141.4614    7.1881   77.5696 H         1 BQZ         0.2100
     40 H17       140.6038    8.2954   73.3988 H         1 BQZ         0.2095
     41 H18       134.5817    4.9573   76.6686 H         1 BQZ         0.2100
     42 H19       133.6667    2.9946   72.6220 H         1 BQZ         0.2100
     43 H20       132.9894    5.9891   71.2499 H         1 BQZ         0.2100
     44 H21       133.6914    7.7101   71.5140 H         1 BQZ         0.2100
     45 H22       137.0018    8.1592   73.7479 H         1 BQZ         0.2100
@<TRIPOS>BOND
     1    1    2 1  
     2   10    1 1  
     3    1   16 1  
     4    2    3 1  
     5    2   17 1  
     6    3   18 1  
     7    4    8 1  
     8    9    4 1  
     9    4   22 1  
    10    5    6 1  
    11    5    9 1  
    12   13    5 1  
    13    6    7 1  
    14    6   19 1  
    15    7    8 1  
    16    7   20 1  
    17    8   21 1  
    18    9   23 1  
    19   12   10 1  
    20   10   15 1  
    21   11   12 1  
    22   11   13 1  
    23   11   17 1  
    24   12   14 1  
    25    1   24 1  
    26    2   25 1  
    27    3   26 1  
    28    3   27 1  
    29    4   28 1  
    30    5   29 1  
    31    6   30 1  
    32    7   31 1  
    33    8   32 1  
    34    9   33 1  
    35   10   34 1  
    36   11   35 1  
    37   12   36 1  
    38   14   37 1  
    39   15   38 1  
    40   16   39 1  
    41   18   40 1  
    42   19   41 1  
    43   20   42 1  
    44   21   43 1  
    45   22   44 1  
    46   23   45 1  
@<TRIPOS>SUBSTRUCTURE
     1 BQZ         1

