### 
### Created by X-TOOL on Wed Jan  1 15:39:36 2020
### 

@<TRIPOS>MOLECULE
6eqm_ligand
   50    52     1     0     0
SMALL
GAST_HUCK


@<TRIPOS>ATOM
      1 C1         28.8830   77.1730   20.9270 C.ar      1 BUH         0.1655
      2 C2         29.8100   77.7750   21.8070 C.ar      1 BUH         0.0202
      3 C3         30.6000   76.9380   22.5900 C.ar      1 BUH         0.0170
      4 C11        29.4360   73.1800   18.6510 C.3       1 BUH         0.2317
      5 C13        30.4050   72.8180   20.9020 C.3       1 BUH         0.0711
      6 C14        28.8250   72.9290   22.9250 C.3       1 BUH        -0.0405
      7 C15        29.5050   74.3790   17.6500 C.3       1 BUH        -0.0243
      8 C17        25.0140   79.5200   17.9010 C.ar      1 BUH         0.0460
      9 C18        25.2790   80.5310   16.9960 C.ar      1 BUH         0.0799
     10 C19        26.5190   81.1760   16.9920 C.ar      1 BUH         0.0042
     11 C20        27.4510   80.7760   17.9330 C.ar      1 BUH         0.1145
     12 C21        27.1340   79.7380   18.8240 C.ar      1 BUH         0.1697
     13 C23        28.0640   79.2290   19.8600 C.2       1 BUH         0.2748
     14 C26        24.2160   80.9280   16.0200 C.3       1 BUH         0.3872
     15 C4         30.4420   75.5650   22.4860 C.ar      1 BUH         0.1814
     16 C5         29.4400   75.0040   21.6470 C.ar      1 BUH         0.0828
     17 N6         28.7090   75.8580   20.9150 N.ar      1 BUH        -0.2678
     18 F7         31.1810   74.7670   23.2380 F         1 BUH        -0.1509
     19 C8         29.1630   73.5010   21.5150 C.3       1 BUH         0.1281
     20 N9         27.9800   73.2950   20.6740 N.pl3     1 BUH        -0.2884
     21 C10        28.0930   73.1330   19.4070 C.cat     1 BUH         0.2391
     22 O12        30.5210   73.3590   19.5690 O.3       1 BUH        -0.3683
     23 N16        26.9760   72.9330   18.7270 N.pl3     1 BUH        -0.2741
     24 N22        25.9260   79.1430   18.7990 N.ar      1 BUH        -0.2441
     25 N24        28.0650   77.9090   20.0620 N.am      1 BUH        -0.2057
     26 O25        28.7230   80.0450   20.4990 O.2       1 BUH        -0.3534
     27 CL         29.0310   81.5500   17.9400 Cl        1 BUH        -0.0485
     28 F28        23.0240   80.9500   16.6180 F         1 BUH        -0.2150
     29 F29        24.4770   82.1160   15.4500 F         1 BUH        -0.2150
     30 F30        24.1390   79.9640   15.0880 F         1 BUH        -0.2150
     31 C31        29.7330   71.8330   17.9700 C.3       1 BUH         0.4210
     32 F32        28.9190   71.7280   16.8990 F         1 BUH        -0.1679
     33 F33        31.0190   71.8630   17.5200 F         1 BUH        -0.1679
     34 F34        29.5110   70.8060   18.8260 F         1 BUH        -0.1679
     35 H1         29.9030   78.8531   21.8704 H         1 BUH         0.0879
     36 H2         31.3306   77.3554   23.2734 H         1 BUH         0.0782
     37 H3         30.2652   71.7276   20.8639 H         1 BUH         0.0504
     38 H4         31.3035   73.0521   21.4919 H         1 BUH         0.0504
     39 H5         27.9371   73.4406   23.3250 H         1 BUH         0.0175
     40 H6         29.6775   73.0919   23.6008 H         1 BUH         0.0175
     41 H7         28.6217   71.8510   22.8443 H         1 BUH         0.0175
     42 H8         30.4774   74.3718   17.1358 H         1 BUH         0.0257
     43 H9         29.3886   75.3239   18.2010 H         1 BUH         0.0257
     44 H10        28.6976   74.2849   16.9089 H         1 BUH         0.0257
     45 H11        24.0496   79.0255   17.8807 H         1 BUH         0.1073
     46 H12        26.7422   81.9606   16.2781 H         1 BUH         0.0975
     47 H13        27.0454   73.2802   21.1067 H         1 BUH         0.3098
     48 H14        26.0721   72.8994   19.2197 H         1 BUH         0.3178
     49 H15        27.0102   72.8109   17.7048 H         1 BUH         0.3178
     50 H16        27.4009   77.3826   19.5310 H         1 BUH         0.2336
@<TRIPOS>BOND
     1    1    2 ar 
     2   17    1 ar 
     3    1   25 1  
     4    3    2 ar 
     5   15    3 ar 
     6    4    7 1  
     7    4   21 1  
     8   22    4 1  
     9    4   31 1  
    10   19    5 1  
    11    5   22 1  
    12   19    6 1  
    13    8    9 ar 
    14   24    8 ar 
    15   10    9 ar 
    16    9   14 1  
    17   11   10 ar 
    18   12   11 ar 
    19   11   27 1  
    20   13   12 1  
    21   12   24 ar 
    22   25   13 am 
    23   13   26 2  
    24   14   28 1  
    25   14   29 1  
    26   14   30 1  
    27   16   15 ar 
    28   15   18 1  
    29   16   17 ar 
    30   16   19 1  
    31   19   20 1  
    32   20   21 ar 
    33   21   23 ar 
    34   31   32 1  
    35   31   33 1  
    36   31   34 1  
    37    2   35 1  
    38    3   36 1  
    39    5   37 1  
    40    5   38 1  
    41    6   39 1  
    42    6   40 1  
    43    6   41 1  
    44    7   42 1  
    45    7   43 1  
    46    7   44 1  
    47    8   45 1  
    48   10   46 1  
    49   20   47 1  
    50   23   48 1  
    51   23   49 1  
    52   25   50 1  
@<TRIPOS>SUBSTRUCTURE
     1 BUH         1

