### 
### Created by X-TOOL on Mon Sep 10 21:13:32 2018
### 

@<TRIPOS>MOLECULE
6eqp_ligand
   47    49     1     0     0
SMALL
GAST_HUCK


@<TRIPOS>ATOM
      1 C01        42.4870  -16.2200   41.5890 C.ar      1 BUW         0.0751
      2 C02        42.4690  -17.0870   40.4890 C.ar      1 BUW        -0.0451
      3 C03        43.2590  -16.8260   39.3710 C.ar      1 BUW        -0.0795
      4 C04        44.0690  -15.6940   39.3390 C.ar      1 BUW        -0.0802
      5 C05        44.0940  -14.8260   40.4260 C.ar      1 BUW        -0.0579
      6 C06        43.3110  -15.0860   41.5480 C.ar      1 BUW         0.0507
      7 C08        41.6610  -14.1680   43.3980 C.ar      1 BUW         0.0507
      8 C09        40.9560  -13.0920   43.9370 C.ar      1 BUW        -0.0579
      9 C10        39.6210  -13.2520   44.3130 C.ar      1 BUW        -0.0802
     10 C11        38.9950  -14.4860   44.1500 C.ar      1 BUW        -0.0795
     11 C12        39.6970  -15.5650   43.6120 C.ar      1 BUW        -0.0451
     12 C13        41.0310  -15.4080   43.2260 C.ar      1 BUW         0.0751
     13 N14        41.7300  -16.4610   42.7070 N.pl3     1 BUW        -0.2588
     14 S07        43.3590  -13.9620   42.9200 S.3       1 BUW        -0.0559
     15 C15        41.4490  -17.8310   43.1730 C.3       1 BUW         0.0845
     16 C16        42.6670  -18.7860   43.3400 C.3       1 BUW        -0.0002
     17 C17        43.5300  -18.3610   44.5540 C.3       1 BUW        -0.0194
     18 C19        43.2940  -21.1130   44.0610 C.3       1 BUW        -0.0345
     19 C20        43.6500  -22.4770   43.4470 C.3       1 BUW        -0.0245
     20 C21        42.0670  -20.7090   41.8690 C.3       1 BUW        -0.0345
     21 C22        40.7720  -21.5040   41.6210 C.3       1 BUW        -0.0245
     22 N18        42.2750  -20.2640   43.3080 N.4       1 BUW         0.2384
     23 H1         41.8363  -17.9670   40.5075 H         1 BUW         0.0502
     24 H2         43.2429  -17.5046   38.5259 H         1 BUW         0.0529
     25 H3         44.6800  -15.4890   38.4674 H         1 BUW         0.0494
     26 H4         44.7247  -13.9448   40.3995 H         1 BUW         0.0529
     27 H5         41.4441  -12.1325   44.0638 H         1 BUW         0.0529
     28 H6         39.0717  -12.4165   44.7316 H         1 BUW         0.0494
     29 H7         37.9583  -14.6082   44.4424 H         1 BUW         0.0529
     30 H8         39.2078  -16.5250   43.4934 H         1 BUW         0.0502
     31 H9         40.7622  -18.2933   42.4487 H         1 BUW         0.0613
     32 H10        40.9522  -17.7531   44.1513 H         1 BUW         0.0613
     33 H11        43.3008  -18.6338   42.4540 H         1 BUW         0.0871
     34 H12        44.3840  -19.0469   44.6548 H         1 BUW         0.0285
     35 H13        42.9199  -18.3982   45.4686 H         1 BUW         0.0285
     36 H14        43.8990  -17.3362   44.4008 H         1 BUW         0.0285
     37 H15        44.2232  -20.5291   44.1356 H         1 BUW         0.0812
     38 H16        42.8941  -21.2962   45.0692 H         1 BUW         0.0812
     39 H17        44.3899  -22.9839   44.0839 H         1 BUW         0.0281
     40 H18        44.0720  -22.3279   42.4422 H         1 BUW         0.0281
     41 H19        42.7429  -23.0951   43.3758 H         1 BUW         0.0281
     42 H20        42.0452  -19.8118   41.2330 H         1 BUW         0.0812
     43 H21        42.9185  -21.3427   41.5801 H         1 BUW         0.0812
     44 H22        40.7095  -21.7807   40.5582 H         1 BUW         0.0281
     45 H23        39.9040  -20.8842   41.8902 H         1 BUW         0.0281
     46 H24        40.7773  -22.4151   42.2373 H         1 BUW         0.0281
     47 H25        41.3928  -20.3621   43.7857 H         1 BUW         0.2037
@<TRIPOS>BOND
     1    1    2 ar 
     2    1    6 ar 
     3   13    1 1  
     4    2    3 ar 
     5    3    4 ar 
     6    5    4 ar 
     7    6    5 ar 
     8    6   14 1  
     9    7    8 ar 
    10   12    7 ar 
    11    7   14 1  
    12    8    9 ar 
    13   10    9 ar 
    14   11   10 ar 
    15   12   11 ar 
    16   13   12 1  
    17   15   13 1  
    18   16   15 1  
    19   16   17 1  
    20   22   16 1  
    21   18   19 1  
    22   22   18 1  
    23   20   21 1  
    24   20   22 1  
    25    2   23 1  
    26    3   24 1  
    27    4   25 1  
    28    5   26 1  
    29    8   27 1  
    30    9   28 1  
    31   10   29 1  
    32   11   30 1  
    33   15   31 1  
    34   15   32 1  
    35   16   33 1  
    36   17   34 1  
    37   17   35 1  
    38   17   36 1  
    39   18   37 1  
    40   18   38 1  
    41   19   39 1  
    42   19   40 1  
    43   19   41 1  
    44   20   42 1  
    45   20   43 1  
    46   21   44 1  
    47   21   45 1  
    48   21   46 1  
    49   22   47 1  
@<TRIPOS>SUBSTRUCTURE
     1 BUW         1

