### 
### Created by X-TOOL on Mon Sep 10 21:13:31 2018
### 

@<TRIPOS>MOLECULE
6equ_ligand
   64    68     1     0     0
SMALL
GAST_HUCK


@<TRIPOS>ATOM
      1 C12        -1.1400    8.1570   13.2080 C.ar      1 BVE        -0.0528
      2 C13        -3.4850    3.4040   11.1720 C.ar      1 BVE        -0.0062
      3 C18        -4.6710    3.1990   10.4750 C.ar      1 BVE        -0.0556
      4 C22        -1.6620    4.3990    9.8370 C.2       1 BVE        -0.0436
      5 C17        -5.4700    2.1000   10.7430 C.ar      1 BVE        -0.0680
      6 C16        -5.0980    1.1910   11.7100 C.ar      1 BVE        -0.0684
      7 C15        -3.9270    1.3800   12.4130 C.ar      1 BVE        -0.0680
      8 C14        -3.1260    2.4790   12.1470 C.ar      1 BVE        -0.0556
      9 C21        -0.7970    5.4450    9.5250 C.2       1 BVE        -0.0444
     10 C28        -3.1040    3.5030   15.1580 C.ar      1 BVE        -0.0584
     11 C29        -3.6820    2.4280   15.8060 C.ar      1 BVE        -0.0419
     12 C24        -5.0540    2.4030   15.9970 C.ar      1 BVE         0.1009
     13 S1         -5.7910    1.0220   16.8190 S.o2      1 BVE         0.0628
     14 O2         -5.3250    1.0560   18.1770 O.2       1 BVE        -0.1514
     15 O1         -7.2070    1.0810   16.5910 O.2       1 BVE        -0.1514
     16 N2         -5.2410   -0.3240   16.1490 N.am      1 BVE        -0.2617
     17 C25        -5.8410    3.4500   15.5450 C.ar      1 BVE        -0.0419
     18 C26        -5.2420    4.5180   14.8950 C.ar      1 BVE        -0.0584
     19 C27        -3.8690    4.5590   14.6890 C.ar      1 BVE        -0.0410
     20 C30        -3.2220    5.7170   13.9650 C.3       1 BVE         0.0014
     21 C31        -3.7500    5.8960   12.5550 C.3       1 BVE         0.0423
     22 N1         -2.6850    5.7190   11.5460 N.pl3     1 BVE        -0.2816
     23 C23        -2.6000    4.5390   10.8460 C.3       1 BVE         0.0983
     24 C1          0.1980    5.3020    8.4310 C.ar      1 BVE        -0.0343
     25 C6          1.5500    5.5530    8.6530 C.ar      1 BVE        -0.0598
     26 C5          2.4760    5.4240    7.6300 C.ar      1 BVE        -0.0650
     27 C4          2.0680    5.0430    6.3700 C.ar      1 BVE        -0.0652
     28 C3          0.7350    4.7900    6.1300 C.ar      1 BVE        -0.0650
     29 C2         -0.1920    4.9190    7.1510 C.ar      1 BVE        -0.0598
     30 C20        -0.8930    6.6280   10.2530 C.2       1 BVE        -0.0587
     31 C19        -1.8340    6.7600   11.2620 C.2       1 BVE         0.0472
     32 C7         -1.8870    8.0110   12.0430 C.ar      1 BVE         0.0014
     33 C11        -1.1540    9.3470   13.9180 C.ar      1 BVE        -0.0620
     34 C10        -1.9150   10.4080   13.4760 C.ar      1 BVE        -0.0626
     35 C9         -2.6630   10.2810   12.3250 C.ar      1 BVE        -0.0620
     36 C8         -2.6510    9.0920   11.6130 C.ar      1 BVE        -0.0528
     37 H1         -0.5389    7.3285   13.5650 H         1 BVE         0.0621
     38 H2         -4.9736    3.9079    9.7128 H         1 BVE         0.0563
     39 H3         -1.6002    3.4635    9.2830 H         1 BVE         0.0640
     40 H4         -6.3911    1.9542   10.1904 H         1 BVE         0.0600
     41 H5         -5.7239    0.3305   11.9171 H         1 BVE         0.0561
     42 H6         -3.6325    0.6676   13.1751 H         1 BVE         0.0600
     43 H7         -2.2079    2.6197   12.7058 H         1 BVE         0.0563
     44 H8         -2.0298    3.5206   15.0136 H         1 BVE         0.0557
     45 H9         -3.0663    1.6101   16.1623 H         1 BVE         0.0619
     46 H10        -5.5502   -1.2131   16.4865 H         1 BVE         0.1634
     47 H11        -4.5882   -0.2757   15.3930 H         1 BVE         0.1634
     48 H12        -6.9140    3.4342   15.6981 H         1 BVE         0.0619
     49 H13        -5.8572    5.3371   14.5406 H         1 BVE         0.0557
     50 H14        -2.1378    5.5385   13.9144 H         1 BVE         0.0446
     51 H15        -3.4157    6.6391   14.5327 H         1 BVE         0.0446
     52 H16        -4.1691    6.9083   12.4571 H         1 BVE         0.0546
     53 H17        -4.5403    5.1528   12.3732 H         1 BVE         0.0546
     54 H18        -3.3373    4.9129   10.1204 H         1 BVE         0.0899
     55 H19         1.8826    5.8535    9.6400 H         1 BVE         0.0592
     56 H20         3.5242    5.6233    7.8215 H         1 BVE         0.0608
     57 H21         2.7932    4.9427    5.5706 H         1 BVE         0.0589
     58 H22         0.4111    4.4894    5.1401 H         1 BVE         0.0608
     59 H23        -1.2381    4.7184    6.9499 H         1 BVE         0.0592
     60 H24        -0.2231    7.4565   10.0277 H         1 BVE         0.0332
     61 H25        -0.5652    9.4437   14.8230 H         1 BVE         0.0615
     62 H26        -1.9252   11.3388   14.0315 H         1 BVE         0.0610
     63 H27        -3.2625   11.1138   11.9757 H         1 BVE         0.0615
     64 H28        -3.2440    9.0028   10.7100 H         1 BVE         0.0621
@<TRIPOS>BOND
     1   32    1 ar 
     2    1   33 ar 
     3    2    3 ar 
     4    2    8 ar 
     5   23    2 1  
     6    3    5 ar 
     7    9    4 2  
     8   23    4 1  
     9    5    6 ar 
    10    7    6 ar 
    11    8    7 ar 
    12    9   24 1  
    13   30    9 1  
    14   10   11 ar 
    15   19   10 ar 
    16   11   12 ar 
    17   12   13 1  
    18   17   12 ar 
    19   13   14 2  
    20   13   15 2  
    21   13   16 am 
    22   18   17 ar 
    23   19   18 ar 
    24   20   19 1  
    25   21   20 1  
    26   22   21 1  
    27   22   23 1  
    28   31   22 1  
    29   24   25 ar 
    30   24   29 ar 
    31   25   26 ar 
    32   26   27 ar 
    33   28   27 ar 
    34   29   28 ar 
    35   31   30 2  
    36   31   32 1  
    37   32   36 ar 
    38   33   34 ar 
    39   34   35 ar 
    40   35   36 ar 
    41    1   37 1  
    42    3   38 1  
    43    4   39 1  
    44    5   40 1  
    45    6   41 1  
    46    7   42 1  
    47    8   43 1  
    48   10   44 1  
    49   11   45 1  
    50   16   46 1  
    51   16   47 1  
    52   17   48 1  
    53   18   49 1  
    54   20   50 1  
    55   20   51 1  
    56   21   52 1  
    57   21   53 1  
    58   23   54 1  
    59   25   55 1  
    60   26   56 1  
    61   27   57 1  
    62   28   58 1  
    63   29   59 1  
    64   30   60 1  
    65   33   61 1  
    66   34   62 1  
    67   35   63 1  
    68   36   64 1  
@<TRIPOS>SUBSTRUCTURE
     1 BVE         1

