### 
### Created by X-TOOL on Wed Jan  1 15:39:35 2020
### 

@<TRIPOS>MOLECULE
6eqv_ligand
  100   101     1     0     0
SMALL
GAST_HUCK


@<TRIPOS>ATOM
      1 C1'        54.6560  -34.9960   -3.1020 C.ar      1 HY1        -0.0243
      2 C2'        54.1100  -33.8570   -2.5200 C.ar      1 HY1        -0.0580
      3 C3'        54.5350  -33.4470   -1.2640 C.ar      1 HY1        -0.0681
      4 C4'        55.5070  -34.1770   -0.5890 C.ar      1 HY1        -0.0684
      5 C5'        56.0520  -35.3170   -1.1700 C.ar      1 HY1        -0.0681
      6 C6'        55.6260  -35.7280   -2.4270 C.ar      1 HY1        -0.0580
      7 CA         54.2220  -35.3980   -4.3570 C.3       1 HY1         0.0705
      8 C          52.6950  -35.5600   -4.3200 C.2       1 HY1         0.1898
      9 O          52.1770  -36.4140   -3.6010 O.2       1 HY1        -0.3939
     10 C1         50.2180  -35.2320   -6.5980 C.2       1 CIR         0.2039
     11 O1         50.8680  -34.7830   -7.5380 O.2       1 CIR        -0.3944
     12 C2         50.5250  -34.7440   -5.1910 C.3       1 CIR         0.1311
     13 N2         51.9970  -34.7090   -5.0940 N.am      1 CIR        -0.2640
     14 C3         49.8990  -33.3580   -4.9320 C.3       1 CIR        -0.0106
     15 C4         50.1510  -32.9150   -3.4710 C.3       1 CIR        -0.0288
     16 C5         49.2910  -33.7370   -2.4960 C.3       1 CIR         0.0314
     17 N6         49.5200  -33.2950   -1.1020 N.am      1 CIR        -0.2733
     18 C7         50.3760  -33.9400   -0.2870 C.2       1 CIR         0.2548
     19 O7         51.0090  -34.9210   -0.6770 O.2       1 CIR        -0.4010
     20 N8         50.5080  -33.4970    0.9720 N.am      1 CIR        -0.2870
     21 N          49.2710  -36.1680   -6.7380 N.am      1 VAL        -0.2635
     22 CA         48.9780  -36.7010   -8.0840 C.3       1 VAL         0.1332
     23 C          47.4950  -36.5870   -8.4190 C.2       1 VAL         0.2041
     24 O          46.6500  -36.5430   -7.5310 O.2       1 VAL        -0.3944
     25 CB         49.3560  -38.1980   -8.1380 C.3       1 VAL        -0.0063
     26 CG1        50.8460  -38.4010   -7.8300 C.3       1 VAL        -0.0584
     27 CG2        48.5210  -39.0030   -7.1270 C.3       1 VAL        -0.0584
     28 N          47.2130  -36.5730   -9.7360 N.am      1 ARG        -0.2637
     29 CA         45.8370  -36.5800  -10.2400 C.3       1 ARG         0.1311
     30 C          45.2560  -37.9420   -9.8210 C.2       1 ARG         0.2035
     31 O          45.9430  -38.9500   -9.9230 O.2       1 ARG        -0.3944
     32 CB         45.8720  -36.4930  -11.7600 C.3       1 ARG        -0.0092
     33 CG         46.3930  -35.1200  -12.2180 C.3       1 ARG        -0.0156
     34 CD         46.5140  -35.1710  -13.7530 C.3       1 ARG         0.0627
     35 NE         46.9930  -33.8940  -14.3060 N.pl3     1 ARG        -0.2723
     36 CZ         48.2690  -33.4830  -14.2480 C.cat     1 ARG         0.2882
     37 NH1        48.6070  -32.3120  -14.8030 N.pl3     1 ARG        -0.2849
     38 NH2        49.2040  -34.2320  -13.6350 N.pl3     1 ARG        -0.2849
     39 N23        44.0100  -37.9550   -9.3030 N.am      1 00S        -0.2737
     40 C16        43.3860  -39.1910   -8.7890 C.3       1 00S         0.0645
     41 C17        43.5400  -39.1980   -7.3690 C.ar      1 00S        -0.0210
     42 C22        42.5510  -38.6840   -6.5280 C.ar      1 00S        -0.0584
     43 C21        42.7190  -38.6830   -5.1280 C.ar      1 00S        -0.0633
     44 C24        43.8760  -39.1870   -4.5340 C.ar      1 00S         0.0188
     45 C27        44.0320  -39.1860   -3.1190 C.cat     1 00S         0.2318
     46 N35        45.2240  -39.4620   -2.5710 N.pl3     1 00S        -0.2729
     47 N34        42.9760  -38.8960   -2.3540 N.pl3     1 00S        -0.2729
     48 C19        44.8600  -39.7060   -5.3750 C.ar      1 00S        -0.0633
     49 C18        44.6990  -39.7050   -6.7770 C.ar      1 00S        -0.0584
     50 H1         53.3522  -33.2892   -3.0476 H         1 HY1         0.0561
     51 H2         54.1099  -32.5592   -0.8100 H         1 HY1         0.0600
     52 H3         55.8405  -33.8571    0.3916 H         1 HY1         0.0561
     53 H4         56.8094  -35.8851   -0.6420 H         1 HY1         0.0600
     54 H5         56.0490  -36.6172   -2.8802 H         1 HY1         0.0561
     55 H6         54.6900  -36.3579   -4.6209 H         1 HY1         0.0659
     56 H7         54.4959  -34.6388   -5.1044 H         1 HY1         0.0659
     57 H8         50.1220  -35.4540   -4.4538 H         1 CIR         0.0800
     58 H9         52.4964  -34.0247   -5.6254 H         1 CIR         0.1884
     59 H10        48.8152  -33.4106   -5.1126 H         1 CIR         0.0313
     60 H11        50.3495  -32.6236   -5.6159 H         1 CIR         0.0313
     61 H12        49.8955  -31.8501   -3.3677 H         1 CIR         0.0287
     62 H13        51.2135  -33.0625   -3.2274 H         1 CIR         0.0287
     63 H14        49.5574  -34.8004   -2.5867 H         1 CIR         0.0517
     64 H15        48.2289  -33.6022   -2.7484 H         1 CIR         0.0517
     65 H16        49.0263  -32.4969   -0.7567 H         1 CIR         0.1845
     66 H17        51.1362  -33.9559    1.6003 H         1 CIR         0.1808
     67 H18        49.9782  -32.7077    1.2825 H         1 CIR         0.1808
     68 H19        48.7681  -36.5022   -5.9409 H         1 VAL         0.1883
     69 H20        49.5647  -36.1413   -8.8273 H         1 VAL         0.0802
     70 H21        49.1488  -38.5741   -9.1507 H         1 VAL         0.0343
     71 H22        51.0870  -39.4733   -7.8752 H         1 VAL         0.0234
     72 H23        51.0679  -38.0175   -6.8232 H         1 VAL         0.0234
     73 H24        51.4509  -37.8577   -8.5709 H         1 VAL         0.0234
     74 H25        47.4512  -38.8628   -7.3410 H         1 VAL         0.0234
     75 H26        48.7402  -38.6515   -6.1080 H         1 VAL         0.0234
     76 H27        48.7746  -40.0702   -7.2093 H         1 VAL         0.0234
     77 H28        47.9678  -36.5573  -10.3917 H         1 ARG         0.1883
     78 H29        45.2513  -35.7498   -9.8185 H         1 ARG         0.0800
     79 H30        44.8555  -36.6421  -12.1530 H         1 ARG         0.0313
     80 H31        46.5352  -37.2787  -12.1508 H         1 ARG         0.0313
     81 H32        47.3769  -34.9205  -11.7683 H         1 ARG         0.0301
     82 H33        45.6872  -34.3303  -11.9211 H         1 ARG         0.0301
     83 H34        45.5259  -35.3960  -14.1808 H         1 ARG         0.0689
     84 H35        47.2224  -35.9662  -14.0282 H         1 ARG         0.0689
     85 H36        46.3070  -33.2783  -14.7655 H         1 ARG         0.2642
     86 H37        49.5835  -31.9866  -14.7644 H         1 ARG         0.2615
     87 H38        47.8905  -31.7368  -15.2684 H         1 ARG         0.2615
     88 H39        48.9439  -35.1326  -13.2082 H         1 ARG         0.2615
     89 H40        50.1797  -33.9047  -13.5926 H         1 ARG         0.2615
     90 H41        43.4924  -37.1001   -9.2660 H         1 00S         0.1878
     91 H42        43.8833  -40.0705   -9.2239 H         1 00S         0.0683
     92 H43        42.3175  -39.2076   -9.0499 H         1 00S         0.0683
     93 H44        41.6413  -38.2801   -6.9574 H         1 00S         0.0557
     94 H45        41.9319  -38.2819   -4.4998 H         1 00S         0.0599
     95 H46        45.3327  -39.4603   -1.5468 H         1 00S         0.3180
     96 H47        46.0310  -39.6758   -3.1742 H         1 00S         0.3180
     97 H48        42.0666  -38.6861   -2.7896 H         1 00S         0.3180
     98 H49        43.0712  -38.8823   -1.3285 H         1 00S         0.3180
     99 H50        45.7653  -40.1178   -4.9438 H         1 00S         0.0599
    100 H51        45.4876  -40.1042   -7.4046 H         1 00S         0.0557
@<TRIPOS>BOND
     1    1    2 ar 
     2    1    6 ar 
     3    7    1 1  
     4    2    3 ar 
     5    3    4 ar 
     6    5    4 ar 
     7    6    5 ar 
     8    8    7 1  
     9    8    9 2  
    10   13    8 am 
    11   10   11 2  
    12   12   10 1  
    13   10   21 am 
    14   12   13 1  
    15   12   14 1  
    16   14   15 1  
    17   15   16 1  
    18   16   17 1  
    19   17   18 am 
    20   18   19 2  
    21   18   20 am 
    22   21   22 1  
    23   22   23 1  
    24   22   25 1  
    25   23   24 2  
    26   23   28 am 
    27   25   26 1  
    28   25   27 1  
    29   28   29 1  
    30   29   30 1  
    31   29   32 1  
    32   30   31 2  
    33   30   39 am 
    34   32   33 1  
    35   33   34 1  
    36   34   35 1  
    37   35   36 ar 
    38   36   37 ar 
    39   36   38 ar 
    40   39   40 1  
    41   40   41 1  
    42   41   42 ar 
    43   41   49 ar 
    44   42   43 ar 
    45   43   44 ar 
    46   44   45 1  
    47   44   48 ar 
    48   45   46 ar 
    49   45   47 ar 
    50   48   49 ar 
    51    2   50 1  
    52    3   51 1  
    53    4   52 1  
    54    5   53 1  
    55    6   54 1  
    56    7   55 1  
    57    7   56 1  
    58   12   57 1  
    59   13   58 1  
    60   14   59 1  
    61   14   60 1  
    62   15   61 1  
    63   15   62 1  
    64   16   63 1  
    65   16   64 1  
    66   17   65 1  
    67   20   66 1  
    68   20   67 1  
    69   21   68 1  
    70   22   69 1  
    71   25   70 1  
    72   26   71 1  
    73   26   72 1  
    74   26   73 1  
    75   27   74 1  
    76   27   75 1  
    77   27   76 1  
    78   28   77 1  
    79   29   78 1  
    80   32   79 1  
    81   32   80 1  
    82   33   81 1  
    83   33   82 1  
    84   34   83 1  
    85   34   84 1  
    86   35   85 1  
    87   37   86 1  
    88   37   87 1  
    89   38   88 1  
    90   38   89 1  
    91   39   90 1  
    92   40   91 1  
    93   40   92 1  
    94   42   93 1  
    95   43   94 1  
    96   46   95 1  
    97   46   96 1  
    98   47   97 1  
    99   47   98 1  
   100   48   99 1  
   101   49  100 1  
@<TRIPOS>SUBSTRUCTURE
     1 HY1         1

