### 
### Created by X-TOOL on Wed Jan  1 15:39:35 2020
### 

@<TRIPOS>MOLECULE
6eqw_ligand
  111   112     1     0     0
SMALL
GAST_HUCK


@<TRIPOS>ATOM
      1 N1         54.5120  -33.9040    2.1820 N.4       1 BVK         0.2300
      2 C2         53.8840  -33.1040   -2.3780 C.ar      1 BVK        -0.0643
      3 C3         54.0910  -32.6450   -1.0850 C.ar      1 BVK        -0.0614
      4 C4         54.7360  -33.4440   -0.1490 C.ar      1 BVK        -0.0051
      5 C5         55.1690  -34.7190   -0.5150 C.ar      1 BVK        -0.0614
      6 C6         54.9510  -35.1820   -1.8120 C.ar      1 BVK        -0.0643
      7 CA         54.0640  -34.8110   -4.0590 C.3       1 BVK         0.0674
      8 C          52.5520  -35.0880   -4.1230 C.2       1 BVK         0.1887
      9 O          52.0360  -35.8280   -3.2820 O.2       1 BVK        -0.3942
     10 C1         54.3140  -34.3720   -2.7540 C.ar      1 BVK        -0.0310
     11 C7         54.9390  -32.9470    1.1460 C.3       1 BVK        -0.0045
     12 N          51.8530  -34.4430   -5.0830 N.am      1 ARG        -0.2641
     13 CA         50.3900  -34.6170   -5.2160 C.3       1 ARG         0.1311
     14 C          50.1140  -35.1630   -6.6260 C.2       1 ARG         0.2039
     15 O          50.7360  -34.7240   -7.5870 O.2       1 ARG        -0.3944
     16 CB         49.6500  -33.2830   -4.9510 C.3       1 ARG        -0.0092
     17 CG         49.9220  -32.8160   -3.4950 C.3       1 ARG        -0.0156
     18 CD         49.2950  -33.7910   -2.4730 C.3       1 ARG         0.0627
     19 NE         49.5180  -33.3290   -1.0760 N.pl3     1 ARG        -0.2723
     20 CZ         50.4140  -33.8930   -0.2310 C.cat     1 ARG         0.2882
     21 NH1        50.5330  -33.4480    1.0400 N.pl3     1 ARG        -0.2849
     22 NH2        51.1790  -34.9210   -0.6400 N.pl3     1 ARG        -0.2849
     23 N          49.2370  -36.1680   -6.7260 N.am      1 TBG        -0.2632
     24 CA         48.9770  -36.8070   -8.0230 C.3       1 TBG         0.1358
     25 CB         49.3780  -38.3030   -7.9040 C.3       1 TBG         0.0026
     26 CG1        49.2330  -38.9960   -9.2670 C.3       1 TBG        -0.0558
     27 CG2        50.8320  -38.4300   -7.4140 C.3       1 TBG        -0.0558
     28 CG3        48.4840  -39.0120   -6.8750 C.3       1 TBG        -0.0558
     29 C          47.4930  -36.6870   -8.4020 C.2       1 TBG         0.2044
     30 O          46.6390  -36.6600   -7.5240 O.2       1 TBG        -0.3944
     31 N          47.2120  -36.6030   -9.7180 N.am      1 ARG        -0.2637
     32 CA         45.8410  -36.5480  -10.2390 C.3       1 ARG         0.1311
     33 C          45.2380  -37.9160   -9.8930 C.2       1 ARG         0.2035
     34 O          45.8890  -38.9320  -10.1200 O.2       1 ARG        -0.3944
     35 CB         45.8900  -36.3910  -11.7600 C.3       1 ARG        -0.0092
     36 CG         46.3300  -34.9710  -12.1770 C.3       1 ARG        -0.0156
     37 CD         46.6550  -34.9920  -13.6830 C.3       1 ARG         0.0627
     38 NE         47.0990  -33.6740  -14.1780 N.pl3     1 ARG        -0.2723
     39 CZ         48.3750  -33.2520  -14.0970 C.cat     1 ARG         0.2882
     40 NH1        49.2990  -34.0260  -13.5080 N.pl3     1 ARG        -0.2849
     41 NH2        48.7290  -32.0530  -14.5820 N.pl3     1 ARG        -0.2849
     42 N23        44.0330  -37.9320   -9.2980 N.am      1 00S        -0.2737
     43 C16        43.3960  -39.1800   -8.8270 C.3       1 00S         0.0645
     44 C17        43.5360  -39.2150   -7.3970 C.ar      1 00S        -0.0210
     45 C22        42.5450  -38.7240   -6.5510 C.ar      1 00S        -0.0584
     46 C21        42.7020  -38.7390   -5.1530 C.ar      1 00S        -0.0633
     47 C24        43.8580  -39.2470   -4.5500 C.ar      1 00S         0.0188
     48 C27        44.0120  -39.2610   -3.1340 C.cat     1 00S         0.2318
     49 N35        45.1960  -39.5580   -2.5850 N.pl3     1 00S        -0.2729
     50 N34        42.9790  -38.9250   -2.3620 N.pl3     1 00S        -0.2729
     51 C19        44.8520  -39.7350   -5.3970 C.ar      1 00S        -0.0633
     52 C18        44.6910  -39.7180   -6.7960 C.ar      1 00S        -0.0584
     53 H1         54.6754  -33.5070    3.0940 H         1 BVK         0.2007
     54 H2         55.0389  -34.7582    2.0881 H         1 BVK         0.2007
     55 H3         53.5296  -34.1014    2.0727 H         1 BVK         0.2007
     56 H4         53.3834  -32.4695   -3.1004 H         1 BVK         0.0544
     57 H5         53.7472  -31.6563   -0.8032 H         1 BVK         0.0542
     58 H6         55.6743  -35.3488    0.2082 H         1 BVK         0.0542
     59 H7         55.2782  -36.1772   -2.0907 H         1 BVK         0.0544
     60 H8         54.3424  -34.0331   -4.7852 H         1 BVK         0.0646
     61 H9         54.6314  -35.7295   -4.2699 H         1 BVK         0.0646
     62 H10        56.0098  -32.7340    1.2800 H         1 BVK         0.0966
     63 H11        54.3628  -32.0174    1.2631 H         1 BVK         0.0966
     64 H12        52.3341  -33.8363   -5.7158 H         1 ARG         0.1884
     65 H13        50.0459  -35.3541   -4.4756 H         1 ARG         0.0800
     66 H14        48.5690  -33.4297   -5.0923 H         1 ARG         0.0313
     67 H15        50.0113  -32.5181   -5.6541 H         1 ARG         0.0313
     68 H16        49.4872  -31.8159   -3.3511 H         1 ARG         0.0301
     69 H17        51.0084  -32.7709   -3.3290 H         1 ARG         0.0301
     70 H18        49.7512  -34.7840   -2.5989 H         1 ARG         0.0689
     71 H19        48.2130  -33.8583   -2.6595 H         1 ARG         0.0689
     72 H20        48.9592  -32.5351   -0.7320 H         1 ARG         0.2642
     73 H21        51.2169  -33.8826    1.6759 H         1 ARG         0.2615
     74 H22        49.9398  -32.6744    1.3725 H         1 ARG         0.2615
     75 H23        51.0988  -35.2703   -1.6056 H         1 ARG         0.2615
     76 H24        51.8450  -35.3588    0.0124 H         1 ARG         0.2615
     77 H25        48.7540  -36.4872   -5.9106 H         1 TBG         0.1884
     78 H26        49.5860  -36.3218   -8.7999 H         1 TBG         0.0805
     79 H27        49.5190  -40.0540   -9.1727 H         1 TBG         0.0237
     80 H28        49.8881  -38.5032  -10.0005 H         1 TBG         0.0237
     81 H29        48.1882  -38.9273   -9.6040 H         1 TBG         0.0237
     82 H30        50.9346  -37.9334   -6.4379 H         1 TBG         0.0237
     83 H31        51.5067  -37.9536   -8.1405 H         1 TBG         0.0237
     84 H32        51.0935  -39.4937   -7.3135 H         1 TBG         0.0237
     85 H33        47.4331  -38.9420   -7.1923 H         1 TBG         0.0237
     86 H34        48.6032  -38.5314   -5.8928 H         1 TBG         0.0237
     87 H35        48.7756  -40.0702   -6.8032 H         1 TBG         0.0237
     88 H36        47.9715  -36.5770  -10.3680 H         1 ARG         0.1883
     89 H37        45.2681  -35.7273   -9.7827 H         1 ARG         0.0800
     90 H38        44.8887  -36.5882  -12.1706 H         1 ARG         0.0313
     91 H39        46.6046  -37.1198  -12.1702 H         1 ARG         0.0313
     92 H40        47.2232  -34.6753  -11.6072 H         1 ARG         0.0301
     93 H41        45.5170  -34.2564  -11.9813 H         1 ARG         0.0301
     94 H42        45.7524  -35.2918  -14.2357 H         1 ARG         0.0689
     95 H43        47.4552  -35.7252  -13.8622 H         1 ARG         0.0689
     96 H44        46.4007  -33.0486  -14.6049 H         1 ARG         0.2642
     97 H45        50.2756  -33.7049  -13.4451 H         1 ARG         0.2615
     98 H46        49.0318  -34.9414  -13.1187 H         1 ARG         0.2615
     99 H47        48.0255  -31.4528  -15.0356 H         1 ARG         0.2615
    100 H48        49.7044  -31.7322  -14.5009 H         1 ARG         0.2615
    101 H49        43.5488  -37.0666   -9.1690 H         1 00S         0.1878
    102 H50        43.8957  -40.0510   -9.2760 H         1 00S         0.0683
    103 H51        42.3309  -39.1864   -9.1016 H         1 00S         0.0683
    104 H52        41.6336  -38.3218   -6.9784 H         1 00S         0.0557
    105 H53        41.9079  -38.3474   -4.5276 H         1 00S         0.0599
    106 H54        45.3010  -39.5665   -1.5604 H         1 00S         0.3180
    107 H55        46.0022  -39.7781   -3.1871 H         1 00S         0.3180
    108 H56        42.0697  -38.6972   -2.7888 H         1 00S         0.3180
    109 H57        43.0899  -38.8931   -1.3385 H         1 00S         0.3180
    110 H58        45.7652  -40.1347   -4.9711 H         1 00S         0.0599
    111 H59        45.4856  -40.1060   -7.4230 H         1 00S         0.0557
@<TRIPOS>BOND
     1   11    1 1  
     2    2    3 ar 
     3   10    2 ar 
     4    3    4 ar 
     5    5    4 ar 
     6    4   11 1  
     7    6    5 ar 
     8   10    6 ar 
     9    7    8 1  
    10    7   10 1  
    11    8    9 2  
    12    8   12 am 
    13   12   13 1  
    14   13   14 1  
    15   13   16 1  
    16   14   15 2  
    17   14   23 am 
    18   16   17 1  
    19   17   18 1  
    20   18   19 1  
    21   19   20 ar 
    22   20   21 ar 
    23   20   22 ar 
    24   23   24 1  
    25   24   25 1  
    26   24   29 1  
    27   25   26 1  
    28   25   27 1  
    29   25   28 1  
    30   29   30 2  
    31   29   31 am 
    32   31   32 1  
    33   32   33 1  
    34   32   35 1  
    35   33   34 2  
    36   33   42 am 
    37   35   36 1  
    38   36   37 1  
    39   37   38 1  
    40   38   39 ar 
    41   39   40 ar 
    42   39   41 ar 
    43   42   43 1  
    44   43   44 1  
    45   44   45 ar 
    46   44   52 ar 
    47   45   46 ar 
    48   46   47 ar 
    49   47   48 1  
    50   47   51 ar 
    51   48   49 ar 
    52   48   50 ar 
    53   51   52 ar 
    54    1   53 1  
    55    1   54 1  
    56    1   55 1  
    57    2   56 1  
    58    3   57 1  
    59    5   58 1  
    60    6   59 1  
    61    7   60 1  
    62    7   61 1  
    63   11   62 1  
    64   11   63 1  
    65   12   64 1  
    66   13   65 1  
    67   16   66 1  
    68   16   67 1  
    69   17   68 1  
    70   17   69 1  
    71   18   70 1  
    72   18   71 1  
    73   19   72 1  
    74   21   73 1  
    75   21   74 1  
    76   22   75 1  
    77   22   76 1  
    78   23   77 1  
    79   24   78 1  
    80   26   79 1  
    81   26   80 1  
    82   26   81 1  
    83   27   82 1  
    84   27   83 1  
    85   27   84 1  
    86   28   85 1  
    87   28   86 1  
    88   28   87 1  
    89   31   88 1  
    90   32   89 1  
    91   35   90 1  
    92   35   91 1  
    93   36   92 1  
    94   36   93 1  
    95   37   94 1  
    96   37   95 1  
    97   38   96 1  
    98   40   97 1  
    99   40   98 1  
   100   41   99 1  
   101   41  100 1  
   102   42  101 1  
   103   43  102 1  
   104   43  103 1  
   105   45  104 1  
   106   46  105 1  
   107   49  106 1  
   108   49  107 1  
   109   50  108 1  
   110   50  109 1  
   111   51  110 1  
   112   52  111 1  
@<TRIPOS>SUBSTRUCTURE
     1 BVK         1

