### 
### Created by X-TOOL on Wed Jan  1 15:39:35 2020
### 

@<TRIPOS>MOLECULE
6er3_ligand
   60    61     1     0     0
SMALL
GAST_HUCK


@<TRIPOS>ATOM
      1 C1         57.1720    7.8280   28.6940 C.2       1 SIA         0.1041
      2 C2         56.7870    8.2690   30.0890 C.3       1 SIA         0.2208
      3 C3         56.5860    9.7870   30.1400 C.3       1 SIA         0.0353
      4 C4         55.2970   10.2420   29.4380 C.3       1 SIA         0.0850
      5 C5         54.0840    9.4400   29.8960 C.3       1 SIA         0.0964
      6 C6         54.4140    7.9510   29.7830 C.3       1 SIA         0.1143
      7 C7         53.2710    7.0420   30.2350 C.3       1 SIA         0.1114
      8 C8         53.6480    5.5710   30.0770 C.3       1 SIA         0.1065
      9 C9         52.4040    4.7150   30.0250 C.3       1 SIA         0.0727
     10 C10        51.7710   10.2070   29.6260 C.2       1 SIA         0.1733
     11 C11        50.7540   10.7300   28.6540 C.3       1 SIA         0.0257
     12 N5         52.9200    9.8010   29.0930 N.am      1 SIA        -0.2790
     13 O1A        58.0020    8.5320   28.0690 O.co2     1 SIA        -0.5426
     14 O1B        56.6950    6.7480   28.2260 O.co2     1 SIA        -0.5426
     15 O2         57.8540    7.9290   30.9990 O.3       1 SIA        -0.3380
     16 O4         55.0470   11.6200   29.7340 O.3       1 SIA        -0.3893
     17 O6         55.5950    7.6370   30.5530 O.3       1 SIA        -0.3384
     18 O7         52.9800    7.2790   31.6090 O.3       1 SIA        -0.3865
     19 O8         54.3990    5.3210   28.8870 O.3       1 SIA        -0.3869
     20 O9         52.7620    3.4860   30.6460 O.3       1 SIA        -0.3924
     21 O10        51.5140   10.2010   30.8210 O.2       1 SIA        -0.3974
     22 C1         59.7520    5.4070   32.8810 C.3       1 GAL         0.1854
     23 C2         59.0460    6.7290   32.5530 C.3       1 GAL         0.1342
     24 C3         58.3840    6.6990   31.1670 C.3       1 GAL         0.1197
     25 C4         59.3050    6.0720   30.1280 C.3       1 GAL         0.1121
     26 C5         59.9440    4.7770   30.6000 C.3       1 GAL         0.1130
     27 C6         60.9450    4.3190   29.5450 C.3       1 GAL         0.0730
     28 O1         60.5320    5.5610   34.0530 O.3       1 GAL        -0.3649
     29 O2         58.0240    6.9500   33.5070 O.3       1 GAL        -0.3841
     30 O4         60.3040    7.0130   29.8240 O.3       1 GAL        -0.3865
     31 O5         60.6090    5.0270   31.8190 O.3       1 GAL        -0.3407
     32 O6         61.2710    2.9660   29.7330 O.3       1 GAL        -0.3924
     33 H1         57.4430   10.2715   29.6492 H         1 SIA         0.0336
     34 H2         56.5415   10.1003   31.1935 H         1 SIA         0.0336
     35 H3         55.4228   10.1157   28.3526 H         1 SIA         0.0618
     36 H4         53.8700    9.6768   30.9487 H         1 SIA         0.0608
     37 H5         54.6199    7.7348   28.7243 H         1 SIA         0.0646
     38 H6         52.3800    7.2573   29.6270 H         1 SIA         0.0647
     39 H7         54.2544    5.2757   30.9459 H         1 SIA         0.0643
     40 H8         52.0983    4.5440   28.9823 H         1 SIA         0.0584
     41 H9         51.5819    5.1978   30.5737 H         1 SIA         0.0584
     42 H10        49.8489   11.0356   29.1993 H         1 SIA         0.0467
     43 H11        50.4979    9.9412   27.9314 H         1 SIA         0.0467
     44 H12        51.1698   11.5965   28.1190 H         1 SIA         0.0467
     45 H13        52.9894    9.7404   28.0973 H         1 SIA         0.1856
     46 H14        54.2682   11.9059   29.2713 H         1 SIA         0.2099
     47 H15        53.7468    7.0789   32.1330 H         1 SIA         0.2100
     48 H16        55.1887    5.8490   28.8955 H         1 SIA         0.2100
     49 H17        52.0133    2.9012   30.6433 H         1 SIA         0.2095
     50 H18        58.9968    4.6233   33.0405 H         1 SIA         0.0935
     51 H19        59.7793    7.5480   32.5899 H         1 SIA         0.0671
     52 H20        57.5255    6.0134   31.2214 H         1 SIA         0.0650
     53 H21        58.7193    5.8567   29.2222 H         1 SIA         0.0647
     54 H22        59.1742    4.0048   30.7452 H         1 SIA         0.0647
     55 H23        61.8587    4.9262   29.6247 H         1 SIA         0.0584
     56 H24        60.5038    4.4498   28.5459 H         1 SIA         0.0584
     57 H25        59.9698    5.8162   34.7749 H         1 SIA         0.2126
     58 H26        57.5959    7.7783   33.3247 H         1 SIA         0.2101
     59 H27        60.8628    6.6692   29.1369 H         1 SIA         0.2100
     60 H28        61.8945    2.6964   29.0689 H         1 SIA         0.2095
@<TRIPOS>BOND
     1    2    1 1  
     2    1   13 ar 
     3    1   14 ar 
     4    2    3 1  
     5   15    2 1  
     6    2   17 1  
     7    3    4 1  
     8    4    5 1  
     9    4   16 1  
    10    6    5 1  
    11    5   12 1  
    12    6    7 1  
    13   17    6 1  
    14    7    8 1  
    15    7   18 1  
    16    8    9 1  
    17    8   19 1  
    18    9   20 1  
    19   10   11 1  
    20   12   10 am 
    21   10   21 2  
    22   24   15 1  
    23   23   22 1  
    24   22   28 1  
    25   22   31 1  
    26   23   24 1  
    27   23   29 1  
    28   24   25 1  
    29   25   26 1  
    30   25   30 1  
    31   26   27 1  
    32   26   31 1  
    33   27   32 1  
    34    3   33 1  
    35    3   34 1  
    36    4   35 1  
    37    5   36 1  
    38    6   37 1  
    39    7   38 1  
    40    8   39 1  
    41    9   40 1  
    42    9   41 1  
    43   11   42 1  
    44   11   43 1  
    45   11   44 1  
    46   12   45 1  
    47   16   46 1  
    48   18   47 1  
    49   19   48 1  
    50   20   49 1  
    51   22   50 1  
    52   23   51 1  
    53   24   52 1  
    54   25   53 1  
    55   26   54 1  
    56   27   55 1  
    57   27   56 1  
    58   28   57 1  
    59   29   58 1  
    60   30   59 1  
    61   32   60 1  
@<TRIPOS>SUBSTRUCTURE
     1 SIA         1

