### 
### Created by X-TOOL on Wed Jan  1 15:39:34 2020
### 

@<TRIPOS>MOLECULE
6er4_ligand
   81    83     1     0     0
SMALL
GAST_HUCK


@<TRIPOS>ATOM
      1 C1         57.6400    7.5540   28.4090 C.2       1 SIA         0.1041
      2 C2         57.1890    8.0130   29.7850 C.3       1 SIA         0.2204
      3 C3         57.0000    9.5350   29.9080 C.3       1 SIA         0.0353
      4 C4         55.7570    9.9870   29.1590 C.3       1 SIA         0.0850
      5 C5         54.5160    9.2030   29.6120 C.3       1 SIA         0.0964
      6 C6         54.8170    7.7120   29.3950 C.3       1 SIA         0.1143
      7 C7         53.7220    6.7370   29.8180 C.3       1 SIA         0.1114
      8 C8         54.1920    5.2920   29.7120 C.3       1 SIA         0.1065
      9 C9         53.0010    4.3630   29.8150 C.3       1 SIA         0.0727
     10 C10        52.1900    9.8610   29.3820 C.2       1 SIA         0.1733
     11 C11        51.1520   10.4640   28.4910 C.3       1 SIA         0.0257
     12 N5         53.3480    9.6380   28.8390 N.am      1 SIA        -0.2790
     13 O1A        58.4570    8.2560   27.7570 O.co2     1 SIA        -0.5426
     14 O1B        57.2140    6.4550   27.9710 O.co2     1 SIA        -0.5426
     15 O2         58.1540    7.6250   30.7500 O.3       1 SIA        -0.3441
     16 O4         55.5980   11.3680   29.4850 O.3       1 SIA        -0.3893
     17 O6         55.9790    7.3600   30.1790 O.3       1 SIA        -0.3384
     18 O7         53.3040    7.0030   31.1520 O.3       1 SIA        -0.3865
     19 O8         54.8950    5.0430   28.4740 O.3       1 SIA        -0.3869
     20 O9         53.4420    3.0240   30.0140 O.3       1 SIA        -0.3924
     21 O10        51.9500    9.5420   30.5560 O.2       1 SIA        -0.3974
     22 C1         62.1050    6.5900   30.7870 C.3       1 GAL         0.1884
     23 C2         62.5630    5.1350   30.8590 C.3       1 GAL         0.1341
     24 C3         61.6450    4.2620   30.0110 C.3       1 GAL         0.1141
     25 C4         60.2000    4.4830   30.4330 C.3       1 GAL         0.1119
     26 C5         59.8810    5.9760   30.3970 C.3       1 GAL         0.1132
     27 C6         58.4650    6.2230   30.8560 C.3       1 GAL         0.0786
     28 O1         62.9380    7.3350   31.6530 O.3       1 GAL        -0.3401
     29 O2         63.8840    5.0340   30.3320 O.3       1 GAL        -0.3841
     30 O3         61.9970    2.8960   30.1450 O.3       1 GAL        -0.3864
     31 O4         59.9890    4.0440   31.7800 O.3       1 GAL        -0.3865
     32 O5         60.7860    6.7090   31.2550 O.3       1 GAL        -0.3405
     33 C2         62.9180   10.8820   32.7060 C.3       1 BGC         0.1339
     34 C3         62.8390    9.3610   32.8550 C.3       1 BGC         0.1144
     35 C4         62.8510    8.7510   31.4560 C.3       1 BGC         0.1184
     36 C5         64.1000    9.2560   30.7220 C.3       1 BGC         0.1134
     37 C6         64.2040    8.7160   29.2850 C.3       1 BGC         0.0730
     38 C1         64.1620   11.2680   31.9140 C.3       1 BGC         0.1854
     39 O1         64.1770   12.6780   31.7010 O.3       1 BGC        -0.3649
     40 O2         62.9920   11.4240   34.0420 O.3       1 BGC        -0.3841
     41 O3         61.6530    9.0260   33.5850 O.3       1 BGC        -0.3864
     42 O5         63.9900   10.6760   30.6250 O.3       1 BGC        -0.3407
     43 O6         62.9660    8.8700   28.5630 O.3       1 BGC        -0.3924
     44 H1         57.8798   10.0429   29.4861 H         1 SIA         0.0336
     45 H2         56.8974    9.8010   30.9704 H         1 SIA         0.0336
     46 H3         55.8965    9.8581   28.0755 H         1 SIA         0.0618
     47 H4         54.3267    9.3870   30.6798 H         1 SIA         0.0608
     48 H5         55.0242    7.5604   28.3254 H         1 SIA         0.0646
     49 H6         52.8615    6.8734   29.1465 H         1 SIA         0.0647
     50 H7         54.8770    5.0869   30.5479 H         1 SIA         0.0643
     51 H8         52.4144    4.4188   28.8861 H         1 SIA         0.0584
     52 H9         52.3728    4.6693   30.6644 H         1 SIA         0.0584
     53 H10        50.2199   10.6056   29.0576 H         1 SIA         0.0467
     54 H11        50.9651    9.7932   27.6395 H         1 SIA         0.0467
     55 H12        51.5072   11.4369   28.1204 H         1 SIA         0.0467
     56 H13        53.4477    9.7683   27.8525 H         1 SIA         0.1856
     57 H14        54.8297   11.7101   29.0432 H         1 SIA         0.2099
     58 H15        53.0111    7.9044   31.2171 H         1 SIA         0.2100
     59 H16        55.6416    5.6272   28.4121 H         1 SIA         0.2100
     60 H17        53.9476    2.9743   30.8167 H         1 SIA         0.2095
     61 H18        62.1782    6.9637   29.7550 H         1 SIA         0.0938
     62 H19        62.5465    4.7918   31.9040 H         1 SIA         0.0671
     63 H20        61.7550    4.5516   28.9555 H         1 SIA         0.0648
     64 H21        59.5323    3.9354   29.7515 H         1 SIA         0.0647
     65 H22        59.9929    6.3373   29.3641 H         1 SIA         0.0647
     66 H23        57.7715    5.6467   30.2260 H         1 SIA         0.0586
     67 H24        58.3601    5.9041   31.9035 H         1 SIA         0.0586
     68 H25        64.4718    5.5725   30.8486 H         1 SIA         0.2101
     69 H26        61.8956    2.6315   31.0518 H         1 SIA         0.2100
     70 H27        60.5645    4.5255   32.3626 H         1 SIA         0.2100
     71 H28        62.0226   11.2605   32.1913 H         1 SIA         0.0671
     72 H29        63.7142    8.9966   33.4129 H         1 SIA         0.0648
     73 H30        61.9422    9.0159   30.8958 H         1 SIA         0.0651
     74 H31        64.9993    8.9732   31.2887 H         1 SIA         0.0647
     75 H32        64.4624    7.6475   29.3242 H         1 SIA         0.0584
     76 H33        64.9958    9.2655   28.7548 H         1 SIA         0.0584
     77 H34        65.0813   10.9262   32.4119 H         1 SIA         0.0935
     78 H35        63.3554   12.9463   31.3067 H         1 SIA         0.2126
     79 H36        63.7608   11.0788   34.4804 H         1 SIA         0.2101
     80 H37        61.6891    9.4256   34.4462 H         1 SIA         0.2100
     81 H38        62.7384    9.7913   28.5198 H         1 SIA         0.2095
@<TRIPOS>BOND
     1    2    1 1  
     2    1   13 ar 
     3    1   14 ar 
     4    2    3 1  
     5   15    2 1  
     6    2   17 1  
     7    3    4 1  
     8    4    5 1  
     9    4   16 1  
    10    6    5 1  
    11    5   12 1  
    12    6    7 1  
    13   17    6 1  
    14    7    8 1  
    15    7   18 1  
    16    8    9 1  
    17    8   19 1  
    18    9   20 1  
    19   10   11 1  
    20   12   10 am 
    21   10   21 2  
    22   27   15 1  
    23   22   23 1  
    24   28   22 1  
    25   22   32 1  
    26   23   24 1  
    27   23   29 1  
    28   24   25 1  
    29   24   30 1  
    30   26   25 1  
    31   25   31 1  
    32   26   27 1  
    33   32   26 1  
    34   35   28 1  
    35   34   33 1  
    36   33   38 1  
    37   33   40 1  
    38   34   35 1  
    39   34   41 1  
    40   35   36 1  
    41   36   37 1  
    42   36   42 1  
    43   37   43 1  
    44   38   39 1  
    45   38   42 1  
    46    3   44 1  
    47    3   45 1  
    48    4   46 1  
    49    5   47 1  
    50    6   48 1  
    51    7   49 1  
    52    8   50 1  
    53    9   51 1  
    54    9   52 1  
    55   11   53 1  
    56   11   54 1  
    57   11   55 1  
    58   12   56 1  
    59   16   57 1  
    60   18   58 1  
    61   19   59 1  
    62   20   60 1  
    63   22   61 1  
    64   23   62 1  
    65   24   63 1  
    66   25   64 1  
    67   26   65 1  
    68   27   66 1  
    69   27   67 1  
    70   29   68 1  
    71   30   69 1  
    72   31   70 1  
    73   33   71 1  
    74   34   72 1  
    75   35   73 1  
    76   36   74 1  
    77   37   75 1  
    78   37   76 1  
    79   38   77 1  
    80   39   78 1  
    81   40   79 1  
    82   41   80 1  
    83   43   81 1  
@<TRIPOS>SUBSTRUCTURE
     1 SIA         1

