### 
### Created by X-TOOL on Wed Jan  1 15:39:38 2020
### 

@<TRIPOS>MOLECULE
6es0_ligand
   51    53     1     0     0
SMALL
GAST_HUCK


@<TRIPOS>ATOM
      1 C14         7.5030    0.9090   -0.6590 C.ar      1 BW8         0.0915
      2 C16         7.3260    3.2930   -0.8150 C.ar      1 BW8        -0.0069
      3 C19         7.7410   -1.4720    0.2910 C.2       1 BW8         0.3116
      4 C24         8.3680   -6.2780    2.2820 C.ar      1 BW8         0.0354
      5 C23         7.0120   -6.0410    2.1420 C.ar      1 BW8        -0.0644
      6 C25         9.2880   -5.2970    1.9550 C.ar      1 BW8         0.1309
      7 C26         8.8430   -4.0710    1.4910 C.ar      1 BW8        -0.0137
      8 C01        14.6310    8.6230   -4.1950 C.3       1 BW8         0.0193
      9 C03        12.7100    7.2160   -3.4390 C.2       1 BW8         0.2205
     10 C04        11.9800    6.3790   -2.3920 C.ar      1 BW8         0.1117
     11 C05        10.7540    5.8370   -2.7300 C.ar      1 BW8         0.0183
     12 C06        10.0490    5.0590   -1.8310 C.ar      1 BW8         0.1379
     13 C07        10.6190    4.8730   -0.5810 C.ar      1 BW8         0.0024
     14 C08        11.8520    5.4450   -0.3000 C.ar      1 BW8         0.0057
     15 C11         8.4010    3.3160   -1.6870 C.ar      1 BW8         0.1030
     16 C12         9.0150    2.1280   -2.0640 C.ar      1 BW8        -0.0445
     17 C13         8.5710    0.9200   -1.5450 C.ar      1 BW8        -0.0493
     18 C15         6.8850    2.0870   -0.2960 C.ar      1 BW8         0.1452
     19 C21         7.4860   -3.8340    1.3420 C.ar      1 BW8         0.0585
     20 C22         6.5720   -4.8170    1.6790 C.ar      1 BW8        -0.0509
     21 C29         9.8410   -8.7000    1.5430 C.3       1 BW8         0.0567
     22 C30         9.0350   -8.5790    0.2490 C.2       1 BW8         0.0465
     23 F17         5.8340    2.0410    0.5780 F         1 BW8        -0.1960
     24 F27        10.6280   -5.5290    2.0900 F         1 BW8        -0.1920
     25 N02        13.9890    7.8390   -3.1540 N.am      1 BW8        -0.2874
     26 N09        12.4990    6.1750   -1.1940 N.ar      1 BW8        -0.2925
     27 N18         6.9690   -0.3010   -0.0680 N.am      1 BW8        -0.2196
     28 N20         6.9710   -2.5580    0.8750 N.am      1 BW8        -0.2196
     29 O10         8.8030    4.5470   -2.2190 O.3       1 BW8        -0.2573
     30 O31         9.5440   -8.0270   -0.7630 O.co2     1 BW8        -0.5680
     31 O32         7.8610   -9.0290    0.1910 O.co2     1 BW8        -0.5680
     32 O33         8.9110   -1.5260    0.1090 O.2       1 BW8        -0.3825
     33 O34        12.2180    7.3550   -4.5060 O.2       1 BW8        -0.3791
     34 S28         8.9260   -7.8960    2.8910 S.3       1 BW8        -0.0983
     35 H1          6.8305    4.2168   -0.5390 H         1 BW8         0.0505
     36 H2          6.2965   -6.8149    2.3954 H         1 BW8         0.0518
     37 H3          9.5579   -3.2946    1.2437 H         1 BW8         0.0470
     38 H4         15.5843    9.0220   -3.8182 H         1 BW8         0.0484
     39 H5         13.9738    9.4562   -4.4846 H         1 BW8         0.0484
     40 H6         14.8211    7.9845   -5.0703 H         1 BW8         0.0484
     41 H7         10.3397    6.0248   -3.7140 H         1 BW8         0.0696
     42 H8         10.1055    4.2852    0.1713 H         1 BW8         0.0673
     43 H9         12.2962    5.2898    0.6766 H         1 BW8         0.0803
     44 H10         9.8421    2.1448   -2.7646 H         1 BW8         0.0486
     45 H11         9.0545   -0.0076   -1.8294 H         1 BW8         0.0467
     46 H12         5.5097   -4.6258    1.5794 H         1 BW8         0.0453
     47 H13        10.8171   -8.2088    1.4163 H         1 BW8         0.0565
     48 H14         9.9936   -9.7624    1.7839 H         1 BW8         0.0565
     49 H15        14.4203    7.7308   -2.2583 H         1 BW8         0.1844
     50 H16         5.9848   -0.3299    0.1066 H         1 BW8         0.2218
     51 H17         5.9858   -2.4119    0.9645 H         1 BW8         0.2237
@<TRIPOS>BOND
     1    1   17 ar 
     2    1   18 ar 
     3   27    1 1  
     4    2   15 ar 
     5   18    2 ar 
     6    3   27 am 
     7   28    3 am 
     8    3   32 2  
     9    4    5 ar 
    10    4    6 ar 
    11   34    4 1  
    12    5   20 ar 
    13    6    7 ar 
    14    6   24 1  
    15    7   19 ar 
    16   25    8 1  
    17   10    9 1  
    18    9   25 am 
    19    9   33 2  
    20   11   10 ar 
    21   10   26 ar 
    22   12   11 ar 
    23   12   13 ar 
    24   29   12 1  
    25   13   14 ar 
    26   14   26 ar 
    27   16   15 ar 
    28   15   29 1  
    29   17   16 ar 
    30   18   23 1  
    31   20   19 ar 
    32   19   28 1  
    33   21   22 1  
    34   21   34 1  
    35   22   30 ar 
    36   22   31 ar 
    37    2   35 1  
    38    5   36 1  
    39    7   37 1  
    40    8   38 1  
    41    8   39 1  
    42    8   40 1  
    43   11   41 1  
    44   13   42 1  
    45   14   43 1  
    46   16   44 1  
    47   17   45 1  
    48   20   46 1  
    49   21   47 1  
    50   21   48 1  
    51   25   49 1  
    52   27   50 1  
    53   28   51 1  
@<TRIPOS>SUBSTRUCTURE
     1 BW8         1

