### 
### Created by X-TOOL on Mon Sep 10 21:13:34 2018
### 

@<TRIPOS>MOLECULE
6esj_ligand
   66    69     1     0     0
SMALL
GAST_HUCK


@<TRIPOS>ATOM
      1 C16         2.9440  -13.9530  -15.2120 C.ar      1 PRM        -0.0760
      2 C17         2.8410  -12.4890  -15.1120 C.ar      1 PRM        -0.0361
      3 C18         3.5550  -11.8110  -14.0890 C.ar      1 PRM        -0.0145
      4 C19         4.3680  -12.6080  -13.1740 C.ar      1 PRM        -0.0409
      5 C20         4.4500  -14.0410  -13.2940 C.ar      1 PRM         0.0271
      6 C21         3.7360  -14.7020  -14.3140 C.ar      1 PRM        -0.0530
      7 C22         3.3360  -10.3370  -14.1370 C.3       1 PRM         0.1019
      8 N23         2.5770   -9.6300  -14.9980 N.pl3     1 PRM        -0.2860
      9 C24         1.8680  -10.3330  -16.0170 C.ar      1 PRM         0.0395
     10 C25         1.9930  -11.7390  -16.0800 C.ar      1 PRM        -0.0206
     11 C26         1.0440   -9.6340  -16.9640 C.ar      1 PRM        -0.0279
     12 C27         0.3520  -10.3330  -17.9620 C.ar      1 PRM         0.0225
     13 C28         0.4650  -11.7270  -18.0380 C.ar      1 PRM        -0.0582
     14 C29         1.2750  -12.4280  -17.1110 C.ar      1 PRM        -0.0789
     15 C30         4.1540   -9.8450  -13.0050 C.ar      1 PRM        -0.0075
     16 C31         5.4850   -9.4470  -13.1930 C.ar      1 PRM        -0.0562
     17 C32         6.2440   -8.9700  -12.0930 C.ar      1 PRM        -0.0681
     18 C33         5.6640   -8.8860  -10.8340 C.ar      1 PRM        -0.0685
     19 C34         4.3270   -9.2740  -10.6460 C.ar      1 PRM        -0.0681
     20 C35         3.5750   -9.7450  -11.7320 C.ar      1 PRM        -0.0562
     21 N36         5.2530  -14.7910  -12.3830 N.pl3     1 PRM        -0.3390
     22 N37        -0.4590   -9.6270  -18.8910 N.pl3     1 PRM        -0.3397
     23 C41         2.5130   -8.1190  -14.8400 C.3       1 PRM         0.0363
     24 C42         1.3850   -7.5530  -13.9670 C.3       1 PRM         0.0077
     25 C43         1.3150   -6.0430  -13.8280 C.3       1 PRM        -0.0285
     26 N44         1.4230   -5.3820  -12.4690 N.4       1 PRM         0.2408
     27 C44         2.8210   -5.6460  -12.0110 C.3       1 PRM        -0.0332
     28 C45         4.0850   -5.3130  -12.9200 C.3       1 PRM        -0.0244
     29 C46         0.4900   -6.0080  -11.5650 C.3       1 PRM        -0.0413
     30 C47         1.2220   -3.9060  -12.6410 C.3       1 PRM        -0.0332
     31 C48        -0.1190   -3.2940  -12.7070 C.3       1 PRM        -0.0244
     32 H1          2.3989  -14.4694  -15.9938 H         1 PRM         0.0544
     33 H2          4.9222  -12.1098  -12.3868 H         1 PRM         0.0452
     34 H3          3.7946  -15.7803  -14.4087 H         1 PRM         0.0460
     35 H4          4.1659  -10.1982  -14.8455 H         1 PRM         0.0872
     36 H5          0.9568   -8.5551  -16.9058 H         1 PRM         0.0403
     37 H6         -0.0690  -12.2712  -18.8086 H         1 PRM         0.0412
     38 H7          1.3532  -13.5068  -17.1830 H         1 PRM         0.0537
     39 H8          5.9341   -9.5036  -14.1780 H         1 PRM         0.0561
     40 H9          7.2763   -8.6713  -12.2354 H         1 PRM         0.0600
     41 H10         6.2442   -8.5203   -9.9945 H         1 PRM         0.0561
     42 H11         3.8768   -9.2094   -9.6620 H         1 PRM         0.0600
     43 H12         2.5403  -10.0334  -11.5864 H         1 PRM         0.0561
     44 H13         5.7745  -14.3076  -11.6379 H         1 PRM         0.1716
     45 H14         5.3109  -15.8156  -12.4707 H         1 PRM         0.1716
     46 H15        -0.5384   -8.6019  -18.8304 H         1 PRM         0.1719
     47 H16        -0.9675  -10.1404  -19.6250 H         1 PRM         0.1719
     48 H17         2.4031   -7.6854  -15.8449 H         1 PRM         0.0521
     49 H18         3.4671   -7.7913  -14.4015 H         1 PRM         0.0521
     50 H19         1.5028   -7.9743  -12.9577 H         1 PRM         0.0336
     51 H20         0.4307   -7.8916  -14.3967 H         1 PRM         0.0336
     52 H21         0.3478   -5.7338  -14.2509 H         1 PRM         0.0816
     53 H22         2.1312   -5.6336  -14.4414 H         1 PRM         0.0816
     54 H23         2.8748   -6.7226  -11.7918 H         1 PRM         0.0812
     55 H24         2.9527   -5.0752  -11.0800 H         1 PRM         0.0812
     56 H25         5.0051   -5.5883  -12.3836 H         1 PRM         0.0281
     57 H26         4.1006   -4.2366  -13.1463 H         1 PRM         0.0281
     58 H27         4.0227   -5.8840  -13.8581 H         1 PRM         0.0281
     59 H28        -0.5376   -5.8118  -11.9049 H         1 PRM         0.0778
     60 H29         0.6267   -5.5965  -10.5541 H         1 PRM         0.0778
     61 H30         0.6692   -7.0931  -11.5465 H         1 PRM         0.0778
     62 H31         1.7285   -3.6353  -13.5791 H         1 PRM         0.0812
     63 H32         1.7361   -3.4264  -11.7950 H         1 PRM         0.0812
     64 H33        -0.0196   -2.2060  -12.8348 H         1 PRM         0.0281
     65 H34        -0.6648   -3.5054  -11.7756 H         1 PRM         0.0281
     66 H35        -0.6723   -3.7143  -13.5597 H         1 PRM         0.0281
@<TRIPOS>BOND
     1    1    2 ar 
     2    1    6 ar 
     3    2    3 ar 
     4    2   10 1  
     5    3    4 ar 
     6    3    7 1  
     7    4    5 ar 
     8    5    6 ar 
     9    5   21 1  
    10    7    8 1  
    11    7   15 1  
    12    8    9 1  
    13    8   23 1  
    14    9   10 ar 
    15    9   11 ar 
    16   10   14 ar 
    17   11   12 ar 
    18   12   13 ar 
    19   12   22 1  
    20   13   14 ar 
    21   15   16 ar 
    22   15   20 ar 
    23   16   17 ar 
    24   17   18 ar 
    25   18   19 ar 
    26   19   20 ar 
    27   23   24 1  
    28   24   25 1  
    29   25   26 1  
    30   26   27 1  
    31   26   29 1  
    32   26   30 1  
    33   27   28 1  
    34   30   31 1  
    35    1   32 1  
    36    4   33 1  
    37    6   34 1  
    38    7   35 1  
    39   11   36 1  
    40   13   37 1  
    41   14   38 1  
    42   16   39 1  
    43   17   40 1  
    44   18   41 1  
    45   19   42 1  
    46   20   43 1  
    47   21   44 1  
    48   21   45 1  
    49   22   46 1  
    50   22   47 1  
    51   23   48 1  
    52   23   49 1  
    53   24   50 1  
    54   24   51 1  
    55   25   52 1  
    56   25   53 1  
    57   27   54 1  
    58   27   55 1  
    59   28   56 1  
    60   28   57 1  
    61   28   58 1  
    62   29   59 1  
    63   29   60 1  
    64   29   61 1  
    65   30   62 1  
    66   30   63 1  
    67   31   64 1  
    68   31   65 1  
    69   31   66 1  
@<TRIPOS>SUBSTRUCTURE
     1 PRM         1

