### 
### Created by X-TOOL on Wed Jan  1 15:39:35 2020
### 

@<TRIPOS>MOLECULE
6esm_ligand
   50    52     1     0     0
SMALL
GAST_HUCK


@<TRIPOS>ATOM
      1 C4          2.6430   46.2560   25.1390 C.ar      1 B9Z         0.0916
      2 C5          3.4620   45.8650   24.0870 C.ar      1 B9Z        -0.0322
      3 C6          3.5110   46.6330   22.9340 C.ar      1 B9Z        -0.0632
      4 C8          2.3540   49.9650   21.5450 C.ar      1 B9Z        -0.0616
      5 C10         2.8960   50.1420   19.2180 C.ar      1 B9Z         0.0282
      6 C20         1.7620   54.9740   17.7860 C.ar      1 B9Z        -0.0637
      7 C21         1.7820   53.6110   17.5100 C.ar      1 B9Z        -0.0123
      8 C22         0.6330   52.9930   16.7020 C.3       1 B9Z         0.0451
      9 C1          2.7600   47.8030   22.8200 C.ar      1 B9Z        -0.0320
     10 C12         3.2990   48.0900   20.3910 C.ar      1 B9Z        -0.0616
     11 C19         2.7870   55.5690   18.5080 C.ar      1 B9Z        -0.0749
     12 C23        -0.1610   52.0180   17.5560 C.2       1 B9Z         0.0484
     13 C3          1.8920   47.4180   25.0160 C.ar      1 B9Z        -0.0322
     14 C2          1.9420   48.1840   23.8730 C.ar      1 B9Z        -0.0632
     15 C11         3.3410   48.8310   19.2300 C.ar      1 B9Z        -0.0481
     16 C15         3.3140   44.3520   26.3880 C.3       1 B9Z         0.0597
     17 C16         2.8460   52.8510   17.9690 C.ar      1 B9Z         0.0338
     18 C17         3.8700   53.4450   18.6890 C.ar      1 B9Z        -0.0538
     19 C18         3.8460   54.8050   18.9590 C.ar      1 B9Z        -0.0741
     20 C26        -0.3690   54.0590   16.2510 C.3       1 B9Z        -0.0184
     21 C27        -0.1980   54.5460   14.8130 C.3       1 B9Z         0.0036
     22 C28        -1.2230   55.6110   14.4360 C.2       1 B9Z         0.0351
     23 C7          2.8040   48.6500   21.5570 C.ar      1 B9Z        -0.0307
     24 C9          2.3980   50.7170   20.3840 C.ar      1 B9Z        -0.0481
     25 O14         2.5470   45.5250   26.3270 O.3       1 B9Z        -0.3206
     26 O24        -0.5320   50.9290   17.0570 O.co2     1 B9Z        -0.5663
     27 O25        -0.4400   52.3260   18.7440 O.co2     1 B9Z        -0.5663
     28 O29        -1.0090   56.3700   13.4540 O.co2     1 B9Z        -0.5690
     29 O30        -2.2830   55.7210   15.1080 O.co2     1 B9Z        -0.5690
     30 S13         2.9660   51.0590   17.6550 S.3       1 B9Z        -0.0479
     31 H1          4.0595   44.9641   24.1674 H         1 B9Z         0.0545
     32 H2          4.1416   46.3201   22.1097 H         1 B9Z         0.0592
     33 H3          1.9643   50.4065   22.4551 H         1 B9Z         0.0595
     34 H4          0.9351   55.5794   17.4326 H         1 B9Z         0.0541
     35 H5          1.0501   52.4752   15.8257 H         1 B9Z         0.0611
     36 H6          3.6544   47.0659   20.3917 H         1 B9Z         0.0595
     37 H7          2.7567   56.6321   18.7179 H         1 B9Z         0.0544
     38 H8          1.2541   47.7278   25.8359 H         1 B9Z         0.0545
     39 H9          1.3426   49.0839   23.7963 H         1 B9Z         0.0592
     40 H10         3.7250   48.3845   18.3199 H         1 B9Z         0.0568
     41 H11         3.1602   43.8636   27.3615 H         1 B9Z         0.0578
     42 H12         4.3782   44.6031   26.2679 H         1 B9Z         0.0578
     43 H13         3.0051   43.6696   25.5825 H         1 B9Z         0.0578
     44 H14         4.6972   52.8413   19.0444 H         1 B9Z         0.0550
     45 H15         4.6518   55.2650   19.5195 H         1 B9Z         0.0544
     46 H16        -0.2659   54.9271   16.9187 H         1 B9Z         0.0323
     47 H17        -1.3806   53.6385   16.3497 H         1 B9Z         0.0323
     48 H18        -0.3125   53.6887   14.1333 H         1 B9Z         0.0433
     49 H19         0.8105   54.9706   14.7010 H         1 B9Z         0.0433
     50 H20         2.0483   51.7431   20.3825 H         1 B9Z         0.0568
@<TRIPOS>BOND
     1    2    1 ar 
     2   13    1 ar 
     3    1   25 1  
     4    3    2 ar 
     5    9    3 ar 
     6    4   23 ar 
     7   24    4 ar 
     8    5   15 ar 
     9    5   24 ar 
    10   30    5 1  
    11    7    6 ar 
    12    6   11 ar 
    13    7    8 1  
    14   17    7 ar 
    15    8   12 1  
    16    8   20 1  
    17    9   14 ar 
    18   23    9 1  
    19   15   10 ar 
    20   10   23 ar 
    21   11   19 ar 
    22   12   26 ar 
    23   12   27 ar 
    24   14   13 ar 
    25   25   16 1  
    26   17   18 ar 
    27   17   30 1  
    28   18   19 ar 
    29   20   21 1  
    30   21   22 1  
    31   22   28 ar 
    32   22   29 ar 
    33    2   31 1  
    34    3   32 1  
    35    4   33 1  
    36    6   34 1  
    37    8   35 1  
    38   10   36 1  
    39   11   37 1  
    40   13   38 1  
    41   14   39 1  
    42   15   40 1  
    43   16   41 1  
    44   16   42 1  
    45   16   43 1  
    46   18   44 1  
    47   19   45 1  
    48   20   46 1  
    49   20   47 1  
    50   21   48 1  
    51   21   49 1  
    52   24   50 1  
@<TRIPOS>SUBSTRUCTURE
     1 B9Z         1

