### 
### Created by X-TOOL on Wed Jan  1 15:39:38 2020
### 

@<TRIPOS>MOLECULE
6esn_ligand
   57    59     1     0     0
SMALL
GAST_HUCK


@<TRIPOS>ATOM
      1 C1        -24.1210   -0.7380  -16.7300 C.3       1 BWE        -0.0454
      2 C2        -23.9970   -2.1830  -16.2730 C.3       1 BWE         0.0672
      3 O4        -26.4380   -2.8070  -17.0550 O.2       1 BWE        -0.1702
      4 O5        -25.3180   -4.1480  -15.2330 O.2       1 BWE        -0.1702
      5 C7        -25.6770   -1.6880  -13.4370 C.ar      1 BWE        -0.0432
      6 C8        -26.2190   -0.8320  -12.5070 C.ar      1 BWE        -0.0539
      7 C9        -27.3350   -0.0730  -12.8240 C.ar      1 BWE         0.0017
      8 C10       -27.9060   -0.1800  -14.0800 C.ar      1 BWE        -0.0539
      9 C11       -27.3870   -1.0480  -15.0150 C.ar      1 BWE        -0.0432
     10 C12       -27.9080    0.9270  -11.8650 C.3       1 BWE         0.1713
     11 C14       -28.1140    1.5130   -9.4540 C.2       1 BWE         0.1769
     12 C16       -27.8210    0.9880   -8.0690 C.3       1 BWE         0.0259
     13 C20       -28.0090    4.1800  -13.6290 C.2       1 BWE         0.1244
     14 C21       -28.6790    4.7070  -14.7010 C.2       1 BWE        -0.0600
     15 C22       -28.1700    5.9610  -15.1470 C.2       1 BWE        -0.0618
     16 C27       -29.7580    6.6310  -18.4260 C.ar      1 BWE         0.0803
     17 C31       -28.5230    8.1050  -16.4250 C.ar      1 BWE         0.1403
     18 C33       -28.5380    9.9210  -14.8750 C.3       1 BWE         0.0614
     19 C34       -30.3320    5.8400  -19.4470 C.1       1 BWE         0.0877
     20 S3        -25.5830   -2.8930  -15.8900 S.o2      1 BWE        -0.0061
     21 C6        -26.2710   -1.7840  -14.6820 C.ar      1 BWE         0.0815
     22 N13       -27.5950    0.7090  -10.4540 N.am      1 BWE        -0.2548
     23 O15       -28.7190    2.5650   -9.6320 O.2       1 BWE        -0.3971
     24 C17       -27.3770    2.3040  -12.2180 C.2       1 BWE         0.2463
     25 O18       -26.3050    2.7410  -11.8320 O.2       1 BWE        -0.3769
     26 N19       -28.2860    2.9900  -12.9760 N.am      1 BWE        -0.2152
     27 C23       -27.1270    6.3720  -14.3400 C.2       1 BWE        -0.0226
     28 S24       -26.7630    5.2410  -13.1020 S.3       1 BWE        -0.0241
     29 C25       -28.6470    6.7250  -16.2840 C.ar      1 BWE         0.0030
     30 C26       -29.2770    6.0140  -17.2890 C.ar      1 BWE        -0.0355
     31 C28       -29.6380    7.9940  -18.5680 C.ar      1 BWE        -0.0039
     32 C29       -29.0070    8.7130  -17.5740 C.ar      1 BWE         0.1699
     33 F30       -28.8960   10.0320  -17.7300 F         1 BWE        -0.1884
     34 O32       -27.8220    8.8470  -15.4720 O.3       1 BWE        -0.3134
     35 N35       -30.7600    5.1580  -20.2830 N.1       1 BWE        -0.3369
     36 H1        -23.1216   -0.3379  -16.9560 H         1 BWE         0.0245
     37 H2        -24.5837   -0.1393  -15.9316 H         1 BWE         0.0245
     38 H3        -24.7474   -0.6915  -17.6330 H         1 BWE         0.0245
     39 H4        -23.3642   -2.2191  -15.3739 H         1 BWE         0.0500
     40 H5        -23.5279   -2.7713  -17.0754 H         1 BWE         0.0500
     41 H6        -24.7991   -2.2774  -13.1981 H         1 BWE         0.0619
     42 H7        -25.7721   -0.7505  -11.5228 H         1 BWE         0.0562
     43 H8        -28.7699    0.4250  -14.3303 H         1 BWE         0.0562
     44 H9        -27.8465   -1.1498  -15.9915 H         1 BWE         0.0619
     45 H10       -29.0019    0.9128  -11.9798 H         1 BWE         0.0967
     46 H11       -28.2565    1.6660   -7.3202 H         1 BWE         0.0467
     47 H12       -26.7325    0.9296   -7.9216 H         1 BWE         0.0467
     48 H13       -28.2606   -0.0140   -7.9561 H         1 BWE         0.0467
     49 H14       -29.5267    4.2110  -15.1714 H         1 BWE         0.0148
     50 H15       -27.8922   10.4315  -14.1454 H         1 BWE         0.0582
     51 H16       -29.4294    9.5282  -14.3639 H         1 BWE         0.0582
     52 H17       -28.8462   10.6340  -15.6538 H         1 BWE         0.0582
     53 H18       -26.9870   -0.0444  -10.2034 H         1 BWE         0.1908
     54 H19       -29.2065    2.6093  -13.0641 H         1 BWE         0.2336
     55 H20       -26.5936    7.3118  -14.4748 H         1 BWE         0.0492
     56 H21       -29.3964    4.9420  -17.1807 H         1 BWE         0.0638
     57 H22       -30.0322    8.4941  -19.4452 H         1 BWE         0.0655
@<TRIPOS>BOND
     1    2    1 1  
     2   20    2 1  
     3   20    3 2  
     4   20    4 2  
     5    6    5 ar 
     6    5   21 ar 
     7    7    6 ar 
     8    7    8 ar 
     9   10    7 1  
    10    8    9 ar 
    11    9   21 ar 
    12   10   22 1  
    13   24   10 1  
    14   11   12 1  
    15   22   11 am 
    16   11   23 2  
    17   14   13 2  
    18   13   26 1  
    19   28   13 1  
    20   15   14 1  
    21   15   27 2  
    22   29   15 1  
    23   16   19 1  
    24   30   16 ar 
    25   16   31 ar 
    26   29   17 ar 
    27   17   32 ar 
    28   17   34 1  
    29   34   18 1  
    30   19   35 3  
    31   21   20 1  
    32   24   25 2  
    33   26   24 am 
    34   27   28 1  
    35   29   30 ar 
    36   31   32 ar 
    37   32   33 1  
    38    1   36 1  
    39    1   37 1  
    40    1   38 1  
    41    2   39 1  
    42    2   40 1  
    43    5   41 1  
    44    6   42 1  
    45    8   43 1  
    46    9   44 1  
    47   10   45 1  
    48   12   46 1  
    49   12   47 1  
    50   12   48 1  
    51   14   49 1  
    52   18   50 1  
    53   18   51 1  
    54   18   52 1  
    55   22   53 1  
    56   26   54 1  
    57   27   55 1  
    58   30   56 1  
    59   31   57 1  
@<TRIPOS>SUBSTRUCTURE
     1 BWE         1

