### 
### Created by X-TOOL on Wed Jan  1 15:39:35 2020
### 

@<TRIPOS>MOLECULE
6et8_ligand
   99   103     1     0     0
SMALL
GAST_HUCK


@<TRIPOS>ATOM
      1 N          24.5790   63.4260   59.4900 N.am      1 BWH        -0.2307
      2 C          23.7170   61.0860   59.0950 C.3       1 BWH        -0.0231
      3 O          24.3080   55.4480   55.8350 O.3       1 BWH        -0.3320
      4 C1         25.1110   61.3440   58.6290 C.2       1 BWH         0.0312
      5 C10        24.6440   64.7070   60.0660 C.ar      1 BWH         0.0713
      6 C11        25.8010   65.4270   60.3370 C.ar      1 BWH        -0.0350
      7 C12        25.7150   66.6980   60.8790 C.ar      1 BWH        -0.0554
      8 C13        24.4750   67.2700   61.1560 C.ar      1 BWH         0.0339
      9 C14        23.3260   66.5520   60.8490 C.ar      1 BWH        -0.0554
     10 C15        23.4070   65.2840   60.3180 C.ar      1 BWH        -0.0350
     11 C16        24.3070   68.5830   61.8400 C.2       1 BWH         0.1957
     12 C17        25.2550   70.8320   62.1780 C.3       1 BWH         0.1599
     13 C18        23.9660   71.6020   61.7920 C.3       1 BWH         0.1132
     14 C19        23.0470   72.0090   62.8670 C.1       1 BWH         0.0945
     15 C2         25.8250   60.4470   57.9480 C.2       1 BWH        -0.0502
     16 C20        25.5280   70.7800   63.6860 C.2       1 BWH         0.2331
     17 C21        24.5270   71.5360   65.7810 C.ar      1 BWH         0.0719
     18 C22        24.3340   72.7640   66.3820 C.ar      1 BWH        -0.0350
     19 C23        24.3300   72.8650   67.7590 C.ar      1 BWH        -0.0550
     20 C24        24.5880   71.7410   68.5390 C.ar      1 BWH         0.0397
     21 C25        24.6380   70.4940   67.9290 C.ar      1 BWH        -0.0550
     22 C26        24.6350   70.3910   66.5550 C.ar      1 BWH        -0.0350
     23 C27        24.8800   71.8650   69.9860 C.2       1 BWH         0.2195
     24 C28        24.0180   72.8720   72.0720 C.ar      1 BWH         0.0928
     25 C29        22.9230   73.5780   72.5870 C.ar      1 BWH         0.1450
     26 C3         25.3390   59.1290   57.5050 C.ar      1 BWH        -0.0384
     27 C30        22.8430   73.8160   73.9520 C.ar      1 BWH         0.1252
     28 C31        23.8650   73.3630   74.8240 C.ar      1 BWH         0.0605
     29 C32        24.9550   72.6760   74.2880 C.ar      1 BWH        -0.0728
     30 C33        25.0310   72.4350   72.9260 C.ar      1 BWH        -0.0529
     31 C34        23.8910   73.6020   76.2980 C.2       1 BWH         0.2115
     32 C35        22.6450   74.6660   78.1530 C.ar      1 BWH         0.0902
     33 C36        21.4760   75.3740   78.4490 C.ar      1 BWH         0.1427
     34 C37        21.2100   75.7440   79.7610 C.ar      1 BWH         0.1184
     35 C38        22.1070   75.4040   80.7960 C.ar      1 BWH         0.0154
     36 C39        23.2650   74.7010   80.4810 C.ar      1 BWH        -0.0794
     37 C4         26.1750   58.0260   57.6240 C.ar      1 BWH        -0.0636
     38 C40        23.5340   74.3430   79.1730 C.ar      1 BWH        -0.0555
     39 C41        21.8240   75.8000   82.2140 C.2       1 BWH         0.0462
     40 C42        19.6040   74.6720   77.1870 C.3       1 BWH         0.0533
     41 C43        22.0430   75.3860   71.3260 C.3       1 BWH         0.0533
     42 C5         25.8270   56.7990   57.0900 C.ar      1 BWH        -0.0321
     43 C6         24.6210   56.6490   56.4240 C.ar      1 BWH         0.0891
     44 C7         23.7540   57.7250   56.3240 C.ar      1 BWH        -0.0321
     45 C8         24.1080   58.9480   56.8670 C.ar      1 BWH        -0.0636
     46 C9         25.5520   62.7030   58.9550 C.2       1 BWH         0.2302
     47 N1         25.2690   69.4950   61.6140 N.am      1 BWH        -0.2648
     48 N2         22.3750   72.3190   63.7560 N.1       1 BWH        -0.3033
     49 N3         24.6650   71.4800   64.3930 N.am      1 BWH        -0.2286
     50 N4         24.0200   72.6500   70.6800 N.am      1 BWH        -0.2376
     51 N5         22.8460   74.2940   76.7980 N.am      1 BWH        -0.2407
     52 O1         26.6920   63.1150   58.7150 O.2       1 BWH        -0.3747
     53 O10        21.7590   74.4720   74.4300 O.3       1 BWH        -0.3361
     54 O11        21.9530   74.0000   71.6960 O.3       1 BWH        -0.3315
     55 O2         23.3160   68.8130   62.5380 O.2       1 BWH        -0.3919
     56 O3         26.4460   70.1340   64.1770 O.2       1 BWH        -0.3812
     57 O4         25.8560   71.3030   70.4740 O.2       1 BWH        -0.3811
     58 O5         24.8290   73.2000   76.9770 O.2       1 BWH        -0.3872
     59 O6         22.6170   75.5350   83.1040 O.co2     1 BWH        -0.5683
     60 O7         20.7100   76.4410   82.4110 O.co2     1 BWH        -0.5683
     61 O8         20.0860   76.4580   79.9840 O.3       1 BWH        -0.3380
     62 O9         20.6000   75.6690   77.4230 O.3       1 BWH        -0.3319
     63 H1         23.6733   63.0020   59.4832 H         1 BWH         0.2273
     64 H2         23.4265   60.0584   58.8312 H         1 BWH         0.0401
     65 H3         23.0311   61.7967   58.6108 H         1 BWH         0.0401
     66 H4         23.6659   61.2127   60.1865 H         1 BWH         0.0401
     67 H5         23.4539   55.5112   55.4240 H         1 BWH         0.2491
     68 H6         26.7714   64.9934   60.1240 H         1 BWH         0.0518
     69 H7         26.6214   67.2538   61.0900 H         1 BWH         0.0630
     70 H8         22.3535   66.9955   61.0297 H         1 BWH         0.0630
     71 H9         22.5000   64.7336   60.0957 H         1 BWH         0.0518
     72 H10        26.0927   71.3830   61.7256 H         1 BWH         0.0827
     73 H11        23.3972   70.9600   61.1033 H         1 BWH         0.0605
     74 H12        24.2782   72.5168   61.2670 H         1 BWH         0.0605
     75 H13        26.8518   60.7106   57.6989 H         1 BWH         0.0552
     76 H14        24.1857   73.6484   65.7730 H         1 BWH         0.0517
     77 H15        24.1262   73.8186   68.2324 H         1 BWH         0.0629
     78 H16        24.6796   69.5975   68.5370 H         1 BWH         0.0629
     79 H17        24.7167   69.4193   66.0815 H         1 BWH         0.0517
     80 H18        25.7471   72.3288   74.9415 H         1 BWH         0.0516
     81 H19        25.8840   71.9029   72.5207 H         1 BWH         0.0405
     82 H20        23.9616   74.4318   81.2667 H         1 BWH         0.0497
     83 H21        27.1194   58.1293   58.1461 H         1 BWH         0.0590
     84 H22        24.4462   73.8056   78.9401 H         1 BWH         0.0397
     85 H23        18.9556   74.9906   76.3575 H         1 BWH         0.0566
     86 H24        18.9980   74.5369   78.0950 H         1 BWH         0.0566
     87 H25        20.0916   73.7210   76.9267 H         1 BWH         0.0566
     88 H26        21.2363   75.6299   70.6190 H         1 BWH         0.0566
     89 H27        23.0167   75.5763   70.8510 H         1 BWH         0.0566
     90 H28        21.9447   76.0126   72.2247 H         1 BWH         0.0566
     91 H29        26.4980   55.9538   57.1924 H         1 BWH         0.0548
     92 H30        22.8004   57.6093   55.8216 H         1 BWH         0.0548
     93 H31        23.4180   59.7811   56.7963 H         1 BWH         0.0590
     94 H32        26.0355   69.2380   61.0254 H         1 BWH         0.1872
     95 H33        24.0269   72.0435   63.8683 H         1 BWH         0.2282
     96 H34        23.3143   73.1200   70.1499 H         1 BWH         0.2232
     97 H35        22.1405   74.5736   76.1468 H         1 BWH         0.2218
     98 H36        21.1836   74.6982   73.7087 H         1 BWH         0.2460
     99 H37        19.6218   76.5801   79.1641 H         1 BWH         0.2450
@<TRIPOS>BOND
     1    1    5 1  
     2   46    1 am 
     3    4    2 1  
     4   43    3 1  
     5   15    4 2  
     6    4   46 1  
     7    5    6 ar 
     8    5   10 ar 
     9    6    7 ar 
    10    7    8 ar 
    11    9    8 ar 
    12    8   11 1  
    13   10    9 ar 
    14   11   47 am 
    15   11   55 2  
    16   12   13 1  
    17   12   16 1  
    18   47   12 1  
    19   13   14 1  
    20   14   48 3  
    21   26   15 1  
    22   16   49 am 
    23   16   56 2  
    24   17   18 ar 
    25   17   22 ar 
    26   49   17 1  
    27   18   19 ar 
    28   19   20 ar 
    29   21   20 ar 
    30   20   23 1  
    31   22   21 ar 
    32   23   50 am 
    33   23   57 2  
    34   24   25 ar 
    35   24   30 ar 
    36   50   24 1  
    37   25   27 ar 
    38   25   54 1  
    39   37   26 ar 
    40   26   45 ar 
    41   27   28 ar 
    42   27   53 1  
    43   29   28 ar 
    44   28   31 1  
    45   30   29 ar 
    46   31   51 am 
    47   31   58 2  
    48   32   33 ar 
    49   32   38 ar 
    50   51   32 1  
    51   33   34 ar 
    52   33   62 1  
    53   34   35 ar 
    54   34   61 1  
    55   36   35 ar 
    56   35   39 1  
    57   38   36 ar 
    58   42   37 ar 
    59   39   59 ar 
    60   39   60 ar 
    61   62   40 1  
    62   54   41 1  
    63   42   43 ar 
    64   43   44 ar 
    65   44   45 ar 
    66   46   52 2  
    67    1   63 1  
    68    2   64 1  
    69    2   65 1  
    70    2   66 1  
    71    3   67 1  
    72    6   68 1  
    73    7   69 1  
    74    9   70 1  
    75   10   71 1  
    76   12   72 1  
    77   13   73 1  
    78   13   74 1  
    79   15   75 1  
    80   18   76 1  
    81   19   77 1  
    82   21   78 1  
    83   22   79 1  
    84   29   80 1  
    85   30   81 1  
    86   36   82 1  
    87   37   83 1  
    88   38   84 1  
    89   40   85 1  
    90   40   86 1  
    91   40   87 1  
    92   41   88 1  
    93   41   89 1  
    94   41   90 1  
    95   42   91 1  
    96   44   92 1  
    97   45   93 1  
    98   47   94 1  
    99   49   95 1  
   100   50   96 1  
   101   51   97 1  
   102   53   98 1  
   103   61   99 1  
@<TRIPOS>SUBSTRUCTURE
     1 BWH         1

