### 
### Created by X-TOOL on Mon Aug  2 16:13:18 2021
### 

@<TRIPOS>MOLECULE
6etg_ligand
   24    25     1     0     0
SMALL
GAST_HUCK


@<TRIPOS>ATOM
      1 NAB        -3.4040  -15.0860  -18.0140 N.2       1 BWT        -0.1412
      2 NAA        -2.7030  -16.2180  -18.1890 N.pl3     1 BWT        -0.1026
      3 NAC        -1.4100  -15.8800  -18.2190 N.2       1 BWT        -0.0511
      4 NAE        -1.2940  -14.5110  -18.0870 N.2       1 BWT        -0.1742
      5 CAD        -2.5350  -14.0650  -17.8790 C.2       1 BWT         0.1518
      6 CAF        -2.9880  -12.8140  -17.7770 C.ar      1 BWT         0.0134
      7 CAK        -4.2080  -12.5340  -17.1870 C.ar      1 BWT        -0.0469
      8 CAI        -4.6910  -11.1940  -17.1990 C.ar      1 BWT        -0.0418
      9 CAJ        -2.3010  -11.7300  -18.3170 C.ar      1 BWT        -0.0469
     10 CAH        -2.8120  -10.4290  -18.3120 C.ar      1 BWT        -0.0418
     11 CAG        -4.0250  -10.1180  -17.7520 C.ar      1 BWT         0.0535
     12 CAL        -4.5500   -8.7880  -17.8130 C.2       1 BWT         0.2409
     13 OAM        -4.4440   -8.0610  -18.8210 O.2       1 BWT        -0.3805
     14 NAN        -5.2370   -8.3930  -16.7270 N.am      1 BWT        -0.2572
     15 NAO        -5.8400   -7.1600  -16.7300 N.4       1 BWT         0.3584
     16 H1         -3.0891  -17.1683  -18.2825 H         1 BWT         0.2951
     17 H2         -4.7879  -13.3232  -16.7223 H         1 BWT         0.0633
     18 H3         -5.6542  -11.0045  -16.7393 H         1 BWT         0.0667
     19 H4         -1.3272  -11.9026  -18.7607 H         1 BWT         0.0633
     20 H5         -2.2285   -9.6370  -18.7672 H         1 BWT         0.0667
     21 H6         -5.3077   -8.9896  -15.9276 H         1 BWT         0.2373
     22 H7         -6.3109   -7.0142  -15.8508 H         1 BWT         0.2246
     23 H8         -6.5103   -7.1156  -17.4815 H         1 BWT         0.2246
     24 H9         -5.1417   -6.4448  -16.8598 H         1 BWT         0.2246
@<TRIPOS>BOND
     1    1    2 1  
     2    1    5 2  
     3    2    3 1  
     4    3    4 2  
     5    4    5 1  
     6    5    6 1  
     7    6    7 ar 
     8    6    9 ar 
     9    7    8 ar 
    10    8   11 ar 
    11    9   10 ar 
    12   10   11 ar 
    13   11   12 1  
    14   12   13 2  
    15   12   14 am 
    16   14   15 1  
    17    2   16 1  
    18    7   17 1  
    19    8   18 1  
    20    9   19 1  
    21   10   20 1  
    22   14   21 1  
    23   15   22 1  
    24   15   23 1  
    25   15   24 1  
@<TRIPOS>SUBSTRUCTURE
     1 BWT         1

