### 
### Created by X-TOOL on Wed Jan  1 15:39:36 2020
### 

@<TRIPOS>MOLECULE
6etj_ligand
   41    43     1     0     0
SMALL
GAST_HUCK


@<TRIPOS>ATOM
      1 F          56.5780   42.0660    1.9600 F         1 BWW        -0.1926
      2 C13        56.9520   40.8250    2.2940 C.ar      1 BWW         0.1213
      3 C12        56.0390   40.0170    2.9460 C.ar      1 BWW        -0.0282
      4 C14        58.2340   40.3640    2.0000 C.ar      1 BWW        -0.0363
      5 C15        58.6470   39.0710    2.3490 C.ar      1 BWW        -0.0329
      6 C16        57.7730   38.1950    3.0050 C.ar      1 BWW         0.0943
      7 O4         58.1980   36.9160    3.3340 O.3       1 BWW        -0.3329
      8 C11        56.3980   38.7310    3.3220 C.ar      1 BWW         0.0109
      9 C7         55.3520   37.9320    3.9990 C.ar      1 BWW        -0.0206
     10 C6         54.2920   37.4880    3.1980 C.ar      1 BWW        -0.0298
     11 C8         55.3980   37.6420    5.3590 C.ar      1 BWW        -0.0568
     12 C9         54.3640   36.8870    5.9010 C.ar      1 BWW        -0.0612
     13 C10        53.3030   36.4360    5.0940 C.ar      1 BWW        -0.0362
     14 C5         53.2430   36.7280    3.7170 C.ar      1 BWW         0.1129
     15 S          52.0470   36.2290    2.7270 S.o2      1 BWW         0.0896
     16 O2         52.6480   35.5560    1.6060 O.2       1 BWW        -0.1445
     17 O3         51.1770   35.3390    3.4710 O.2       1 BWW        -0.1445
     18 N          51.1690   37.4630    2.1840 N.am      1 BWW        -0.1877
     19 C4         50.3360   38.2100    2.9490 C.ar      1 BWW         0.0572
     20 C3         49.2400   38.7710    2.2990 C.ar      1 BWW        -0.0521
     21 C2         48.3010   39.5900    2.9510 C.ar      1 BWW        -0.0710
     22 C17        50.5390   38.4710    4.3130 C.ar      1 BWW        -0.0144
     23 C18        49.6300   39.2970    5.0010 C.ar      1 BWW         0.0871
     24 O5         49.7370   39.6240    6.3160 O.3       1 BWW        -0.3340
     25 C1         48.4640   39.8720    4.3040 C.ar      1 BWW         0.0212
     26 C          47.5260   40.7560    5.0830 C.2       1 BWW         0.0473
     27 O1         47.6540   40.8920    6.2860 O.co2     1 BWW        -0.5687
     28 O          46.5820   41.4600    4.4720 O.co2     1 BWW        -0.5687
     29 H1         55.0439   40.3880    3.1631 H         1 BWW         0.0581
     30 H2         58.9283   41.0213    1.4891 H         1 BWW         0.0582
     31 H3         59.6528   38.7457    2.1088 H         1 BWW         0.0534
     32 H4         57.4935   36.4520    3.7708 H         1 BWW         0.2485
     33 H5         54.2864   37.7422    2.1442 H         1 BWW         0.0627
     34 H6         56.2156   37.9942    5.9775 H         1 BWW         0.0607
     35 H7         54.3752   36.6430    6.9571 H         1 BWW         0.0614
     36 H8         52.5109   35.8484    5.5438 H         1 BWW         0.0623
     37 H9         51.2430   37.6951    1.2141 H         1 BWW         0.2176
     38 H10        49.1044   38.5673    1.2430 H         1 BWW         0.0406
     39 H11        47.4581   39.9978    2.4048 H         1 BWW         0.0582
     40 H12        51.3878   38.0406    4.8319 H         1 BWW         0.0405
     41 H13        49.0137   40.1892    6.5605 H         1 BWW         0.2493
@<TRIPOS>BOND
     1    1    2 1  
     2    2    3 ar 
     3    2    4 ar 
     4    3    8 ar 
     5    4    5 ar 
     6    5    6 ar 
     7    6    7 1  
     8    6    8 ar 
     9    8    9 1  
    10    9   10 ar 
    11    9   11 ar 
    12   10   14 ar 
    13   11   12 ar 
    14   12   13 ar 
    15   13   14 ar 
    16   14   15 1  
    17   15   16 2  
    18   15   17 2  
    19   15   18 am 
    20   18   19 1  
    21   19   20 ar 
    22   19   22 ar 
    23   20   21 ar 
    24   21   25 ar 
    25   22   23 ar 
    26   23   24 1  
    27   23   25 ar 
    28   25   26 1  
    29   26   27 ar 
    30   26   28 ar 
    31    3   29 1  
    32    4   30 1  
    33    5   31 1  
    34    7   32 1  
    35   10   33 1  
    36   11   34 1  
    37   12   35 1  
    38   13   36 1  
    39   18   37 1  
    40   20   38 1  
    41   21   39 1  
    42   22   40 1  
    43   24   41 1  
@<TRIPOS>SUBSTRUCTURE
     1 BWW         1

