### 
### Created by X-TOOL on Mon Aug  2 16:13:19 2021
### 

@<TRIPOS>MOLECULE
6ety_ligand
   37    36     1     0     0
SMALL
GAST_HUCK


@<TRIPOS>ATOM
      1 OAC        13.9850   48.8570   40.3310 O.co2     1 BXK        -0.5690
      2 CAO        14.0050   47.6160   40.0930 C.2       1 BXK         0.0350
      3 OAG        13.2350   47.0230   39.3000 O.co2     1 BXK        -0.5690
      4 CAJ        15.0910   46.7960   40.8090 C.3       1 BXK         0.0044
      5 CAK        14.8560   45.2660   40.7710 C.3       1 BXK         0.0013
      6 CAU        16.1900   44.5670   41.1060 C.3       1 BXK         0.1415
      7 CAQ        17.1880   44.7850   39.9360 C.2       1 BXK         0.0685
      8 OAI        18.0430   45.7090   39.9990 O.co2     1 BXK        -0.5661
      9 OAE        17.0940   43.9740   38.9950 O.co2     1 BXK        -0.5661
     10 OAN        16.7070   45.0620   42.3570 O.3       1 BXK        -0.2457
     11 CAR        18.0220   44.8230   42.6390 C.2       1 BXK         0.3232
     12 OAF        18.6320   43.8460   42.1540 O.2       1 BXK        -0.3774
     13 N          18.6010   45.6720   43.5040 N.am      1 BXK        -0.2469
     14 CA         19.9580   45.6100   44.0200 C.3       1 BXK         0.0964
     15 C          20.2740   47.0000   44.6430 C.2       1 BXK         0.0601
     16 OXT        21.2870   47.5790   44.2010 O.co2     1 BXK        -0.5666
     17 O          19.5230   47.4320   45.5450 O.co2     1 BXK        -0.5666
     18 CB         20.0450   44.4720   45.0650 C.3       1 BXK        -0.0156
     19 CG         21.4120   44.4150   45.7670 C.3       1 BXK        -0.0431
     20 CD2        22.5450   44.0990   44.7620 C.3       1 BXK        -0.0625
     21 CD1        21.3700   43.3210   46.8280 C.3       1 BXK        -0.0625
     22 H1         15.1263   47.1140   41.8614 H         1 BXK         0.0432
     23 H2         16.0575   47.0090   40.3289 H         1 BXK         0.0432
     24 H3         14.5194   44.9654   39.7679 H         1 BXK         0.0329
     25 H4         14.0928   44.9876   41.5126 H         1 BXK         0.0329
     26 H5         16.0083   43.4873   41.2114 H         1 BXK         0.0820
     27 H6         18.0358   46.4304   43.8287 H         1 BXK         0.1891
     28 H7         20.6651   45.4044   43.2029 H         1 BXK         0.0725
     29 H8         19.8704   43.5126   44.5561 H         1 BXK         0.0308
     30 H9         19.2656   44.6313   45.8247 H         1 BXK         0.0308
     31 H10        21.6141   45.3852   46.2443 H         1 BXK         0.0297
     32 H11        23.5075   44.0651   45.2934 H         1 BXK         0.0232
     33 H12        22.5796   44.8821   43.9903 H         1 BXK         0.0232
     34 H13        22.3535   43.1251   44.2879 H         1 BXK         0.0232
     35 H14        20.5664   43.5383   47.5471 H         1 BXK         0.0232
     36 H15        22.3344   43.2848   47.3558 H         1 BXK         0.0232
     37 H16        21.1788   42.3506   46.3467 H         1 BXK         0.0232
@<TRIPOS>BOND
     1    1    2 ar 
     2    2    3 ar 
     3    2    4 1  
     4    4    5 1  
     5    5    6 1  
     6    6    7 1  
     7    6   10 1  
     8    7    8 ar 
     9    7    9 ar 
    10   10   11 1  
    11   11   12 2  
    12   11   13 am 
    13   13   14 1  
    14   14   15 1  
    15   14   18 1  
    16   15   16 ar 
    17   15   17 ar 
    18   18   19 1  
    19   19   20 1  
    20   19   21 1  
    21    4   22 1  
    22    4   23 1  
    23    5   24 1  
    24    5   25 1  
    25    6   26 1  
    26   13   27 1  
    27   14   28 1  
    28   18   29 1  
    29   18   30 1  
    30   19   31 1  
    31   20   32 1  
    32   20   33 1  
    33   20   34 1  
    34   21   35 1  
    35   21   36 1  
    36   21   37 1  
@<TRIPOS>SUBSTRUCTURE
     1 BXK         1

