### 
### Created by X-TOOL on Sun Dec 29 22:15:19 2019
### 

@<TRIPOS>MOLECULE
6eu6_ligand
   66    67     1     0     0
SMALL
GAST_HUCK


@<TRIPOS>ATOM
      1 C1        -15.1630  -25.1940  -18.8170 C.3       1 ZDM         0.1341
      2 O1        -13.6030  -27.4840  -23.9640 O.3       1 ZDM        -0.3405
      3 C2        -15.4830  -25.6160  -20.2680 C.3       1 ZDM         0.1144
      4 O2        -16.3050  -29.2670  -25.7930 O.3       1 ZDM        -0.3865
      5 C3        -14.4260  -26.3930  -21.1100 C.3       1 ZDM         0.1184
      6 O3        -16.4310  -24.9890  -23.6750 O.3       1 ZDM        -0.3841
      7 C4        -13.1730  -26.7490  -20.2950 C.3       1 ZDM         0.1134
      8 O4        -17.6930  -27.1850  -24.8410 O.3       1 ZDM        -0.3864
      9 C5        -15.5880  -25.9260  -24.3620 C.3       1 ZDM         0.1341
     10 O5        -12.8450  -25.6380  -19.4840 O.3       1 ZDM        -0.3405
     11 C6        -13.6640  -25.2490  -18.3880 C.3       1 ZDM         0.1879
     12 O6        -12.0130  -29.4530  -25.0870 O.3       1 ZDM        -0.3924
     13 C7        -16.3050  -27.2640  -24.4940 C.3       1 ZDM         0.1141
     14 O7        -14.0580  -25.6780  -22.3110 O.3       1 ZDM        -0.3401
     15 C8        -15.5190  -28.1080  -25.4700 C.3       1 ZDM         0.1119
     16 C9        -14.1840  -28.4880  -24.8040 C.3       1 ZDM         0.1130
     17 C10       -14.3860  -26.3370  -23.5350 C.3       1 ZDM         0.1884
     18 C11       -13.0840  -28.8200  -25.8050 C.3       1 ZDM         0.0730
     19 O16       -13.1320  -25.9780  -17.2540 O.3       1 ZDM        -0.3487
     20 C18       -13.8190  -26.2680  -16.0360 C.3       1 ZDM         0.0508
     21 C19       -14.2940  -25.0400  -15.2890 C.3       1 ZDM        -0.0294
     22 C22       -14.1140  -25.1580  -13.7840 C.3       1 ZDM        -0.0510
     23 C25       -15.4260  -25.2400  -13.0310 C.3       1 ZDM        -0.0530
     24 C28       -15.2620  -25.5940  -11.5460 C.3       1 ZDM        -0.0533
     25 C31       -15.1010  -24.3760  -10.6520 C.3       1 ZDM        -0.0559
     26 C34       -15.5540  -24.6360   -9.2330 C.3       1 ZDM        -0.0653
     27 O49       -16.1380  -25.8210  -17.9610 O.3       1 ZDM        -0.3841
     28 O55       -15.8130  -24.3970  -20.9090 O.3       1 ZDM        -0.3864
     29 C57       -11.9460  -27.0230  -21.1770 C.3       1 ZDM         0.0730
     30 O61       -12.1980  -28.1850  -21.9680 O.3       1 ZDM        -0.3924
     31 H1        -15.3966  -24.1201  -18.7713 H         1 ZDM         0.0671
     32 H2        -16.3741  -26.2597  -20.2303 H         1 ZDM         0.0648
     33 H3        -17.1260  -28.9925  -26.1844 H         1 ZDM         0.2100
     34 H4        -14.8943  -27.3386  -21.4205 H         1 ZDM         0.0651
     35 H5        -16.6350  -25.3236  -22.8096 H         1 ZDM         0.2101
     36 H6        -13.3838  -27.6315  -19.6731 H         1 ZDM         0.0647
     37 H7        -18.0538  -28.0618  -24.9004 H         1 ZDM         0.2100
     38 H8        -15.2891  -25.5152  -25.3376 H         1 ZDM         0.0671
     39 H9        -13.4310  -24.1976  -18.1638 H         1 ZDM         0.0937
     40 H10       -11.6854  -28.8597  -24.4213 H         1 ZDM         0.2095
     41 H11       -16.2599  -27.7556  -23.5110 H         1 ZDM         0.0648
     42 H12       -15.3185  -27.5365  -26.3882 H         1 ZDM         0.0647
     43 H13       -14.3833  -29.3784  -24.1896 H         1 ZDM         0.0647
     44 H14       -13.7384  -25.6489  -24.0981 H         1 ZDM         0.0938
     45 H15       -13.4727  -29.5023  -26.5753 H         1 ZDM         0.0584
     46 H16       -12.7210  -27.8975  -26.2816 H         1 ZDM         0.0584
     47 H17       -13.1378  -26.8297  -15.3800 H         1 ZDM         0.0561
     48 H18       -14.6954  -26.8892  -16.2727 H         1 ZDM         0.0561
     49 H19       -15.3622  -24.8893  -15.5042 H         1 ZDM         0.0287
     50 H20       -13.7221  -24.1699  -15.6439 H         1 ZDM         0.0287
     51 H21       -13.5609  -24.2764  -13.4278 H         1 ZDM         0.0266
     52 H22       -13.5316  -26.0667  -13.5716 H         1 ZDM         0.0266
     53 H23       -16.0514  -26.0108  -13.5051 H         1 ZDM         0.0265
     54 H24       -15.9293  -24.2645  -13.1023 H         1 ZDM         0.0265
     55 H25       -14.3707  -26.2289  -11.4348 H         1 ZDM         0.0265
     56 H26       -16.1523  -26.1514  -11.2195 H         1 ZDM         0.0265
     57 H27       -15.6989  -23.5516  -11.0678 H         1 ZDM         0.0263
     58 H28       -14.0396  -24.0876  -10.6363 H         1 ZDM         0.0263
     59 H29       -15.4162  -23.7254   -8.6315 H         1 ZDM         0.0230
     60 H30       -14.9580  -25.4538   -8.8018 H         1 ZDM         0.0230
     61 H31       -16.6173  -24.9178   -9.2333 H         1 ZDM         0.0230
     62 H32       -15.9386  -26.7463  -17.8804 H         1 ZDM         0.2101
     63 H33       -16.1716  -24.5799  -21.7695 H         1 ZDM         0.2100
     64 H34       -11.0643  -27.1925  -20.5415 H         1 ZDM         0.0584
     65 H35       -11.7635  -26.1605  -21.8348 H         1 ZDM         0.0584
     66 H36       -12.9608  -28.0356  -22.5142 H         1 ZDM         0.2095
@<TRIPOS>BOND
     1    3    1 1  
     2    1   11 1  
     3    1   27 1  
     4   16    2 1  
     5    2   17 1  
     6    5    3 1  
     7    3   28 1  
     8   15    4 1  
     9    5    7 1  
    10   14    5 1  
    11    9    6 1  
    12    7   10 1  
    13    7   29 1  
    14   13    8 1  
    15   13    9 1  
    16   17    9 1  
    17   10   11 1  
    18   11   19 1  
    19   18   12 1  
    20   15   13 1  
    21   17   14 1  
    22   16   15 1  
    23   16   18 1  
    24   19   20 1  
    25   20   21 1  
    26   21   22 1  
    27   22   23 1  
    28   23   24 1  
    29   24   25 1  
    30   25   26 1  
    31   29   30 1  
    32    1   31 1  
    33    3   32 1  
    34    4   33 1  
    35    5   34 1  
    36    6   35 1  
    37    7   36 1  
    38    8   37 1  
    39    9   38 1  
    40   11   39 1  
    41   12   40 1  
    42   13   41 1  
    43   15   42 1  
    44   16   43 1  
    45   17   44 1  
    46   18   45 1  
    47   18   46 1  
    48   20   47 1  
    49   20   48 1  
    50   21   49 1  
    51   21   50 1  
    52   22   51 1  
    53   22   52 1  
    54   23   53 1  
    55   23   54 1  
    56   24   55 1  
    57   24   56 1  
    58   25   57 1  
    59   25   58 1  
    60   26   59 1  
    61   26   60 1  
    62   26   61 1  
    63   27   62 1  
    64   28   63 1  
    65   29   64 1  
    66   29   65 1  
    67   30   66 1  
@<TRIPOS>SUBSTRUCTURE
     1 ZDM         1

