### 
### Created by X-TOOL on Mon Aug  2 16:13:19 2021
### 

@<TRIPOS>MOLECULE
6euc_ligand
   48    49     1     0     0
SMALL
GAST_HUCK


@<TRIPOS>ATOM
      1 O1         61.5690  160.7880  188.2960 O.3       1 RM0        -0.3693
      2 C2         61.4670  162.1570  188.4440 C.3       1 RM0         0.0878
      3 C3         60.8430  162.8340  187.2180 C.3       1 RM0        -0.0078
      4 N4         59.6430  162.2700  186.8260 N.4       1 RM0         0.2385
      5 C5         59.6960  160.8870  186.7640 C.3       1 RM0        -0.0078
      6 C6         60.3360  160.2380  187.9990 C.3       1 RM0         0.0878
      7 C7         59.3060  162.7260  185.6830 C.3       1 RM0        -0.0317
      8 C8         57.7790  162.7210  185.4970 C.3       1 RM0        -0.0124
      9 C9         57.3990  163.3920  184.1740 C.3       1 RM0        -0.0464
     10 C10        55.9050  163.5950  183.9020 C.3       1 RM0        -0.0426
     11 C11        55.7930  164.7660  182.9030 C.3       1 RM0        -0.0108
     12 C1         54.5830  164.7820  181.9430 C.ar      1 RM0         0.0084
     13 N5         54.7620  164.4110  180.6740 N.ar      1 RM0        -0.3042
     14 C12        53.7700  164.4220  179.7900 C.ar      1 RM0         0.0941
     15 C13        52.5060  164.8280  180.1920 C.ar      1 RM0         0.1145
     16 C14        52.2650  165.2310  181.5090 C.ar      1 RM0        -0.0268
     17 C15        53.3400  165.2080  182.4090 C.ar      1 RM0        -0.0489
     18 O16        51.4630  164.8290  179.2580 O.3       1 RM0        -0.3335
     19 C17        54.0150  163.9870  178.3410 C.3       1 RM0         0.0426
     20 N18        52.7820  164.1060  177.5690 N.4       1 RM0         0.3984
     21 O19        52.9890  164.2750  176.1630 O.3       1 RM0        -0.3429
     22 H1         62.4738  162.5710  188.6015 H         1 RM0         0.0613
     23 H2         60.8407  162.3714  189.3225 H         1 RM0         0.0613
     24 H3         61.5524  162.7594  186.3806 H         1 RM0         0.0837
     25 H4         60.6679  163.8933  187.4570 H         1 RM0         0.0837
     26 H5         58.9398  162.5290  187.5002 H         1 RM0         0.2035
     27 H6         60.2825  160.6013  185.8784 H         1 RM0         0.0837
     28 H7         58.6697  160.5043  186.6632 H         1 RM0         0.0837
     29 H8         59.6674  160.3802  188.8608 H         1 RM0         0.0613
     30 H9         60.4643  159.1624  187.8079 H         1 RM0         0.0613
     31 H10        59.7625  162.1014  184.9011 H         1 RM0         0.0814
     32 H11        59.6733  163.7585  185.5885 H         1 RM0         0.0814
     33 H12        57.3110  163.2686  186.3283 H         1 RM0         0.0317
     34 H13        57.4180  161.6820  185.4929 H         1 RM0         0.0317
     35 H14        57.8036  162.7731  183.3596 H         1 RM0         0.0269
     36 H15        57.8775  164.3823  184.1545 H         1 RM0         0.0269
     37 H16        55.3794  163.8418  184.8362 H         1 RM0         0.0288
     38 H17        55.4711  162.6825  183.4671 H         1 RM0         0.0288
     39 H18        56.7023  164.7571  182.2841 H         1 RM0         0.0432
     40 H19        55.7580  165.6956  183.4900 H         1 RM0         0.0432
     41 H20        51.2785  165.5510  181.8243 H         1 RM0         0.0620
     42 H21        53.2080  165.5136  183.4406 H         1 RM0         0.0562
     43 H22        51.7914  164.5307  178.4180 H         1 RM0         0.2459
     44 H23        54.3539  162.9406  178.3271 H         1 RM0         0.0995
     45 H24        54.7882  164.6289  177.8937 H         1 RM0         0.0995
     46 H25        52.2692  164.9032  177.9118 H         1 RM0         0.2366
     47 H26        52.2374  163.2698  177.7108 H         1 RM0         0.2366
     48 H27        52.1482  164.3451  175.7264 H         1 RM0         0.2694
@<TRIPOS>BOND
     1    1    2 1  
     2    1    6 1  
     3    2    3 1  
     4    3    4 1  
     5    4    5 1  
     6    4    7 1  
     7    5    6 1  
     8    7    8 1  
     9    8    9 1  
    10    9   10 1  
    11   10   11 1  
    12   11   12 1  
    13   12   13 ar 
    14   12   17 ar 
    15   13   14 ar 
    16   14   15 ar 
    17   14   19 1  
    18   15   16 ar 
    19   15   18 1  
    20   16   17 ar 
    21   19   20 1  
    22   20   21 1  
    23    2   22 1  
    24    2   23 1  
    25    3   24 1  
    26    3   25 1  
    27    4   26 1  
    28    5   27 1  
    29    5   28 1  
    30    6   29 1  
    31    6   30 1  
    32    7   31 1  
    33    7   32 1  
    34    8   33 1  
    35    8   34 1  
    36    9   35 1  
    37    9   36 1  
    38   10   37 1  
    39   10   38 1  
    40   11   39 1  
    41   11   40 1  
    42   16   41 1  
    43   17   42 1  
    44   18   43 1  
    45   19   44 1  
    46   19   45 1  
    47   20   46 1  
    48   20   47 1  
    49   21   48 1  
@<TRIPOS>SUBSTRUCTURE
     1 RM0         1

