### 
### Created by X-TOOL on Wed Jan  1 15:39:34 2020
### 

@<TRIPOS>MOLECULE
6eum_ligand
   19    19     1     0     0
SMALL
GAST_HUCK


@<TRIPOS>ATOM
      1 C4         59.8100    9.6930   27.7920 C.ar      1 BY5         0.1316
      2 C5         58.5700   10.2680   27.6360 C.ar      1 BY5        -0.0353
      3 C6         58.2490   10.8290   26.4100 C.ar      1 BY5        -0.0337
      4 C7         59.1870   10.8170   25.4040 C.ar      1 BY5         0.1593
      5 C8         60.4270   10.2580   25.5850 C.ar      1 BY5         0.1683
      6 C          63.7680    7.2650   26.5950 C.2       1 BY5         0.0732
      7 O          64.0290    6.2130   25.9240 O.co2     1 BY5        -0.5592
      8 C1         62.4780    7.9150   26.2740 C.2       1 BY5         0.0465
      9 C2         62.0660    8.9670   27.0190 C.2       1 BY5        -0.0413
     10 C3         60.7860    9.6630   26.7930 C.ar      1 BY5         0.0346
     11 F          60.1070    9.0850   28.9690 F         1 BY5        -0.1878
     12 F1         61.3410   10.3800   24.6030 F         1 BY5        -0.1856
     13 F2         58.9050   11.3770   24.2000 F         1 BY5        -0.1885
     14 O1         64.4740    7.6100   27.5290 O.co2     1 BY5        -0.5592
     15 S          61.4610    7.2730   24.9150 S.3       1 BY5        -0.1113
     16 H1         57.8593   10.2820   28.4544 H         1 BY5         0.0555
     17 H2         57.2728   11.2709   26.2463 H         1 BY5         0.0566
     18 H3         62.7108    9.3162   27.8241 H         1 BY5         0.0513
     19 H4         61.9329    6.4943   24.4826 H         1 BY5         0.1249
@<TRIPOS>BOND
     1    1    2 ar 
     2   10    1 ar 
     3    1   11 1  
     4    2    3 ar 
     5    4    3 ar 
     6    5    4 ar 
     7    4   13 1  
     8   10    5 ar 
     9    5   12 1  
    10    6    7 ar 
    11    8    6 1  
    12    6   14 ar 
    13    9    8 2  
    14    8   15 1  
    15    9   10 1  
    16    2   16 1  
    17    3   17 1  
    18    9   18 1  
    19   15   19 1  
@<TRIPOS>SUBSTRUCTURE
     1 BY5         1

