### 
### Created by X-TOOL on Mon Sep 10 21:13:34 2018
### 

@<TRIPOS>MOLECULE
6euv_ligand
   47    51     1     0     0
SMALL
GAST_HUCK


@<TRIPOS>ATOM
      1 C1        -12.8100 -150.9640  175.0770 C.ar      1 21G        -0.0198
      2 C2        -11.8900 -150.7940  174.0550 C.ar      1 21G         0.1437
      3 C3        -10.5440 -151.1360  174.2440 C.ar      1 21G         0.0297
      4 C5        -11.0230 -151.8060  176.4190 C.ar      1 21G         0.1395
      5 C6        -12.3410 -151.4780  176.2640 C.ar      1 21G         0.0158
      6 C7        -13.0030 -151.7910  177.5450 C.2       1 21G         0.0280
      7 N4        -10.1180 -151.6410  175.4180 N.ar      1 21G        -0.2849
      8 C8        -11.9970 -152.2900  178.3670 C.2       1 21G         0.0541
      9 N9        -10.8210 -152.2900  177.6730 N.pl3     1 21G        -0.2551
     10 C11       -14.4480 -151.5940  177.8300 C.ar      1 21G         0.0815
     11 N12       -15.0170 -152.0840  178.9600 N.ar      1 21G        -0.2961
     12 C13       -16.3240 -151.8990  179.1910 C.ar      1 21G         0.0374
     13 C14       -17.0900 -151.1990  178.2620 C.ar      1 21G         0.1925
     14 C15       -16.4900 -150.7120  177.1080 C.ar      1 21G         0.1541
     15 N16       -15.1750 -150.9220  176.9120 N.ar      1 21G        -0.2657
     16 N17       -17.1740 -150.0330  176.1530 N.pl3     1 21G        -0.2969
     17 C18       -16.4060 -149.5730  174.9980 C.3       1 21G         0.0570
     18 C20       -16.2210 -148.0810  175.1950 C.3       1 21G         0.0379
     19 C22       -17.2520 -147.3460  174.3750 C.3       1 21G        -0.0245
     20 C23       -18.6280 -147.9900  174.5280 C.3       1 21G        -0.0480
     21 C24       -18.6030 -149.2990  173.7540 C.3       1 21G        -0.0476
     22 C25       -17.1560 -149.7720  173.6770 C.3       1 21G        -0.0160
     23 C26       -16.4760 -148.9270  172.6030 C.3       1 21G        -0.0476
     24 C27       -16.7110 -147.4570  172.9470 C.3       1 21G        -0.0480
     25 C28       -14.8980 -147.7240  174.6220 C.2       1 21G         0.0404
     26 O29       -14.2880 -146.7690  175.1400 O.co2     1 21G        -0.5686
     27 O30       -14.4860 -148.3880  173.6410 O.co2     1 21G        -0.5686
     28 F31       -18.3990 -151.0100  178.4890 F         1 21G        -0.1819
     29 F32       -12.3150 -150.2930  172.8840 F         1 21G        -0.1848
     30 H1        -13.8541 -150.7033  174.9470 H         1 21G         0.0652
     31 H2         -9.8367 -150.9923  173.4352 H         1 21G         0.0748
     32 H3        -12.1264 -152.6254  179.3949 H         1 21G         0.1113
     33 H4         -9.9151 -152.6094  178.0447 H         1 21G         0.2362
     34 H5        -16.7809 -152.2906  180.0927 H         1 21G         0.0844
     35 H6        -18.1842 -149.8509  176.2379 H         1 21G         0.1838
     36 H7        -15.4367 -150.0914  174.9574 H         1 21G         0.0582
     37 H8        -16.2893 -147.8099  176.2589 H         1 21G         0.0492
     38 H9        -17.3147 -146.2914  174.6813 H         1 21G         0.0322
     39 H10       -19.4026 -147.3251  174.1182 H         1 21G         0.0269
     40 H11       -18.8365 -148.1848  175.5903 H         1 21G         0.0269
     41 H12       -18.9986 -149.1409  172.7399 H         1 21G         0.0269
     42 H13       -19.2147 -150.0515  174.2731 H         1 21G         0.0269
     43 H14       -17.1296 -150.8366  173.4015 H         1 21G         0.0324
     44 H15       -16.9092 -149.1546  171.6178 H         1 21G         0.0269
     45 H16       -15.3969 -149.1396  172.5871 H         1 21G         0.0269
     46 H17       -15.7617 -146.9066  172.8709 H         1 21G         0.0269
     47 H18       -17.4407 -147.0284  172.2443 H         1 21G         0.0269
@<TRIPOS>BOND
     1    1    2 ar 
     2    1    5 ar 
     3    2    3 ar 
     4    2   29 1  
     5    3    7 ar 
     6    5    4 ar 
     7    4    7 ar 
     8    4    9 1  
     9    5    6 1  
    10    6    8 2  
    11    6   10 1  
    12    8    9 1  
    13   10   11 ar 
    14   10   15 ar 
    15   11   12 ar 
    16   12   13 ar 
    17   13   14 ar 
    18   13   28 1  
    19   14   15 ar 
    20   14   16 1  
    21   16   17 1  
    22   17   18 1  
    23   17   22 1  
    24   18   19 1  
    25   18   25 1  
    26   19   20 1  
    27   19   24 1  
    28   20   21 1  
    29   21   22 1  
    30   22   23 1  
    31   23   24 1  
    32   25   26 ar 
    33   25   27 ar 
    34    1   30 1  
    35    3   31 1  
    36    8   32 1  
    37    9   33 1  
    38   12   34 1  
    39   16   35 1  
    40   17   36 1  
    41   18   37 1  
    42   19   38 1  
    43   20   39 1  
    44   20   40 1  
    45   21   41 1  
    46   21   42 1  
    47   22   43 1  
    48   23   44 1  
    49   23   45 1  
    50   24   46 1  
    51   24   47 1  
@<TRIPOS>SUBSTRUCTURE
     1 21G         1

