### 
### Created by X-TOOL on Mon Sep 10 21:13:30 2018
### 

@<TRIPOS>MOLECULE
6euw_ligand
   46    50     1     0     0
SMALL
GAST_HUCK


@<TRIPOS>ATOM
      1 C1         20.8890  -31.2330   -9.1450 C.ar      1 BYB         0.1618
      2 C2         21.1630  -30.0150   -9.7620 C.ar      1 BYB         0.0457
      3 C4         20.0530  -32.1710   -9.7100 C.ar      1 BYB         0.0047
      4 C5         19.5430  -31.8050  -10.9570 C.ar      1 BYB         0.0624
      5 C6         19.9000  -30.5730  -11.5270 C.ar      1 BYB         0.0930
      6 N3         20.7050  -29.6900  -10.9540 N.ar      1 BYB        -0.2880
      7 N7         19.3010  -30.4380  -12.7330 N.2       1 BYB        -0.2379
      8 N8         18.5440  -31.5510  -12.9820 N.pl3     1 BYB        -0.2120
      9 C9         18.6720  -32.3810  -11.9490 C.2       1 BYB         0.1686
     10 C10        17.9600  -33.6560  -11.8640 C.ar      1 BYB         0.1334
     11 N11        18.1140  -34.3340  -10.7190 N.ar      1 BYB        -0.2615
     12 C12        17.4580  -35.4820  -10.5730 C.ar      1 BYB         0.1557
     13 C13        16.6280  -35.9270  -11.6070 C.ar      1 BYB         0.1957
     14 C14        16.4910  -35.1720  -12.7490 C.ar      1 BYB         0.0405
     15 N15        17.1720  -34.0350  -12.8910 N.ar      1 BYB        -0.2898
     16 N16        17.6110  -36.2140   -9.4380 N.pl3     1 BYB        -0.2966
     17 C17        18.4210  -35.7340   -8.3190 C.3       1 BYB         0.0570
     18 C18        17.6300  -34.7090   -7.4710 C.3       1 BYB        -0.0160
     19 C19        16.5060  -35.4090   -6.6950 C.3       1 BYB        -0.0476
     20 C20        17.1090  -36.3890   -5.6760 C.3       1 BYB        -0.0480
     21 C21        18.6200  -36.5390   -5.9380 C.3       1 BYB        -0.0245
     22 C22        18.8320  -36.9340   -7.4180 C.3       1 BYB         0.0379
     23 F23        21.4130  -31.4520   -7.9330 F         1 BYB        -0.1737
     24 F24        15.9430  -37.0620  -11.4720 F         1 BYB        -0.1790
     25 C25        20.2580  -37.4000   -7.6190 C.2       1 BYB         0.0404
     26 O26        21.0920  -36.7550   -8.2250 O.co2     1 BYB        -0.5686
     27 O27        20.5740  -38.5730   -7.0820 O.co2     1 BYB        -0.5686
     28 C28        18.6290  -34.0850   -6.4800 C.3       1 BYB        -0.0476
     29 C29        19.3200  -35.1990   -5.6720 C.3       1 BYB        -0.0480
     30 H1         21.7837  -29.2989   -9.2357 H         1 BYB         0.0813
     31 H2         19.8121  -33.1116   -9.2281 H         1 BYB         0.0734
     32 H3         17.9737  -31.7176  -13.8234 H         1 BYB         0.2997
     33 H4         15.8255  -35.5037  -13.5377 H         1 BYB         0.0855
     34 H5         17.1449  -37.1295   -9.3642 H         1 BYB         0.1837
     35 H6         19.3263  -35.2504   -8.7146 H         1 BYB         0.0581
     36 H7         17.2008  -33.9317   -8.1204 H         1 BYB         0.0324
     37 H8         15.8658  -35.9616   -7.3984 H         1 BYB         0.0269
     38 H9         15.9040  -34.6560   -6.1653 H         1 BYB         0.0269
     39 H10        16.6205  -37.3694   -5.7770 H         1 BYB         0.0269
     40 H11        16.9501  -36.0032   -4.6582 H         1 BYB         0.0269
     41 H12        19.0380  -37.3147   -5.2795 H         1 BYB         0.0322
     42 H13        18.1682  -37.7778   -7.6574 H         1 BYB         0.0492
     43 H14        18.0925  -33.4138   -5.7932 H         1 BYB         0.0269
     44 H15        19.3863  -33.5123   -7.0355 H         1 BYB         0.0269
     45 H16        20.3749  -35.2706   -5.9755 H         1 BYB         0.0269
     46 H17        19.2623  -34.9625   -4.5993 H         1 BYB         0.0269
@<TRIPOS>BOND
     1    1    2 ar 
     2    1    3 ar 
     3    1   23 1  
     4    2    6 ar 
     5    3    4 ar 
     6    4    5 ar 
     7    4    9 2  
     8    5    6 ar 
     9    5    7 2  
    10    7    8 1  
    11    8    9 1  
    12    9   10 1  
    13   10   11 ar 
    14   10   15 ar 
    15   11   12 ar 
    16   12   13 ar 
    17   12   16 1  
    18   13   14 ar 
    19   13   24 1  
    20   14   15 ar 
    21   16   17 1  
    22   17   18 1  
    23   17   22 1  
    24   18   19 1  
    25   18   28 1  
    26   19   20 1  
    27   20   21 1  
    28   21   22 1  
    29   21   29 1  
    30   22   25 1  
    31   25   26 ar 
    32   25   27 ar 
    33   28   29 1  
    34    2   30 1  
    35    3   31 1  
    36    8   32 1  
    37   14   33 1  
    38   16   34 1  
    39   17   35 1  
    40   18   36 1  
    41   19   37 1  
    42   19   38 1  
    43   20   39 1  
    44   20   40 1  
    45   21   41 1  
    46   22   42 1  
    47   28   43 1  
    48   28   44 1  
    49   29   45 1  
    50   29   46 1  
@<TRIPOS>SUBSTRUCTURE
     1 BYB         1

