### 
### Created by X-TOOL on Mon Sep 10 21:13:34 2018
### 

@<TRIPOS>MOLECULE
6eux_ligand
   46    50     1     0     0
SMALL
GAST_HUCK


@<TRIPOS>ATOM
      1 C1         25.3040  -25.0060   -5.4100 C.ar      1 BYB         0.1618
      2 C2         26.5850  -24.6990   -4.9500 C.ar      1 BYB         0.0457
      3 C4         24.7340  -24.1970   -6.3760 C.ar      1 BYB         0.0047
      4 C5         25.4660  -23.0960   -6.8560 C.ar      1 BYB         0.0624
      5 C6         26.7500  -22.8400   -6.3370 C.ar      1 BYB         0.0930
      6 N3         27.2560  -23.6460   -5.3990 N.ar      1 BYB        -0.2880
      7 N7         27.2210  -21.7240   -6.9790 N.2       1 BYB        -0.2379
      8 N8         26.2680  -21.2720   -7.8970 N.pl3     1 BYB        -0.2120
      9 C9         25.2020  -22.0480   -7.8450 C.2       1 BYB         0.1686
     10 C10        23.9900  -21.9380   -8.6860 C.ar      1 BYB         0.1334
     11 N11        23.0120  -22.8480   -8.5570 N.ar      1 BYB        -0.2615
     12 C12        21.9170  -22.8130   -9.3240 C.ar      1 BYB         0.1557
     13 C13        21.8160  -21.7920  -10.2860 C.ar      1 BYB         0.1957
     14 C14        22.8550  -20.8690  -10.4030 C.ar      1 BYB         0.0405
     15 N15        23.9200  -20.9750   -9.6060 N.ar      1 BYB        -0.2898
     16 N16        20.8860  -23.7470   -9.1980 N.pl3     1 BYB        -0.2966
     17 C17        21.0000  -24.9090   -8.3020 C.3       1 BYB         0.0570
     18 C18        20.3750  -24.6020   -6.9130 C.3       1 BYB        -0.0160
     19 C19        18.8310  -24.4830   -7.0090 C.3       1 BYB        -0.0476
     20 C20        18.2390  -25.7780   -7.6130 C.3       1 BYB        -0.0480
     21 C21        19.3840  -26.7850   -7.8590 C.3       1 BYB        -0.0245
     22 C22        20.3440  -26.1800   -8.9150 C.3       1 BYB         0.0379
     23 F23        24.6160  -26.0800   -4.9400 F         1 BYB        -0.1737
     24 F24        20.7220  -21.7210  -11.0750 F         1 BYB        -0.1790
     25 C25        21.3500  -27.2200   -9.3880 C.2       1 BYB         0.0404
     26 O26        20.9170  -28.3090  -10.0400 O.co2     1 BYB        -0.5686
     27 O27        22.5420  -27.1070   -9.1960 O.co2     1 BYB        -0.5686
     28 C28        20.7420  -25.7690   -5.9630 C.3       1 BYB        -0.0476
     29 C29        20.1230  -27.0780   -6.5210 C.3       1 BYB        -0.0480
     30 H1         27.0448  -25.3385   -4.2052 H         1 BYB         0.0813
     31 H2         23.7410  -24.4076   -6.7564 H         1 BYB         0.0734
     32 H3         26.3808  -20.4583   -8.5184 H         1 BYB         0.2997
     33 H4         22.7979  -20.0719  -11.1355 H         1 BYB         0.0855
     34 H5         20.0236  -23.6192   -9.7464 H         1 BYB         0.1837
     35 H6         22.0703  -25.1171   -8.1568 H         1 BYB         0.0581
     36 H7         20.7873  -23.6592   -6.5243 H         1 BYB         0.0324
     37 H8         18.5704  -23.6289   -7.6513 H         1 BYB         0.0269
     38 H9         18.4141  -24.3261   -6.0032 H         1 BYB         0.0269
     39 H10        17.7401  -25.5465   -8.5656 H         1 BYB         0.0269
     40 H11        17.5098  -26.2120   -6.9131 H         1 BYB         0.0269
     41 H12        18.9674  -27.7259   -8.2478 H         1 BYB         0.0322
     42 H13        19.7532  -25.8697   -9.7894 H         1 BYB         0.0492
     43 H14        20.3409  -25.5688   -4.9585 H         1 BYB         0.0269
     44 H15        21.8358  -25.8711   -5.9075 H         1 BYB         0.0269
     45 H16        20.9222  -27.8126   -6.6988 H         1 BYB         0.0269
     46 H17        19.4078  -27.4838   -5.7904 H         1 BYB         0.0269
@<TRIPOS>BOND
     1    1    2 ar 
     2    1    3 ar 
     3    1   23 1  
     4    2    6 ar 
     5    3    4 ar 
     6    4    5 ar 
     7    4    9 2  
     8    5    6 ar 
     9    5    7 2  
    10    7    8 1  
    11    8    9 1  
    12    9   10 1  
    13   10   11 ar 
    14   10   15 ar 
    15   11   12 ar 
    16   12   13 ar 
    17   12   16 1  
    18   13   14 ar 
    19   13   24 1  
    20   14   15 ar 
    21   16   17 1  
    22   17   18 1  
    23   17   22 1  
    24   18   19 1  
    25   18   28 1  
    26   19   20 1  
    27   20   21 1  
    28   21   22 1  
    29   21   29 1  
    30   22   25 1  
    31   25   26 ar 
    32   25   27 ar 
    33   28   29 1  
    34    2   30 1  
    35    3   31 1  
    36    8   32 1  
    37   14   33 1  
    38   16   34 1  
    39   17   35 1  
    40   18   36 1  
    41   19   37 1  
    42   19   38 1  
    43   20   39 1  
    44   20   40 1  
    45   21   41 1  
    46   22   42 1  
    47   28   43 1  
    48   28   44 1  
    49   29   45 1  
    50   29   46 1  
@<TRIPOS>SUBSTRUCTURE
     1 BYB         1

