### 
### Created by X-TOOL on Wed Jan  1 15:39:36 2020
### 

@<TRIPOS>MOLECULE
6euz_ligand
   44    47     1     0     0
SMALL
GAST_HUCK


@<TRIPOS>ATOM
      1 C11        61.4860   16.7210   30.9440 C.2       1 C8Q        -0.0348
      2 O01        59.2150   20.1110   32.9850 O.co2     1 C8Q        -0.5666
      3 C02        58.0830   20.0790   32.4670 C.2       1 C8Q         0.0613
      4 O03        57.2620   21.0090   32.4670 O.co2     1 C8Q        -0.5666
      5 C04        57.7550   18.7330   31.8220 C.3       1 C8Q         0.1091
      6 C05        57.0570   17.8240   32.8030 C.3       1 C8Q         0.0328
      7 S06        58.3340   16.8050   33.5820 S.3       1 C8Q        -0.1166
      8 C07        59.4410   17.0670   32.2600 C.3       1 C8Q         0.1389
      9 C08        60.6570   16.4350   32.0770 C.2       1 C8Q         0.0847
     10 O09        61.1120   15.4930   32.9620 O.3       1 C8Q        -0.3398
     11 C10        61.3680   15.9120   34.3450 C.3       1 C8Q         0.0537
     12 C12        62.8350   16.0320   30.7340 C.3       1 C8Q        -0.0046
     13 C13        62.7760   14.6470   30.2040 C.ar      1 C8Q        -0.0288
     14 C14        62.8800   13.5920   31.1080 C.ar      1 C8Q        -0.0603
     15 C15        62.8460   12.2570   30.6760 C.ar      1 C8Q        -0.0712
     16 C16        62.7000   11.9630   29.3360 C.ar      1 C8Q        -0.0636
     17 C17        62.5990   13.0150   28.3890 C.ar      1 C8Q        -0.0247
     18 C18        62.4580   12.7190   27.0200 C.ar      1 C8Q        -0.0572
     19 C19        62.3630   13.7200   26.0940 C.ar      1 C8Q        -0.0631
     20 C20        62.4030   15.0430   26.5090 C.ar      1 C8Q        -0.0627
     21 C21        62.5360   15.3660   27.8380 C.ar      1 C8Q        -0.0550
     22 C22        62.6470   14.3570   28.8370 C.ar      1 C8Q        -0.0116
     23 C23        60.9960   17.6680   30.0800 C.3       1 C8Q         0.0499
     24 C24        59.7290   18.3730   30.2260 C.2       1 C8Q         0.1866
     25 O25        59.3280   19.2150   29.4300 O.2       1 C8Q        -0.3953
     26 N26        58.9640   18.0250   31.3620 N.am      1 C8Q        -0.2329
     27 H1         57.0955   18.9142   30.9605 H         1 C8Q         0.0738
     28 H2         56.3330   17.1849   32.2764 H         1 C8Q         0.0419
     29 H3         56.5335   18.4208   33.5644 H         1 C8Q         0.0419
     30 H4         58.9657   16.2560   31.6887 H         1 C8Q         0.0822
     31 H5         61.7258   15.0510   34.9287 H         1 C8Q         0.0570
     32 H6         60.4381   16.2957   34.7900 H         1 C8Q         0.0570
     33 H7         62.1321   16.7033   34.3530 H         1 C8Q         0.0570
     34 H8         63.3528   16.0006   31.7040 H         1 C8Q         0.0514
     35 H9         63.4181   16.6397   30.0265 H         1 C8Q         0.0514
     36 H10        62.9892   13.8062   32.1650 H         1 C8Q         0.0527
     37 H11        62.9348   11.4536   31.3983 H         1 C8Q         0.0593
     38 H12        62.6625   10.9307   29.0073 H         1 C8Q         0.0538
     39 H13        62.4244   11.6850   26.6963 H         1 C8Q         0.0607
     40 H14        62.2571   13.4814   25.0419 H         1 C8Q         0.0615
     41 H15        62.3281   15.8351   25.7728 H         1 C8Q         0.0600
     42 H16        62.5568   16.4092   28.1318 H         1 C8Q         0.0627
     43 H17        60.9391   17.1675   29.1021 H         1 C8Q         0.0572
     44 H18        61.7640   18.4548   30.0451 H         1 C8Q         0.0572
@<TRIPOS>BOND
     1    9    1 2  
     2    1   12 1  
     3    1   23 1  
     4    3    2 ar 
     5    3    4 ar 
     6    5    3 1  
     7    6    5 1  
     8    5   26 1  
     9    7    6 1  
    10    8    7 1  
    11    8    9 1  
    12    8   26 1  
    13    9   10 1  
    14   10   11 1  
    15   12   13 1  
    16   13   14 ar 
    17   13   22 ar 
    18   14   15 ar 
    19   15   16 ar 
    20   16   17 ar 
    21   17   18 ar 
    22   17   22 ar 
    23   18   19 ar 
    24   19   20 ar 
    25   20   21 ar 
    26   21   22 ar 
    27   23   24 1  
    28   24   25 2  
    29   24   26 am 
    30    5   27 1  
    31    6   28 1  
    32    6   29 1  
    33    8   30 1  
    34   11   31 1  
    35   11   32 1  
    36   11   33 1  
    37   12   34 1  
    38   12   35 1  
    39   14   36 1  
    40   15   37 1  
    41   16   38 1  
    42   18   39 1  
    43   19   40 1  
    44   20   41 1  
    45   21   42 1  
    46   23   43 1  
    47   23   44 1  
@<TRIPOS>SUBSTRUCTURE
     1 C8Q         1

