### 
### Created by X-TOOL on Wed Jan  1 15:39:38 2020
### 

@<TRIPOS>MOLECULE
6ev0_ligand
   46    49     1     0     0
SMALL
GAST_HUCK


@<TRIPOS>ATOM
      1 O01        52.9670    4.6520   45.4150 O.co2     1 BYK        -0.5659
      2 C02        52.4020    3.5470   45.4830 C.2       1 BYK         0.0707
      3 O03        52.8650    2.4630   45.0780 O.co2     1 BYK        -0.5659
      4 C04        51.0160    3.4740   46.1120 C.3       1 BYK         0.1393
      5 C05        51.0730    3.7300   47.6120 C.3       1 BYK         0.0558
      6 S06        51.0970    2.0950   48.4020 S.3       1 BYK        -0.0541
      7 C07        50.3640    1.3130   47.0110 C.2       1 BYK         0.1600
      8 C08        49.7860    0.0560   46.9100 C.2       1 BYK         0.0757
      9 N09        49.7450   -0.7880   48.0660 N.pl3     1 BYK        -0.3371
     10 C10        51.0110   -1.4350   48.4090 C.3       1 BYK         0.0047
     11 C11        49.1030   -0.2030   49.2480 C.3       1 BYK         0.0047
     12 C12        49.2450   -0.3670   45.6400 C.2       1 BYK        -0.0321
     13 C13        48.6270   -1.7520   45.5880 C.3       1 BYK         0.0128
     14 C14        48.0760   -2.1250   44.2150 C.ar      1 BYK        -0.0208
     15 C15        46.7290   -2.1110   43.9920 C.ar      1 BYK        -0.0585
     16 C16        46.1370   -2.4440   42.7490 C.ar      1 BYK        -0.0701
     17 C17        46.9390   -2.8070   41.6880 C.ar      1 BYK        -0.0627
     18 C18        48.3420   -2.8410   41.8550 C.ar      1 BYK        -0.0239
     19 C19        49.1930   -3.2100   40.7840 C.ar      1 BYK        -0.0568
     20 C20        50.5600   -3.2380   40.9670 C.ar      1 BYK        -0.0629
     21 C21        51.1270   -2.9010   42.2160 C.ar      1 BYK        -0.0625
     22 C22        50.3150   -2.5400   43.2700 C.ar      1 BYK        -0.0546
     23 C23        48.9020   -2.5000   43.1190 C.ar      1 BYK        -0.0102
     24 C24        49.2860    0.4380   44.5420 C.2       1 BYK        -0.0300
     25 C25        49.8900    1.7580   44.6410 C.2       1 BYK         0.1723
     26 O26        49.9500    2.5200   43.6760 O.2       1 BYK        -0.4391
     27 N27        50.4150    2.1460   45.9030 N.am      1 BYK        -0.1910
     28 H1         50.3788    4.2371   45.6412 H         1 BYK         0.0846
     29 H2         50.1883    4.2975   47.9362 H         1 BYK         0.0457
     30 H3         51.9833    4.2914   47.8691 H         1 BYK         0.0457
     31 H4         50.8737   -2.0570   49.3058 H         1 BYK         0.0456
     32 H5         51.7730   -0.6672   48.6085 H         1 BYK         0.0456
     33 H6         51.3385   -2.0675   47.5707 H         1 BYK         0.0456
     34 H7         48.1564    0.2735   48.9530 H         1 BYK         0.0456
     35 H8         49.7699    0.5505   49.6923 H         1 BYK         0.0456
     36 H9         48.9011   -0.9942   49.9850 H         1 BYK         0.0456
     37 H10        47.8032   -1.7926   46.3158 H         1 BYK         0.0606
     38 H11        49.3973   -2.4869   45.8647 H         1 BYK         0.0606
     39 H12        46.0770   -1.8297   44.8110 H         1 BYK         0.0535
     40 H13        45.0597   -2.4136   42.6327 H         1 BYK         0.0596
     41 H14        46.4966   -3.0645   40.7325 H         1 BYK         0.0546
     42 H15        48.7698   -3.4704   39.8206 H         1 BYK         0.0609
     43 H16        51.2057   -3.5216   40.1438 H         1 BYK         0.0616
     44 H17        52.2029   -2.9263   42.3461 H         1 BYK         0.0602
     45 H18        50.7591   -2.2837   44.2250 H         1 BYK         0.0628
     46 H19        48.8693    0.0957   43.5959 H         1 BYK         0.0184
@<TRIPOS>BOND
     1    1    2 ar 
     2    2    3 ar 
     3    2    4 1  
     4    4    5 1  
     5    4   27 1  
     6    5    6 1  
     7    6    7 1  
     8    7    8 2  
     9    7   27 1  
    10    8    9 1  
    11    8   12 1  
    12    9   10 1  
    13    9   11 1  
    14   12   13 1  
    15   12   24 2  
    16   13   14 1  
    17   14   15 ar 
    18   14   23 ar 
    19   15   16 ar 
    20   16   17 ar 
    21   17   18 ar 
    22   18   19 ar 
    23   18   23 ar 
    24   19   20 ar 
    25   20   21 ar 
    26   21   22 ar 
    27   22   23 ar 
    28   24   25 1  
    29   25   26 2  
    30   25   27 am 
    31    4   28 1  
    32    5   29 1  
    33    5   30 1  
    34   10   31 1  
    35   10   32 1  
    36   10   33 1  
    37   11   34 1  
    38   11   35 1  
    39   11   36 1  
    40   13   37 1  
    41   13   38 1  
    42   15   39 1  
    43   16   40 1  
    44   17   41 1  
    45   19   42 1  
    46   20   43 1  
    47   21   44 1  
    48   22   45 1  
    49   24   46 1  
@<TRIPOS>SUBSTRUCTURE
     1 BYK         1

