### 
### Created by X-TOOL on Wed Jan  1 15:39:35 2020
### 

@<TRIPOS>MOLECULE
6evm_ligand
  129   137     1     0     0
SMALL
GAST_HUCK


@<TRIPOS>ATOM
      1 N          39.3690  -25.2740    9.4450 N.4       1 PRO         0.2461
      2 CA         38.0700  -25.6710   10.0110 C.3       1 PRO         0.0671
      3 C          37.2510  -26.5630    9.0710 C.2       1 PRO         0.2293
      4 O          37.4090  -26.4820    7.8520 O.2       1 PRO        -0.3905
      5 CB         37.3570  -24.3290   10.2370 C.3       1 PRO         0.0127
      6 CG         38.4510  -23.2940   10.2330 C.3       1 PRO        -0.0053
      7 CD         39.4880  -23.8140    9.2930 C.3       1 PRO        -0.0313
      8 N          36.3950  -27.4140    9.6300 N.am      1 PRO        -0.2471
      9 CA         35.4830  -28.2090    8.7970 C.3       1 PRO         0.1341
     10 C          34.2420  -27.4040    8.4540 C.2       1 PRO         0.2066
     11 O          33.9460  -26.4050    9.1270 O.2       1 PRO        -0.3942
     12 CB         35.1470  -29.4080    9.6970 C.3       1 PRO        -0.0104
     13 CG         35.2440  -28.8570   11.0920 C.3       1 PRO        -0.0281
     14 CD         36.2560  -27.7270   11.0660 C.3       1 PRO         0.0371
     15 N          33.4940  -27.7920    7.4230 N.am      1 PRO        -0.2498
     16 CA         32.2860  -27.0290    7.0580 C.3       1 PRO         0.1340
     17 C          31.2730  -27.0520    8.1900 C.2       1 PRO         0.2066
     18 O          31.3000  -27.9540    9.0430 O.2       1 PRO        -0.3942
     19 CB         31.7560  -27.7630    5.8140 C.3       1 PRO        -0.0104
     20 CG         32.3580  -29.1340    5.8790 C.3       1 PRO        -0.0281
     21 CD         33.7000  -28.9610    6.5460 C.3       1 PRO         0.0369
     22 N          30.3790  -26.0700    8.2510 N.am      1 PRO        -0.2498
     23 CA         29.3270  -26.0870    9.2780 C.3       1 PRO         0.1340
     24 C          28.4210  -27.2950    9.1210 C.2       1 PRO         0.2066
     25 O          28.3700  -27.9160    8.0460 O.2       1 PRO        -0.3942
     26 CB         28.5550  -24.7780    9.0280 C.3       1 PRO        -0.0104
     27 CG         28.9650  -24.3260    7.6520 C.3       1 PRO        -0.0281
     28 CD         30.3660  -24.8280    7.4560 C.3       1 PRO         0.0369
     29 N          27.6910  -27.6580   10.1750 N.am      1 PRO        -0.2498
     30 CA         26.6590  -28.6920   10.0540 C.3       1 PRO         0.1340
     31 C          25.6330  -28.3180    8.9980 C.2       1 PRO         0.2066
     32 O          25.5470  -27.1480    8.5890 O.2       1 PRO        -0.3942
     33 CB         26.0370  -28.7240   11.4610 C.3       1 PRO        -0.0104
     34 CG         27.1540  -28.2680   12.3700 C.3       1 PRO        -0.0281
     35 CD         27.8800  -27.2180   11.5730 C.3       1 PRO         0.0369
     36 N          24.8480  -29.2780    8.5170 N.am      1 PRO        -0.2498
     37 CA         23.8130  -28.9720    7.5100 C.3       1 PRO         0.1340
     38 C          22.6710  -28.1690    8.1080 C.2       1 PRO         0.2066
     39 O          22.5540  -28.0570    9.3380 O.2       1 PRO        -0.3942
     40 CB         23.3390  -30.3640    7.0590 C.3       1 PRO        -0.0104
     41 CG         23.7030  -31.2760    8.1860 C.3       1 PRO        -0.0281
     42 CD         24.9800  -30.7270    8.7540 C.3       1 PRO         0.0369
     43 N          21.8130  -27.5790    7.2720 N.am      1 PRO        -0.2498
     44 CA         20.6630  -26.8570    7.8050 C.3       1 PRO         0.1340
     45 C          19.8290  -27.7580    8.6950 C.2       1 PRO         0.2066
     46 O          19.7250  -28.9740    8.4570 O.2       1 PRO        -0.3942
     47 CB         19.8930  -26.4430    6.5440 C.3       1 PRO        -0.0104
     48 CG         20.9370  -26.3210    5.5040 C.3       1 PRO        -0.0281
     49 CD         21.9490  -27.4010    5.8140 C.3       1 PRO         0.0369
     50 N          19.2150  -27.2000    9.7360 N.am      1 PRO        -0.2498
     51 CA         18.4860  -28.0210   10.7040 C.3       1 PRO         0.1339
     52 C          17.1850  -28.5390   10.1190 C.2       1 PRO         0.2060
     53 O          16.7480  -28.0880    9.0470 O.2       1 PRO        -0.3942
     54 CB         18.2290  -27.0450   11.8640 C.3       1 PRO        -0.0104
     55 CG         18.1860  -25.7010   11.2100 C.3       1 PRO        -0.0281
     56 CD         19.1970  -25.7690   10.0900 C.3       1 PRO         0.0369
     57 N          16.5370  -29.5130   10.7870 N.am      1 PRO        -0.2556
     58 CA         15.2280  -29.9820   10.3170 C.3       1 PRO         0.0972
     59 C          14.1930  -28.8500   10.2330 C.2       1 PRO         0.0603
     60 O          14.2590  -27.8590   10.9670 O.co2     1 PRO        -0.5666
     61 CB         14.8270  -31.0220   11.3680 C.3       1 PRO        -0.0159
     62 CG         16.1220  -31.5240   11.9100 C.3       1 PRO        -0.0288
     63 CD         17.0570  -30.3370   11.8950 C.3       1 PRO         0.0362
     64 OXT        13.2760  -28.8920    9.4070 O.co2     1 PRO        -0.5666
     65 H1         39.4733  -25.7040    8.5393 H         1 PRO         0.2035
     66 H2         40.1019  -25.5972   10.0569 H         1 PRO         0.2035
     67 H3         38.2164  -26.2001   10.9642 H         1 PRO         0.1099
     68 H4         36.8306  -24.3299   11.2029 H         1 PRO         0.0347
     69 H5         36.6381  -24.1332    9.4278 H         1 PRO         0.0347
     70 H6         38.8718  -23.1754   11.2424 H         1 PRO         0.0320
     71 H7         38.0637  -22.3264    9.8812 H         1 PRO         0.0320
     72 H8         39.2749  -23.5053    8.2589 H         1 PRO         0.0814
     73 H9         40.4916  -23.4669    9.5799 H         1 PRO         0.0814
     74 H10        35.9755  -28.5383    7.8702 H         1 PRO         0.0802
     75 H11        35.8704  -30.2232    9.5479 H         1 PRO         0.0313
     76 H12        34.1312  -29.7772    9.4927 H         1 PRO         0.0313
     77 H13        35.5774  -29.6440   11.7844 H         1 PRO         0.0287
     78 H14        34.2638  -28.4760   11.4145 H         1 PRO         0.0287
     79 H15        35.8841  -26.8546   11.6233 H         1 PRO         0.0524
     80 H16        37.2171  -28.0515   11.4915 H         1 PRO         0.0524
     81 H17        32.5389  -25.9861    6.8166 H         1 PRO         0.0802
     82 H18        32.0735  -27.2457    4.8966 H         1 PRO         0.0313
     83 H19        30.6579  -27.8225    5.8401 H         1 PRO         0.0313
     84 H20        32.4834  -29.5459    4.8668 H         1 PRO         0.0287
     85 H21        31.7192  -29.8054    6.4716 H         1 PRO         0.0287
     86 H22        33.9662  -29.8523    7.1331 H         1 PRO         0.0524
     87 H23        34.4867  -28.7628    5.8032 H         1 PRO         0.0524
     88 H24        29.7675  -26.0932   10.2859 H         1 PRO         0.0802
     89 H25        28.8279  -24.0214    9.7784 H         1 PRO         0.0313
     90 H26        27.4705  -24.9579    9.0663 H         1 PRO         0.0313
     91 H27        28.9389  -23.2283    7.5860 H         1 PRO         0.0287
     92 H28        28.2949  -24.7551    6.8925 H         1 PRO         0.0287
     93 H29        30.5687  -25.0341    6.3947 H         1 PRO         0.0524
     94 H30        31.1031  -24.1056    7.8365 H         1 PRO         0.0524
     95 H31        27.1040  -29.6653    9.7997 H         1 PRO         0.0802
     96 H32        25.7132  -29.7425   11.7214 H         1 PRO         0.0313
     97 H33        25.1786  -28.0390   11.5238 H         1 PRO         0.0313
     98 H34        27.8247  -29.1053   12.6127 H         1 PRO         0.0287
     99 H35        26.7496  -27.8407   13.2995 H         1 PRO         0.0287
    100 H36        27.4377  -26.2242   11.7361 H         1 PRO         0.0524
    101 H37        28.9476  -27.1920   11.8366 H         1 PRO         0.0524
    102 H38        24.2438  -28.4134    6.6660 H         1 PRO         0.0802
    103 H39        23.8520  -30.6671    6.1344 H         1 PRO         0.0313
    104 H40        22.2516  -30.3680    6.8933 H         1 PRO         0.0313
    105 H41        23.8565  -32.3006    7.8165 H         1 PRO         0.0287
    106 H42        22.9119  -31.2765    8.9503 H         1 PRO         0.0287
    107 H43        25.0620  -30.9466    9.8287 H         1 PRO         0.0524
    108 H44        25.8553  -31.1361    8.2283 H         1 PRO         0.0524
    109 H45        20.9823  -25.9732    8.3768 H         1 PRO         0.0802
    110 H46        19.3814  -25.4814    6.6976 H         1 PRO         0.0313
    111 H47        19.1554  -27.2108    6.2678 H         1 PRO         0.0313
    112 H48        21.4091  -25.3285    5.5486 H         1 PRO         0.0287
    113 H49        20.5037  -26.4764    4.5050 H         1 PRO         0.0287
    114 H50        21.7097  -28.3316    5.2786 H         1 PRO         0.0524
    115 H51        22.9661  -27.0767    5.5490 H         1 PRO         0.0524
    116 H52        19.0985  -28.8721   11.0363 H         1 PRO         0.0802
    117 H53        19.0429  -27.0936   12.6024 H         1 PRO         0.0313
    118 H54        17.2720  -27.2693   12.3578 H         1 PRO         0.0313
    119 H55        18.4595  -24.9142   11.9284 H         1 PRO         0.0287
    120 H56        17.1813  -25.4993   10.8101 H         1 PRO         0.0287
    121 H57        18.8790  -25.1553    9.2343 H         1 PRO         0.0524
    122 H58        20.1876  -25.4353   10.4326 H         1 PRO         0.0524
    123 H59        15.3229  -30.4498    9.3260 H         1 PRO         0.0728
    124 H60        14.2553  -31.8406   10.9065 H         1 PRO         0.0306
    125 H61        14.2260  -30.5584   12.1641 H         1 PRO         0.0306
    126 H62        16.5165  -32.3314   11.2756 H         1 PRO         0.0286
    127 H63        15.9901  -31.8957   12.9368 H         1 PRO         0.0286
    128 H64        17.0143  -29.7891   12.8479 H         1 PRO         0.0524
    129 H65        18.0924  -30.6528   11.6996 H         1 PRO         0.0524
@<TRIPOS>BOND
     1    1    2 1  
     2    1    7 1  
     3    2    3 1  
     4    2    5 1  
     5    3    4 2  
     6    3    8 am 
     7    5    6 1  
     8    6    7 1  
     9    8    9 1  
    10    8   14 1  
    11    9   10 1  
    12    9   12 1  
    13   10   11 2  
    14   10   15 am 
    15   12   13 1  
    16   13   14 1  
    17   15   16 1  
    18   15   21 1  
    19   16   17 1  
    20   16   19 1  
    21   17   18 2  
    22   17   22 am 
    23   19   20 1  
    24   20   21 1  
    25   22   23 1  
    26   22   28 1  
    27   23   24 1  
    28   23   26 1  
    29   24   25 2  
    30   24   29 am 
    31   26   27 1  
    32   27   28 1  
    33   29   30 1  
    34   29   35 1  
    35   30   31 1  
    36   30   33 1  
    37   31   32 2  
    38   31   36 am 
    39   33   34 1  
    40   34   35 1  
    41   36   37 1  
    42   36   42 1  
    43   37   38 1  
    44   37   40 1  
    45   38   39 2  
    46   38   43 am 
    47   40   41 1  
    48   41   42 1  
    49   43   44 1  
    50   43   49 1  
    51   44   45 1  
    52   44   47 1  
    53   45   46 2  
    54   45   50 am 
    55   47   48 1  
    56   48   49 1  
    57   50   51 1  
    58   50   56 1  
    59   51   52 1  
    60   51   54 1  
    61   52   53 2  
    62   52   57 am 
    63   54   55 1  
    64   55   56 1  
    65   57   58 1  
    66   57   63 1  
    67   58   59 1  
    68   58   61 1  
    69   59   60 ar 
    70   59   64 ar 
    71   61   62 1  
    72   62   63 1  
    73    1   65 1  
    74    1   66 1  
    75    2   67 1  
    76    5   68 1  
    77    5   69 1  
    78    6   70 1  
    79    6   71 1  
    80    7   72 1  
    81    7   73 1  
    82    9   74 1  
    83   12   75 1  
    84   12   76 1  
    85   13   77 1  
    86   13   78 1  
    87   14   79 1  
    88   14   80 1  
    89   16   81 1  
    90   19   82 1  
    91   19   83 1  
    92   20   84 1  
    93   20   85 1  
    94   21   86 1  
    95   21   87 1  
    96   23   88 1  
    97   26   89 1  
    98   26   90 1  
    99   27   91 1  
   100   27   92 1  
   101   28   93 1  
   102   28   94 1  
   103   30   95 1  
   104   33   96 1  
   105   33   97 1  
   106   34   98 1  
   107   34   99 1  
   108   35  100 1  
   109   35  101 1  
   110   37  102 1  
   111   40  103 1  
   112   40  104 1  
   113   41  105 1  
   114   41  106 1  
   115   42  107 1  
   116   42  108 1  
   117   44  109 1  
   118   47  110 1  
   119   47  111 1  
   120   48  112 1  
   121   48  113 1  
   122   49  114 1  
   123   49  115 1  
   124   51  116 1  
   125   54  117 1  
   126   54  118 1  
   127   55  119 1  
   128   55  120 1  
   129   56  121 1  
   130   56  122 1  
   131   58  123 1  
   132   61  124 1  
   133   61  125 1  
   134   62  126 1  
   135   62  127 1  
   136   63  128 1  
   137   63  129 1  
@<TRIPOS>SUBSTRUCTURE
     1 PRO         1

