### 
### Created by X-TOOL on Wed Jan  1 15:39:35 2020
### 

@<TRIPOS>MOLECULE
6evn_ligand
  104   108     1     0     0
SMALL
GAST_HUCK


@<TRIPOS>ATOM
      1 N           8.6370  -13.8040  -13.7290 N.4       1 PRO         0.2461
      2 CA          8.8050  -14.4300  -15.0460 C.3       1 PRO         0.0671
      3 C          10.1710  -15.1050  -15.1810 C.2       1 PRO         0.2293
      4 O          11.0300  -14.9020  -14.3200 O.2       1 PRO        -0.3905
      5 CB          8.6670  -13.2500  -16.0160 C.3       1 PRO         0.0127
      6 CG          7.8890  -12.2210  -15.2560 C.3       1 PRO        -0.0053
      7 CD          8.3280  -12.3680  -13.8340 C.3       1 PRO        -0.0313
      8 N          10.3710  -15.8950  -16.2490 N.am      1 PRO        -0.2471
      9 CA         11.6020  -16.6880  -16.3790 C.3       1 PRO         0.1339
     10 C          12.7670  -15.8060  -16.8020 C.2       1 PRO         0.2039
     11 O          12.8150  -15.3140  -17.9330 O.2       1 PRO        -0.3944
     12 CB         11.2340  -17.7080  -17.4670 C.3       1 PRO        -0.0104
     13 CG         10.2890  -16.9590  -18.3530 C.3       1 PRO        -0.0281
     14 CD          9.5240  -15.9990  -17.4540 C.3       1 PRO         0.0371
     15 N          13.7150  -15.6030  -15.8870 N.am      1 GLY        -0.2664
     16 CA         14.8560  -14.7700  -16.1860 C.3       1 GLY         0.1203
     17 C          15.9070  -14.7120  -15.0970 C.2       1 GLY         0.2032
     18 O          15.7620  -15.2790  -14.0140 O.2       1 GLY        -0.3945
     19 N          17.0030  -14.0270  -15.3840 N.am      1 PRO        -0.2501
     20 CA         18.0470  -13.8410  -14.3800 C.3       1 PRO         0.1338
     21 C          17.6360  -12.7740  -13.3850 C.2       1 PRO         0.2041
     22 O          16.6410  -12.0660  -13.5400 O.2       1 PRO        -0.3944
     23 CB         19.2360  -13.3700  -15.2090 C.3       1 PRO        -0.0104
     24 CG         18.5920  -12.5980  -16.3270 C.3       1 PRO        -0.0281
     25 CD         17.3370  -13.3620  -16.6500 C.3       1 PRO         0.0369
     26 N          18.4390  -12.6600  -12.3430 N.am      1 ALA        -0.2640
     27 CA         18.2200  -11.6360  -11.3480 C.3       1 ALA         0.1282
     28 C          19.5470  -10.9770  -11.0320 C.2       1 ALA         0.2034
     29 O          20.5340  -11.6660  -10.7540 O.2       1 ALA        -0.3944
     30 CB         17.6140  -12.2530  -10.0900 C.3       1 ALA        -0.0244
     31 N          19.5630   -9.6470  -11.0610 N.am      1 GLY        -0.2664
     32 CA         20.7470   -8.9000  -10.7330 C.3       1 GLY         0.1203
     33 C          20.7930   -8.5670   -9.2520 C.2       1 GLY         0.2032
     34 O          19.9080   -8.9540   -8.4790 O.2       1 GLY        -0.3945
     35 N          21.8060   -7.8170   -8.8370 N.am      1 PRO        -0.2501
     36 CA         21.8870   -7.3770   -7.4500 C.3       1 PRO         0.1340
     37 C          20.6360   -6.6180   -7.0520 C.2       1 PRO         0.2066
     38 O          20.0690   -5.8480   -7.8480 O.2       1 PRO        -0.3942
     39 CB         23.1210   -6.4530   -7.4450 C.3       1 PRO        -0.0104
     40 CG         23.9630   -6.9780   -8.5590 C.3       1 PRO        -0.0281
     41 CD         23.0050   -7.4360   -9.6080 C.3       1 PRO         0.0369
     42 N          20.1730   -6.8090   -5.8160 N.am      1 PRO        -0.2498
     43 CA         18.9900   -6.0750   -5.3580 C.3       1 PRO         0.1337
     44 C          19.1910   -4.5770   -5.3210 C.2       1 PRO         0.2033
     45 O          18.2060   -3.8330   -5.4030 O.2       1 PRO        -0.3944
     46 CB         18.7590   -6.6420   -3.9480 C.3       1 PRO        -0.0104
     47 CG         19.3820   -8.0020   -3.9820 C.3       1 PRO        -0.0281
     48 CD         20.5860   -7.8560   -4.8660 C.3       1 PRO         0.0369
     49 N          20.4310   -4.1130   -5.2110 N.am      1 GLY        -0.2722
     50 CA         20.7280   -2.7010   -5.0990 C.3       1 GLY         0.0833
     51 C          22.2240   -2.5130   -5.2150 C.2       1 GLY         0.0570
     52 O          22.9080   -3.4540   -5.6120 O.co2     1 GLY        -0.5669
     53 OXT        22.7880   -1.4650   -4.8950 O.co2     1 GLY        -0.5669
     54 H1          9.4908  -13.9153  -13.2048 H         1 PRO         0.2035
     55 H2          7.8826  -14.2642  -13.2441 H         1 PRO         0.2035
     56 H3          8.0163  -15.1756  -15.2250 H         1 PRO         0.1099
     57 H4          8.1241  -13.5549  -16.9228 H         1 PRO         0.0347
     58 H5          9.6568  -12.8596  -16.2951 H         1 PRO         0.0347
     59 H6          6.8090  -12.4088  -15.3475 H         1 PRO         0.0320
     60 H7          8.1185  -11.2116  -15.6280 H         1 PRO         0.0320
     61 H8          9.2190  -11.7560  -13.6302 H         1 PRO         0.0814
     62 H9          7.5224  -12.0853  -13.1404 H         1 PRO         0.0814
     63 H10        11.8509  -17.1934  -15.4342 H         1 PRO         0.0802
     64 H11        10.7442  -18.5897  -17.0281 H         1 PRO         0.0313
     65 H12        12.1271  -18.0247  -18.0255 H         1 PRO         0.0313
     66 H13         9.5938  -17.6565  -18.8431 H         1 PRO         0.0287
     67 H14        10.8476  -16.3998  -19.1181 H         1 PRO         0.0287
     68 H15         9.4079  -15.0178  -17.9374 H         1 PRO         0.0524
     69 H16         8.5325  -16.4035  -17.2025 H         1 PRO         0.0524
     70 H17        13.6354  -16.0309  -14.9867 H         1 GLY         0.1881
     71 H18        14.4942  -13.7470  -16.3663 H         1 GLY         0.0763
     72 H19        15.3315  -15.1570  -17.0993 H         1 GLY         0.0763
     73 H20        18.2711  -14.7801  -13.8528 H         1 PRO         0.0802
     74 H21        19.8084  -14.2247  -15.5987 H         1 PRO         0.0313
     75 H22        19.8997  -12.7243  -14.6152 H         1 PRO         0.0313
     76 H23        19.2566  -12.5572  -17.2025 H         1 PRO         0.0287
     77 H24        18.3500  -11.5753  -16.0023 H         1 PRO         0.0287
     78 H25        16.5312  -12.6806  -16.9604 H         1 PRO         0.0524
     79 H26        17.5199  -14.0998  -17.4451 H         1 PRO         0.0524
     80 H27        19.2085  -13.2905  -12.2414 H         1 ALA         0.1883
     81 H28        17.5259  -10.8816  -11.7469 H         1 ALA         0.0797
     82 H29        17.4507  -11.4668   -9.3382 H         1 ALA         0.0277
     83 H30        18.3015  -13.0102   -9.6852 H         1 ALA         0.0277
     84 H31        16.6531  -12.7264  -10.3401 H         1 ALA         0.0277
     85 H32        18.7311   -9.1547  -11.3172 H         1 GLY         0.1881
     86 H33        20.7529   -7.9644  -11.3115 H         1 GLY         0.0763
     87 H34        21.6325   -9.4981  -10.9940 H         1 GLY         0.0763
     88 H35        22.0306   -8.2309   -6.7716 H         1 PRO         0.0802
     89 H36        23.6554   -6.5180   -6.4857 H         1 PRO         0.0313
     90 H37        22.8296   -5.4090   -7.6325 H         1 PRO         0.0313
     91 H38        24.5802   -7.8189   -8.2099 H         1 PRO         0.0287
     92 H39        24.6142   -6.1845   -8.9544 H         1 PRO         0.0287
     93 H40        22.7769   -6.6237  -10.3137 H         1 PRO         0.0524
     94 H41        23.4083   -8.2982  -10.1593 H         1 PRO         0.0524
     95 H42        18.1314   -6.2962   -6.0090 H         1 PRO         0.0802
     96 H43        17.6833   -6.7129   -3.7293 H         1 PRO         0.0313
     97 H44        19.2463   -6.0104   -3.1907 H         1 PRO         0.0313
     98 H45        18.6809   -8.7380   -4.4023 H         1 PRO         0.0287
     99 H46        19.6806   -8.3158   -2.9709 H         1 PRO         0.0287
    100 H47        21.4660   -7.5397   -4.2867 H         1 PRO         0.0524
    101 H48        20.8099   -8.7979   -5.3881 H         1 PRO         0.0524
    102 H49        21.1891   -4.7651   -5.2054 H         1 GLY         0.1873
    103 H50        20.3816   -2.3254   -4.1249 H         1 GLY         0.0689
    104 H51        20.2216   -2.1505   -5.9055 H         1 GLY         0.0689
@<TRIPOS>BOND
     1    1    2 1  
     2    1    7 1  
     3    2    3 1  
     4    2    5 1  
     5    3    4 2  
     6    3    8 am 
     7    5    6 1  
     8    6    7 1  
     9    8    9 1  
    10    8   14 1  
    11    9   10 1  
    12    9   12 1  
    13   10   11 2  
    14   10   15 am 
    15   12   13 1  
    16   13   14 1  
    17   15   16 1  
    18   16   17 1  
    19   17   18 2  
    20   17   19 am 
    21   19   20 1  
    22   19   25 1  
    23   20   21 1  
    24   20   23 1  
    25   21   22 2  
    26   21   26 am 
    27   23   24 1  
    28   24   25 1  
    29   26   27 1  
    30   27   28 1  
    31   27   30 1  
    32   28   29 2  
    33   28   31 am 
    34   31   32 1  
    35   32   33 1  
    36   33   34 2  
    37   33   35 am 
    38   35   36 1  
    39   35   41 1  
    40   36   37 1  
    41   36   39 1  
    42   37   38 2  
    43   37   42 am 
    44   39   40 1  
    45   40   41 1  
    46   42   43 1  
    47   42   48 1  
    48   43   44 1  
    49   43   46 1  
    50   44   45 2  
    51   44   49 am 
    52   46   47 1  
    53   47   48 1  
    54   49   50 1  
    55   50   51 1  
    56   51   52 ar 
    57   51   53 ar 
    58    1   54 1  
    59    1   55 1  
    60    2   56 1  
    61    5   57 1  
    62    5   58 1  
    63    6   59 1  
    64    6   60 1  
    65    7   61 1  
    66    7   62 1  
    67    9   63 1  
    68   12   64 1  
    69   12   65 1  
    70   13   66 1  
    71   13   67 1  
    72   14   68 1  
    73   14   69 1  
    74   15   70 1  
    75   16   71 1  
    76   16   72 1  
    77   20   73 1  
    78   23   74 1  
    79   23   75 1  
    80   24   76 1  
    81   24   77 1  
    82   25   78 1  
    83   25   79 1  
    84   26   80 1  
    85   27   81 1  
    86   30   82 1  
    87   30   83 1  
    88   30   84 1  
    89   31   85 1  
    90   32   86 1  
    91   32   87 1  
    92   36   88 1  
    93   39   89 1  
    94   39   90 1  
    95   40   91 1  
    96   40   92 1  
    97   41   93 1  
    98   41   94 1  
    99   43   95 1  
   100   46   96 1  
   101   46   97 1  
   102   47   98 1  
   103   47   99 1  
   104   48  100 1  
   105   48  101 1  
   106   49  102 1  
   107   50  103 1  
   108   50  104 1  
@<TRIPOS>SUBSTRUCTURE
     1 PRO         1

