### 
### Created by X-TOOL on Wed Jan  1 15:39:35 2020
### 

@<TRIPOS>MOLECULE
6evo_ligand
  118   122     1     0     0
SMALL
GAST_HUCK


@<TRIPOS>ATOM
      1 N          -8.9600   13.8960  -13.7410 N.4       1 PRO         0.2461
      2 CA         -9.1320   14.6960  -14.9590 C.3       1 PRO         0.0671
      3 C         -10.4680   15.4360  -14.9930 C.2       1 PRO         0.2293
      4 O         -11.2800   15.2550  -14.0800 O.2       1 PRO        -0.3905
      5 CB         -9.0600   13.6520  -16.0810 C.3       1 PRO         0.0127
      6 CG         -8.2630   12.5370  -15.5150 C.3       1 PRO        -0.0053
      7 CD         -8.5700   12.5060  -14.0410 C.3       1 PRO        -0.0313
      8 N         -10.6960   16.2470  -16.0300 N.am      1 PRO        -0.2471
      9 CA        -11.9810   16.9500  -16.1500 C.3       1 PRO         0.1339
     10 C         -13.0680   15.9830  -16.5950 C.2       1 PRO         0.2039
     11 O         -12.9640   15.3660  -17.6590 O.2       1 PRO        -0.3944
     12 CB        -11.7070   18.0260  -17.2120 C.3       1 PRO        -0.0104
     13 CG        -10.3360   17.7230  -17.7920 C.3       1 PRO        -0.0281
     14 CD         -9.8700   16.4140  -17.2370 C.3       1 PRO         0.0371
     15 N         -14.1100   15.8430  -15.7770 N.am      1 GLY        -0.2664
     16 CA        -15.1790   14.9350  -16.1090 C.3       1 GLY         0.1203
     17 C         -16.2550   14.8470  -15.0510 C.2       1 GLY         0.2032
     18 O         -16.1530   15.4240  -13.9660 O.2       1 GLY        -0.3945
     19 N         -17.3200   14.1250  -15.3650 N.am      1 PRO        -0.2501
     20 CA        -18.3690   13.8890  -14.3750 C.3       1 PRO         0.1338
     21 C         -17.9310   12.8680  -13.3470 C.2       1 PRO         0.2041
     22 O         -16.9820   12.1050  -13.5380 O.2       1 PRO        -0.3944
     23 CB        -19.5260   13.3500  -15.2140 C.3       1 PRO        -0.0104
     24 CG        -18.8020   12.5600  -16.2930 C.3       1 PRO        -0.0281
     25 CD        -17.5740   13.3860  -16.6110 C.3       1 PRO         0.0369
     26 N         -18.6650   12.8520  -12.2380 N.am      1 ARG        -0.2637
     27 CA        -18.4540   11.8630  -11.2030 C.3       1 ARG         0.1311
     28 C         -19.7640   11.1560  -10.9200 C.2       1 ARG         0.2037
     29 O         -20.7790   11.8080  -10.6510 O.2       1 ARG        -0.3944
     30 CB        -17.9120   12.5200   -9.9390 C.3       1 ARG        -0.0092
     31 CG        -16.5310   13.1300  -10.1520 C.3       1 ARG        -0.0156
     32 CD        -15.9680   13.7540   -8.8750 C.3       1 ARG         0.0627
     33 NE        -16.8220   14.8360   -8.3830 N.pl3     1 ARG        -0.2723
     34 CZ        -17.3990   14.8790   -7.1820 C.cat     1 ARG         0.2882
     35 NH1       -17.2180   13.9060   -6.2920 N.pl3     1 ARG        -0.2849
     36 NH2       -18.1580   15.9200   -6.8640 N.pl3     1 ARG        -0.2849
     37 N         -19.7230    9.8260  -10.9360 N.am      1 GLY        -0.2664
     38 CA        -20.8970    9.0340  -10.6690 C.3       1 GLY         0.1203
     39 C         -20.9840    8.6850   -9.2000 C.2       1 GLY         0.2032
     40 O         -20.1430    9.0950   -8.3920 O.2       1 GLY        -0.3945
     41 N         -21.9940    7.9050   -8.8360 N.am      1 PRO        -0.2501
     42 CA        -22.1240    7.4330   -7.4600 C.3       1 PRO         0.1340
     43 C         -20.8720    6.6970   -7.0200 C.2       1 PRO         0.2066
     44 O         -20.2610    5.9590   -7.8060 O.2       1 PRO        -0.3942
     45 CB        -23.3440    6.4930   -7.5250 C.3       1 PRO        -0.0104
     46 CG        -24.1490    7.0300   -8.6830 C.3       1 PRO        -0.0281
     47 CD        -23.1820    7.5830   -9.6600 C.3       1 PRO         0.0369
     48 N         -20.4400    6.9020   -5.7720 N.am      1 PRO        -0.2498
     49 CA        -19.2520    6.1940   -5.2790 C.3       1 PRO         0.1337
     50 C         -19.4280    4.6920   -5.2120 C.2       1 PRO         0.2033
     51 O         -18.4280    3.9680   -5.1950 O.2       1 PRO        -0.3944
     52 CB        -19.0520    6.7900   -3.8780 C.3       1 PRO        -0.0104
     53 CG        -19.6960    8.1420   -3.9480 C.3       1 PRO        -0.0281
     54 CD        -20.8970    7.9430   -4.8300 C.3       1 PRO         0.0369
     55 N         -20.6600    4.2030   -5.1540 N.am      1 GLY        -0.2722
     56 CA        -20.9270    2.7810   -5.0640 C.3       1 GLY         0.0833
     57 C         -22.4200    2.5800   -5.2120 C.2       1 GLY         0.0570
     58 O         -22.9820    1.5070   -4.9940 O.co2     1 GLY        -0.5669
     59 OXT       -23.1060    3.5450   -5.5400 O.co2     1 GLY        -0.5669
     60 H1         -9.8303   13.8868  -13.2325 H         1 PRO         0.2035
     61 H2         -8.2431   14.3192  -13.1726 H         1 PRO         0.2035
     62 H3         -8.3164   15.4279  -15.0546 H         1 PRO         0.1099
     63 H4         -8.5631   14.0712  -16.9683 H         1 PRO         0.0347
     64 H5        -10.0683   13.3072  -16.3540 H         1 PRO         0.0347
     65 H6         -7.1897   12.7150  -15.6771 H         1 PRO         0.0320
     66 H7         -8.5519   11.5852  -15.9846 H         1 PRO         0.0320
     67 H8         -9.3950   11.8110  -13.8259 H         1 PRO         0.0814
     68 H9         -7.6827   12.2127  -13.4608 H         1 PRO         0.0814
     69 H10       -12.2701   17.4112  -15.1941 H         1 PRO         0.0802
     70 H11       -11.7118   19.0246  -16.7508 H         1 PRO         0.0313
     71 H12       -12.4713   17.9832  -18.0019 H         1 PRO         0.0313
     72 H13        -9.6296   18.5183  -17.5120 H         1 PRO         0.0287
     73 H14       -10.4015   17.6600  -18.8882 H         1 PRO         0.0287
     74 H15       -10.0468   15.5971  -17.9521 H         1 PRO         0.0524
     75 H16        -8.8009   16.4523  -16.9811 H         1 PRO         0.0524
     76 H17       -14.1508   16.3705  -14.9284 H         1 GLY         0.1881
     77 H18       -14.7504   13.9321  -16.2520 H         1 GLY         0.0763
     78 H19       -15.6424   15.2731  -17.0476 H         1 GLY         0.0763
     79 H20       -18.6499   14.8238  -13.8678 H         1 PRO         0.0802
     80 H21       -20.1181   14.1686  -15.6490 H         1 PRO         0.0313
     81 H22       -20.1823   12.6999  -14.6168 H         1 PRO         0.0313
     82 H23       -19.4366   12.4484  -17.1845 H         1 PRO         0.0287
     83 H24       -18.5153   11.5656  -15.9201 H         1 PRO         0.0287
     84 H25       -16.7210   12.7394  -16.8646 H         1 PRO         0.0524
     85 H26       -17.7708   14.0770  -17.4440 H         1 PRO         0.0524
     86 H27       -19.3802   13.5403  -12.1165 H         1 ARG         0.1883
     87 H28       -17.7197   11.1250  -11.5581 H         1 ARG         0.0800
     88 H29       -17.8450   11.7605   -9.1461 H         1 ARG         0.0313
     89 H30       -18.6058   13.3148   -9.6278 H         1 ARG         0.0313
     90 H31       -16.6043   13.9101  -10.9241 H         1 ARG         0.0301
     91 H32       -15.8445   12.3407  -10.4922 H         1 ARG         0.0301
     92 H33       -14.9666   14.1574   -9.0861 H         1 ARG         0.0689
     93 H34       -15.8944   12.9768   -8.1001 H         1 ARG         0.0689
     94 H35       -16.9912   15.6299   -9.0171 H         1 ARG         0.2642
     95 H36       -17.6738   13.9601   -5.3699 H         1 ARG         0.2615
     96 H37       -16.6221   13.0989   -6.5254 H         1 ARG         0.2615
     97 H38       -18.3042   16.6781   -7.5457 H         1 ARG         0.2615
     98 H39       -18.6009   15.9699   -5.9354 H         1 ARG         0.2615
     99 H40       -18.8584    9.3659  -11.1378 H         1 GLY         0.1881
    100 H41       -20.8484    8.1064  -11.2582 H         1 GLY         0.0763
    101 H42       -21.7914    9.6054  -10.9579 H         1 GLY         0.0763
    102 H43       -22.3130    8.2709   -6.7728 H         1 PRO         0.0802
    103 H44       -23.9232    6.5371   -6.5909 H         1 PRO         0.0313
    104 H45       -23.0302    5.4557   -7.7132 H         1 PRO         0.0313
    105 H46       -24.8300    7.8210   -8.3357 H         1 PRO         0.0287
    106 H47       -24.7328    6.2205   -9.1455 H         1 PRO         0.0287
    107 H48       -22.9344    6.8384  -10.4309 H         1 PRO         0.0524
    108 H49       -23.5834    8.4879  -10.1397 H         1 PRO         0.0524
    109 H50       -18.3867    6.4158   -5.9209 H         1 PRO         0.0802
    110 H51       -17.9811    6.8815   -3.6439 H         1 PRO         0.0313
    111 H52       -19.5418    6.1654   -3.1165 H         1 PRO         0.0313
    112 H53       -19.0077    8.8780   -4.3891 H         1 PRO         0.0287
    113 H54       -20.0011    8.4795   -2.9465 H         1 PRO         0.0287
    114 H55       -21.7638    7.5977   -4.2475 H         1 PRO         0.0524
    115 H56       -21.1576    8.8708   -5.3603 H         1 PRO         0.0524
    116 H57       -21.4321    4.8382   -5.1731 H         1 GLY         0.1873
    117 H58       -20.5930    2.3986   -4.0882 H         1 GLY         0.0689
    118 H59       -20.3965    2.2491   -5.8675 H         1 GLY         0.0689
@<TRIPOS>BOND
     1    1    2 1  
     2    1    7 1  
     3    2    3 1  
     4    2    5 1  
     5    3    4 2  
     6    3    8 am 
     7    5    6 1  
     8    6    7 1  
     9    8    9 1  
    10    8   14 1  
    11    9   10 1  
    12    9   12 1  
    13   10   11 2  
    14   10   15 am 
    15   12   13 1  
    16   13   14 1  
    17   15   16 1  
    18   16   17 1  
    19   17   18 2  
    20   17   19 am 
    21   19   20 1  
    22   19   25 1  
    23   20   21 1  
    24   20   23 1  
    25   21   22 2  
    26   21   26 am 
    27   23   24 1  
    28   24   25 1  
    29   26   27 1  
    30   27   28 1  
    31   27   30 1  
    32   28   29 2  
    33   28   37 am 
    34   30   31 1  
    35   31   32 1  
    36   32   33 1  
    37   33   34 ar 
    38   34   35 ar 
    39   34   36 ar 
    40   37   38 1  
    41   38   39 1  
    42   39   40 2  
    43   39   41 am 
    44   41   42 1  
    45   41   47 1  
    46   42   43 1  
    47   42   45 1  
    48   43   44 2  
    49   43   48 am 
    50   45   46 1  
    51   46   47 1  
    52   48   49 1  
    53   48   54 1  
    54   49   50 1  
    55   49   52 1  
    56   50   51 2  
    57   50   55 am 
    58   52   53 1  
    59   53   54 1  
    60   55   56 1  
    61   56   57 1  
    62   57   58 ar 
    63   57   59 ar 
    64    1   60 1  
    65    1   61 1  
    66    2   62 1  
    67    5   63 1  
    68    5   64 1  
    69    6   65 1  
    70    6   66 1  
    71    7   67 1  
    72    7   68 1  
    73    9   69 1  
    74   12   70 1  
    75   12   71 1  
    76   13   72 1  
    77   13   73 1  
    78   14   74 1  
    79   14   75 1  
    80   15   76 1  
    81   16   77 1  
    82   16   78 1  
    83   20   79 1  
    84   23   80 1  
    85   23   81 1  
    86   24   82 1  
    87   24   83 1  
    88   25   84 1  
    89   25   85 1  
    90   26   86 1  
    91   27   87 1  
    92   30   88 1  
    93   30   89 1  
    94   31   90 1  
    95   31   91 1  
    96   32   92 1  
    97   32   93 1  
    98   33   94 1  
    99   35   95 1  
   100   35   96 1  
   101   36   97 1  
   102   36   98 1  
   103   37   99 1  
   104   38  100 1  
   105   38  101 1  
   106   42  102 1  
   107   45  103 1  
   108   45  104 1  
   109   46  105 1  
   110   46  106 1  
   111   47  107 1  
   112   47  108 1  
   113   49  109 1  
   114   52  110 1  
   115   52  111 1  
   116   53  112 1  
   117   53  113 1  
   118   54  114 1  
   119   54  115 1  
   120   55  116 1  
   121   56  117 1  
   122   56  118 1  
@<TRIPOS>SUBSTRUCTURE
     1 PRO         1

