### 
### Created by X-TOOL on Wed Jan  1 15:39:36 2020
### 

@<TRIPOS>MOLECULE
6evp_ligand
   95    98     1     0     0
SMALL
GAST_HUCK


@<TRIPOS>ATOM
      1 N         -11.7200   17.9310  -17.3530 N.4       1 PRO         0.2461
      2 CA        -12.5370   16.8730  -16.7480 C.3       1 PRO         0.0669
      3 C         -13.3570   17.3760  -15.5600 C.2       1 PRO         0.2266
      4 O         -12.9580   18.3580  -14.9280 O.2       1 PRO        -0.3907
      5 CB        -11.4960   15.8450  -16.3070 C.3       1 PRO         0.0127
      6 CG        -10.3980   15.9940  -17.3180 C.3       1 PRO        -0.0053
      7 CD        -10.3650   17.4610  -17.6880 C.3       1 PRO        -0.0313
      8 N         -14.4770   16.7270  -15.2480 N.am      1 GLY        -0.2637
      9 CA        -14.9530   15.5200  -15.9110 C.3       1 GLY         0.1204
     10 C         -16.0420   15.0020  -14.9930 C.2       1 GLY         0.2032
     11 O         -15.9230   15.1990  -13.7980 O.2       1 GLY        -0.3945
     12 N         -17.0950   14.3750  -15.5250 N.am      1 PRO        -0.2501
     13 CA        -18.2230   13.9830  -14.6640 C.3       1 PRO         0.1338
     14 C         -17.8310   12.9030  -13.6730 C.2       1 PRO         0.2041
     15 O         -16.9340   12.0940  -13.9220 O.2       1 PRO        -0.3944
     16 CB        -19.2640   13.4620  -15.6570 C.3       1 PRO        -0.0104
     17 CG        -18.4440   12.9690  -16.7850 C.3       1 PRO        -0.0281
     18 CD        -17.2900   13.9190  -16.9130 C.3       1 PRO         0.0369
     19 N         -18.5210   12.8930  -12.5270 N.am      1 GLU        -0.2636
     20 CA        -18.2640   11.9220  -11.4720 C.3       1 GLU         0.1325
     21 C         -19.5580   11.2000  -11.1290 C.2       1 GLU         0.2038
     22 O         -20.5730   11.8380  -10.8300 O.2       1 GLU        -0.3944
     23 CB        -17.6860   12.5900  -10.2140 C.3       1 GLU        -0.0008
     24 CG        -17.1840   11.5890   -9.1690 C.3       1 GLU         0.0044
     25 CD        -16.7740   12.2450   -7.8470 C.2       1 GLU         0.0350
     26 OE1       -16.5120   13.4670   -7.8330 O.co2     1 GLU        -0.5690
     27 OE2       -16.7270   11.5380   -6.8160 O.co2     1 GLU        -0.5690
     28 N         -19.5190    9.8730  -11.1690 N.am      1 GLY        -0.2664
     29 CA        -20.6720    9.0660  -10.8360 C.3       1 GLY         0.1203
     30 C         -20.7340    8.6930   -9.3710 C.2       1 GLY         0.2032
     31 O         -19.8750    9.0780   -8.5730 O.2       1 GLY        -0.3945
     32 N         -21.7640    7.9380   -8.9900 N.am      1 PRO        -0.2501
     33 CA        -21.9230    7.5300   -7.5930 C.3       1 PRO         0.1340
     34 C         -20.7150    6.7470   -7.1230 C.2       1 PRO         0.2066
     35 O         -20.1390    5.9560   -7.8900 O.2       1 PRO        -0.3942
     36 CB        -23.1850    6.6490   -7.6090 C.3       1 PRO        -0.0104
     37 CG        -23.9150    7.0200   -8.8690 C.3       1 PRO        -0.0281
     38 CD        -22.8950    7.5220   -9.8380 C.3       1 PRO         0.0369
     39 N         -20.2860    6.9570   -5.8760 N.am      1 PRO        -0.2498
     40 CA        -19.1380    6.1860   -5.3750 C.3       1 PRO         0.1337
     41 C         -19.3630    4.6890   -5.4510 C.2       1 PRO         0.2033
     42 O         -18.4970    3.9530   -5.9380 O.2       1 PRO        -0.3944
     43 CB        -19.0000    6.6860   -3.9300 C.3       1 PRO        -0.0104
     44 CG        -19.5830    8.0630   -3.9490 C.3       1 PRO        -0.0281
     45 CD        -20.7320    7.9790   -4.9090 C.3       1 PRO         0.0369
     46 N         -20.5180    4.2190   -5.0020 N.am      1 GLY        -0.2722
     47 CA        -20.8420    2.8080   -5.0730 C.3       1 GLY         0.0833
     48 C         -22.3290    2.6170   -5.2940 C.2       1 GLY         0.0570
     49 O         -22.8980    1.5310   -5.1150 O.co2     1 GLY        -0.5669
     50 OXT       -23.0070    3.5820   -5.6440 O.co2     1 GLY        -0.5669
     51 H1        -11.6466   18.6973  -16.7023 H         1 PRO         0.2035
     52 H2        -12.1717   18.2484  -18.1964 H         1 PRO         0.2035
     53 H3        -13.2200   16.4402  -17.4938 H         1 PRO         0.1099
     54 H4        -11.9148   14.8281  -16.3299 H         1 PRO         0.0347
     55 H5        -11.1293   16.0678  -15.2941 H         1 PRO         0.0347
     56 H6        -10.6109   15.3810  -18.2061 H         1 PRO         0.0320
     57 H7         -9.4348   15.6881  -16.8836 H         1 PRO         0.0320
     58 H8         -9.6061   17.9977  -17.0998 H         1 PRO         0.0814
     59 H9        -10.1576   17.5913  -18.7604 H         1 PRO         0.0814
     60 H10       -15.0330   17.0955  -14.5030 H         1 GLY         0.1882
     61 H11       -14.1424   14.7831  -16.0105 H         1 GLY         0.0763
     62 H12       -15.3594   15.7548  -16.9058 H         1 GLY         0.0763
     63 H13       -18.6099   14.8533  -14.1137 H         1 PRO         0.0802
     64 H14       -19.9364   14.2694  -15.9825 H         1 PRO         0.0313
     65 H15       -19.8563   12.6472  -15.2152 H         1 PRO         0.0313
     66 H16       -19.0362   12.9620  -17.7120 H         1 PRO         0.0287
     67 H17       -18.0792   11.9527  -16.5752 H         1 PRO         0.0287
     68 H18       -16.3937   13.4064  -17.2924 H         1 PRO         0.0524
     69 H19       -17.5397   14.7603  -17.5762 H         1 PRO         0.0524
     70 H20       -19.2384   13.5760  -12.3898 H         1 GLU         0.1883
     71 H21       -17.5335   11.1877  -11.8423 H         1 GLU         0.0801
     72 H22       -18.4718   13.2081   -9.7552 H         1 GLU         0.0330
     73 H23       -16.8443   13.2310  -10.5152 H         1 GLU         0.0330
     74 H24       -16.3115   11.0616   -9.5820 H         1 GLU         0.0433
     75 H25       -17.9870   10.8655   -8.9650 H         1 GLU         0.0433
     76 H26       -18.6690    9.4194  -11.4367 H         1 GLY         0.1881
     77 H27       -20.6357    8.1416  -11.4311 H         1 GLY         0.0763
     78 H28       -21.5803    9.6313  -11.0918 H         1 GLY         0.0763
     79 H29       -22.0667    8.4056   -6.9429 H         1 PRO         0.0802
     80 H30       -23.8097    6.8554   -6.7274 H         1 PRO         0.0313
     81 H31       -22.9106    5.5839   -7.6227 H         1 PRO         0.0313
     82 H32       -24.6544    7.8068   -8.6586 H         1 PRO         0.0287
     83 H33       -24.4257    6.1379   -9.2825 H         1 PRO         0.0287
     84 H34       -22.5900    6.7244  -10.5313 H         1 PRO         0.0524
     85 H35       -23.2877    8.3752  -10.4106 H         1 PRO         0.0524
     86 H36       -18.2337    6.4304   -5.9516 H         1 PRO         0.0802
     87 H37       -17.9424    6.7164   -3.6291 H         1 PRO         0.0313
     88 H38       -19.5591    6.0373   -3.2397 H         1 PRO         0.0313
     89 H39       -18.8390    8.7941   -4.2982 H         1 PRO         0.0287
     90 H40       -19.9354    8.3485   -2.9469 H         1 PRO         0.0287
     91 H41       -21.6525    7.6627   -4.3965 H         1 PRO         0.0524
     92 H42       -20.9026    8.9453   -5.4061 H         1 PRO         0.0524
     93 H43       -21.1817    4.8529   -4.6048 H         1 GLY         0.1873
     94 H44       -20.5504    2.3214   -4.1305 H         1 GLY         0.0689
     95 H45       -20.2901    2.3511   -5.9076 H         1 GLY         0.0689
@<TRIPOS>BOND
     1    1    2 1  
     2    1    7 1  
     3    2    3 1  
     4    2    5 1  
     5    3    4 2  
     6    3    8 am 
     7    5    6 1  
     8    6    7 1  
     9    8    9 1  
    10    9   10 1  
    11   10   11 2  
    12   10   12 am 
    13   12   13 1  
    14   12   18 1  
    15   13   14 1  
    16   13   16 1  
    17   14   15 2  
    18   14   19 am 
    19   16   17 1  
    20   17   18 1  
    21   19   20 1  
    22   20   21 1  
    23   20   23 1  
    24   21   22 2  
    25   21   28 am 
    26   23   24 1  
    27   24   25 1  
    28   25   26 ar 
    29   25   27 ar 
    30   28   29 1  
    31   29   30 1  
    32   30   31 2  
    33   30   32 am 
    34   32   33 1  
    35   32   38 1  
    36   33   34 1  
    37   33   36 1  
    38   34   35 2  
    39   34   39 am 
    40   36   37 1  
    41   37   38 1  
    42   39   40 1  
    43   39   45 1  
    44   40   41 1  
    45   40   43 1  
    46   41   42 2  
    47   41   46 am 
    48   43   44 1  
    49   44   45 1  
    50   46   47 1  
    51   47   48 1  
    52   48   49 ar 
    53   48   50 ar 
    54    1   51 1  
    55    1   52 1  
    56    2   53 1  
    57    5   54 1  
    58    5   55 1  
    59    6   56 1  
    60    6   57 1  
    61    7   58 1  
    62    7   59 1  
    63    8   60 1  
    64    9   61 1  
    65    9   62 1  
    66   13   63 1  
    67   16   64 1  
    68   16   65 1  
    69   17   66 1  
    70   17   67 1  
    71   18   68 1  
    72   18   69 1  
    73   19   70 1  
    74   20   71 1  
    75   23   72 1  
    76   23   73 1  
    77   24   74 1  
    78   24   75 1  
    79   28   76 1  
    80   29   77 1  
    81   29   78 1  
    82   33   79 1  
    83   36   80 1  
    84   36   81 1  
    85   37   82 1  
    86   37   83 1  
    87   38   84 1  
    88   38   85 1  
    89   40   86 1  
    90   43   87 1  
    91   43   88 1  
    92   44   89 1  
    93   44   90 1  
    94   45   91 1  
    95   45   92 1  
    96   46   93 1  
    97   47   94 1  
    98   47   95 1  
@<TRIPOS>SUBSTRUCTURE
     1 PRO         1

