### 
### Created by X-TOOL on Wed Jan  1 15:39:38 2020
### 

@<TRIPOS>MOLECULE
6evq_ligand
   41    43     1     0     0
SMALL
GAST_HUCK


@<TRIPOS>ATOM
      1 N           2.7680   -1.9870  -11.3690 N.2       1 C05        -0.0694
      2 S           4.1870   -4.6870   -9.0040 S.3       1 C05        -0.0075
      3 O1         -0.3070   -8.7650  -10.3670 O.3       1 C05        -0.2668
      4 C           3.2840   -3.7070  -10.1280 C.2       1 C05         0.2320
      5 O           3.1840   -7.5110   -8.9690 O.2       1 C05        -0.3955
      6 C1          4.7790   -1.6250   -9.9250 C.3       1 C05         0.0942
      7 N1          1.8760   -3.0050  -11.5400 N.2       1 C05        -0.1523
      8 C2          4.5530   -1.1700   -8.4530 C.3       1 C05        -0.0195
      9 N2          2.2160   -4.1060  -10.7310 N.2       1 C05        -0.2121
     10 C3          5.7300   -1.6910   -7.6260 C.3       1 C05        -0.0500
     11 N3          3.6390   -2.4580  -10.4450 N.pl3     1 C05        -0.1247
     12 C4          6.8170   -2.0900   -8.6060 C.3       1 C05        -0.0500
     13 N4          1.1790   -7.0670   -8.0590 N.am      1 C05        -0.2718
     14 C5          6.1330   -2.3440   -9.9570 C.3       1 C05        -0.0195
     15 C6          2.8480   -5.3550   -7.9760 C.3       1 C05         0.1136
     16 C7          2.4410   -6.7400   -8.3880 C.2       1 C05         0.1939
     17 C8          3.2460   -5.3880   -6.5180 C.3       1 C05        -0.0331
     18 C9          0.6810   -8.4290   -8.0690 C.3       1 C05         0.0941
     19 C10        -0.4860   -8.5470   -8.9940 C.2       1 C05         0.1172
     20 C11        -1.7790   -8.4530   -8.5990 C.2       1 C05        -0.0686
     21 C12        -2.5420   -8.6190   -9.7390 C.2       1 C05        -0.0808
     22 C13        -1.6650   -8.7990  -10.7680 C.2       1 C05         0.0669
     23 H1          4.8468   -0.7313  -10.5627 H         1 C05         0.0683
     24 H2          3.6105   -1.5890   -8.0707 H         1 C05         0.0297
     25 H3          4.5140   -0.0719   -8.4009 H         1 C05         0.0297
     26 H4          5.4181   -2.5627   -7.0320 H         1 C05         0.0266
     27 H5          6.0983   -0.9020   -6.9538 H         1 C05         0.0266
     28 H6          7.3205   -3.0047   -8.2598 H         1 C05         0.0266
     29 H7          7.5545   -1.2796   -8.7026 H         1 C05         0.0266
     30 H8          0.5523   -6.3342   -7.7941 H         1 C05         0.1880
     31 H9          6.7523   -1.9442  -10.7735 H         1 C05         0.0297
     32 H10         5.9826   -3.4235  -10.1056 H         1 C05         0.0297
     33 H11         1.9772   -4.6921   -8.0867 H         1 C05         0.0684
     34 H12         2.4173   -5.7963   -5.9209 H         1 C05         0.0267
     35 H13         3.4754   -4.3676   -6.1773 H         1 C05         0.0267
     36 H14         4.1348   -6.0242   -6.3948 H         1 C05         0.0267
     37 H15         0.3679   -8.7085   -7.0522 H         1 C05         0.0714
     38 H16         1.4806   -9.1054   -8.4054 H         1 C05         0.0714
     39 H17        -2.1432   -8.2813   -7.5872 H         1 C05         0.0219
     40 H18        -3.6291   -8.6082   -9.8032 H         1 C05         0.0296
     41 H19        -1.9789   -8.9540  -11.7992 H         1 C05         0.0854
@<TRIPOS>BOND
     1    1    7 2  
     2   11    1 1  
     3    2    4 1  
     4   15    2 1  
     5   19    3 1  
     6    3   22 1  
     7    4    9 2  
     8    4   11 1  
     9   16    5 2  
    10    6    8 1  
    11   11    6 1  
    12    6   14 1  
    13    9    7 1  
    14    8   10 1  
    15   12   10 1  
    16   14   12 1  
    17   13   16 am 
    18   18   13 1  
    19   16   15 1  
    20   15   17 1  
    21   18   19 1  
    22   19   20 2  
    23   20   21 1  
    24   21   22 2  
    25    6   23 1  
    26    8   24 1  
    27    8   25 1  
    28   10   26 1  
    29   10   27 1  
    30   12   28 1  
    31   12   29 1  
    32   13   30 1  
    33   14   31 1  
    34   14   32 1  
    35   15   33 1  
    36   17   34 1  
    37   17   35 1  
    38   17   36 1  
    39   18   37 1  
    40   18   38 1  
    41   20   39 1  
    42   21   40 1  
    43   22   41 1  
@<TRIPOS>SUBSTRUCTURE
     1 C05         1

