### 
### Created by X-TOOL on Wed Jan  1 15:39:36 2020
### 

@<TRIPOS>MOLECULE
6evr_ligand
   51    53     1     0     0
SMALL
GAST_HUCK


@<TRIPOS>ATOM
      1 C2          9.6070   35.3660   10.8690 C.3       1 BZW         0.0259
      2 O23        12.9760   32.5630   15.8450 O.2       1 BZW        -0.3845
      3 C8         10.2120   35.5880   14.6490 C.3       1 BZW         0.0747
      4 C10         7.9850   34.4000   14.8210 C.ar      1 BZW        -0.0408
      5 C11         7.0970   35.4500   14.5930 C.ar      1 BZW        -0.0603
      6 C12         5.9460   35.2470   13.8370 C.ar      1 BZW        -0.0686
      7 C13         5.6320   33.9740   13.3810 C.ar      1 BZW        -0.0687
      8 C14         6.4690   32.9140   13.6720 C.ar      1 BZW        -0.0686
      9 C15         7.6550   33.1340   14.3770 C.ar      1 BZW        -0.0603
     10 C16        12.7330   33.7360   16.0280 C.2       1 BZW         0.2075
     11 C19        13.3300   34.4360   19.7240 C.ar      1 BZW        -0.0295
     12 C20        14.0380   35.6390   19.6300 C.ar      1 BZW         0.1122
     13 C21        14.4120   36.1420   18.4030 C.ar      1 BZW        -0.0295
     14 C22        14.0120   35.4750   17.2460 C.ar      1 BZW        -0.0401
     15 C5         12.3220   34.0190   13.6440 C.3       1 BZW         0.0538
     16 C4         10.9190   33.9140   13.0800 C.3       1 BZW         0.0547
     17 N3         10.2340   35.2110   13.2150 N.am      1 BZW        -0.2646
     18 C17        13.1640   34.3710   17.3230 C.ar      1 BZW         0.0501
     19 C18        12.8280   33.8560   18.5720 C.ar      1 BZW        -0.0401
     20 C1          9.6200   35.9290   12.2620 C.2       1 BZW         0.1759
     21 O1          9.0010   36.9290   12.5560 O.2       1 BZW        -0.3972
     22 N6         12.2710   34.5240   15.0350 N.am      1 BZW        -0.2681
     23 C7         11.6240   35.8280   15.1490 C.3       1 BZW         0.0585
     24 C9          9.3110   34.6570   15.4890 C.3       1 BZW         0.0061
     25 S24        14.5980   36.3910   21.1330 S.o2      1 BZW         0.0677
     26 O25        14.8120   35.2980   22.0300 O.2       1 BZW        -0.1499
     27 O26        13.6350   37.4430   21.4730 O.2       1 BZW        -0.1499
     28 N27        16.0040   37.1290   20.8260 N.am      1 BZW        -0.2605
     29 H1          9.0735   36.0566   10.1994 H         1 BZW         0.0467
     30 H2          9.0972   34.3913   10.8722 H         1 BZW         0.0467
     31 H3         10.6408   35.2380   10.5156 H         1 BZW         0.0467
     32 H4          9.7198   36.5705   14.6981 H         1 BZW         0.0601
     33 H5          7.3040   36.4303   15.0068 H         1 BZW         0.0557
     34 H6          5.2954   36.0823   13.6045 H         1 BZW         0.0599
     35 H7          4.7325   33.8120   12.7982 H         1 BZW         0.0559
     36 H8          6.2056   31.9119   13.3534 H         1 BZW         0.0599
     37 H9          8.3224   32.3037   14.5775 H         1 BZW         0.0557
     38 H10        13.1764   33.9638   20.6876 H         1 BZW         0.0649
     39 H11        15.0093   37.0443   18.3382 H         1 BZW         0.0649
     40 H12        14.3629   35.8173   16.2792 H         1 BZW         0.0670
     41 H13        12.9123   34.7117   13.0262 H         1 BZW         0.0542
     42 H14        12.7941   33.0255   13.6341 H         1 BZW         0.0542
     43 H15        10.3590   33.1450   13.6323 H         1 BZW         0.0542
     44 H16        10.9716   33.6367   12.0168 H         1 BZW         0.0542
     45 H17        12.1704   32.9971   18.6425 H         1 BZW         0.0670
     46 H18        11.6149   36.1688   16.1948 H         1 BZW         0.0546
     47 H19        12.1374   36.5741   14.5247 H         1 BZW         0.0546
     48 H20         9.1305   35.1258   16.4676 H         1 BZW         0.0449
     49 H21         9.8283   33.6968   15.6322 H         1 BZW         0.0449
     50 H22        16.4831   37.6158   21.5564 H         1 BZW         0.1635
     51 H23        16.3942   37.0985   19.9058 H         1 BZW         0.1635
@<TRIPOS>BOND
     1   20    1 1  
     2   10    2 2  
     3   17    3 1  
     4    3   23 1  
     5    3   24 1  
     6    4    5 ar 
     7    4    9 ar 
     8   24    4 1  
     9    5    6 ar 
    10    6    7 ar 
    11    8    7 ar 
    12    9    8 ar 
    13   10   18 1  
    14   22   10 am 
    15   12   11 ar 
    16   11   19 ar 
    17   13   12 ar 
    18   12   25 1  
    19   14   13 ar 
    20   18   14 ar 
    21   16   15 1  
    22   15   22 1  
    23   17   16 1  
    24   17   20 am 
    25   18   19 ar 
    26   20   21 2  
    27   22   23 1  
    28   25   26 2  
    29   25   27 2  
    30   25   28 am 
    31    1   29 1  
    32    1   30 1  
    33    1   31 1  
    34    3   32 1  
    35    5   33 1  
    36    6   34 1  
    37    7   35 1  
    38    8   36 1  
    39    9   37 1  
    40   11   38 1  
    41   13   39 1  
    42   14   40 1  
    43   15   41 1  
    44   15   42 1  
    45   16   43 1  
    46   16   44 1  
    47   19   45 1  
    48   23   46 1  
    49   23   47 1  
    50   24   48 1  
    51   24   49 1  
    52   28   50 1  
    53   28   51 1  
@<TRIPOS>SUBSTRUCTURE
     1 BZW         1

