### 
### Created by X-TOOL on Wed Jan  1 15:39:35 2020
### 

@<TRIPOS>MOLECULE
6ew3_ligand
   19    19     1     0     0
SMALL
GAST_HUCK


@<TRIPOS>ATOM
      1 C10       -28.7130    7.2420   58.8520 C.ar      1 S3C         0.0572
      2 C15       -30.9040    8.3960   57.5760 C.ar      1 S3C        -0.0501
      3 CL1       -30.9590    6.5060   55.6800 Cl        1 S3C        -0.0720
      4 C2        -30.3120    7.2390   57.0890 C.ar      1 S3C         0.0434
      5 C3        -29.2130    6.6460   57.7040 C.ar      1 S3C        -0.0055
      6 C4        -28.5800    5.4510   57.1400 C.2       1 S3C        -0.0393
      7 C5        -27.3440    5.4690   56.6270 C.2       1 S3C         0.0517
      8 C6        -26.7630    4.2240   56.0700 C.2       1 S3C         0.0772
      9 O7        -27.5260    3.1020   56.0710 O.co2     1 S3C        -0.5578
     10 O8        -25.6490    4.1170   55.5970 O.co2     1 S3C        -0.5578
     11 S9        -26.3410    6.9000   56.5580 S.3       1 S3C        -0.1067
     12 CL2       -27.4100    6.5150   59.6420 Cl        1 S3C        -0.0715
     13 C12       -29.2940    8.4070   59.3420 C.ar      1 S3C         0.0517
     14 CL3       -28.6630    9.1640   60.7200 Cl        1 S3C        -0.0707
     15 C14       -30.3840    8.9870   58.7130 C.ar      1 S3C        -0.0499
     16 H1        -31.7607    8.8297   57.0729 H         1 S3C         0.0616
     17 H2        -29.1354    4.5142   57.1382 H         1 S3C         0.0520
     18 H3        -25.4906    6.7380   57.0744 H         1 S3C         0.1263
     19 H4        -30.8247    9.8950   59.1083 H         1 S3C         0.0598
@<TRIPOS>BOND
     1    5    1 ar 
     2    1   12 1  
     3    1   13 ar 
     4    4    2 ar 
     5    2   15 ar 
     6    4    3 1  
     7    4    5 ar 
     8    5    6 1  
     9    6    7 2  
    10    7    8 1  
    11    7   11 1  
    12    8    9 ar 
    13    8   10 ar 
    14   13   14 1  
    15   13   15 ar 
    16    2   16 1  
    17    6   17 1  
    18   11   18 1  
    19   15   19 1  
@<TRIPOS>SUBSTRUCTURE
     1 S3C         1

