### 
### Created by X-TOOL on Wed Jan  1 15:39:36 2020
### 

@<TRIPOS>MOLECULE
6ew6_ligand
   23    24     1     0     0
SMALL
GAST_HUCK


@<TRIPOS>ATOM
      1 C1         12.0060    2.6370  -11.3560 C.ar      1 C0H        -0.0724
      2 C2         11.0540    3.0480  -12.2740 C.ar      1 C0H        -0.0570
      3 C3         11.1020    2.5490  -13.5650 C.ar      1 C0H         0.0635
      4 C7         14.2160    0.3180  -17.9790 C.ar      1 C0H         0.0727
      5 C8         15.4870    1.2900  -16.4060 C.ar      1 C0H         0.1866
      6 CL          9.9990    3.1900  -14.7320 Cl        1 C0H        -0.0790
      7 C4         12.1270    1.7100  -13.9790 C.ar      1 C0H         0.0821
      8 C5         13.0220    1.2370  -13.0160 C.ar      1 C0H        -0.0368
      9 C          12.9160    1.6610  -11.6990 C.ar      1 C0H        -0.0708
     10 N          12.1730    1.2760  -15.3260 N.pl3     1 C0H        -0.2375
     11 C6         13.2540    1.1320  -16.1420 C.ar      1 C0H         0.2086
     12 N3         14.4150    1.6010  -15.6500 N.ar      1 C0H        -0.2129
     13 N4         16.6820    1.6820  -15.9500 N.pl3     1 C0H        -0.2997
     14 N2         15.4460    0.6910  -17.6240 N.ar      1 C0H        -0.2418
     15 N1         13.0610    0.5890  -17.3620 N.ar      1 C0H        -0.2388
     16 H1         12.0352    3.0828  -10.3684 H         1 C0H         0.0523
     17 H2         10.2811    3.7513  -11.9857 H         1 C0H         0.0594
     18 H3         14.1433   -0.2796  -18.8805 H         1 C0H         0.1144
     19 H4         13.8006    0.5375  -13.2982 H         1 C0H         0.0540
     20 H5         13.5512    1.2229  -10.9376 H         1 C0H         0.0590
     21 H6         11.2639    1.0362  -15.7467 H         1 C0H         0.2216
     22 H7         16.7574    2.1404  -15.0307 H         1 C0H         0.1862
     23 H8         17.5267    1.5254  -16.5182 H         1 C0H         0.1862
@<TRIPOS>BOND
     1    2    1 ar 
     2    9    1 ar 
     3    3    2 ar 
     4    3    6 1  
     5    7    3 ar 
     6   14    4 ar 
     7    4   15 ar 
     8   12    5 ar 
     9    5   13 1  
    10    5   14 ar 
    11    7    8 ar 
    12   10    7 1  
    13    8    9 ar 
    14   11   10 1  
    15   11   12 ar 
    16   11   15 ar 
    17    1   16 1  
    18    2   17 1  
    19    4   18 1  
    20    8   19 1  
    21    9   20 1  
    22   10   21 1  
    23   13   22 1  
    24   13   23 1  
@<TRIPOS>SUBSTRUCTURE
     1 C0H         1

