### 
### Created by X-TOOL on Wed Jan  1 15:39:34 2020
### 

@<TRIPOS>MOLECULE
6ewe_ligand
   22    23     1     0     0
SMALL
GAST_HUCK


@<TRIPOS>ATOM
      1 C4         59.9860   10.0030   25.9420 C.2       1 C0W         0.0044
      2 C5         58.5140   10.2930   27.9150 C.ar      1 C0W         0.0393
      3 C6         57.5330   10.5140   28.8760 C.ar      1 C0W        -0.0491
      4 C7         57.7310   10.0490   30.1630 C.ar      1 C0W        -0.0700
      5 C8         58.8950    9.3850   30.4930 C.ar      1 C0W        -0.0711
      6 C9         59.8870    9.1870   29.5420 C.ar      1 C0W        -0.0651
      7 C10        59.7220    9.6360   28.2330 C.ar      1 C0W        -0.0167
      8 C          63.7300    7.2610   26.4830 C.2       1 C0W         0.0677
      9 O          64.4740    7.7970   27.4520 O.co2     1 C0W        -0.5615
     10 C1         62.4090    7.8750   26.2580 C.2       1 C0W         0.0388
     11 C2         61.8600    8.7960   27.1020 C.2       1 C0W        -0.0541
     12 C3         60.5720    9.4830   27.0660 C.2       1 C0W        -0.0264
     13 O1         64.0710    6.2980   25.8480 O.co2     1 C0W        -0.5615
     14 S          61.4900    7.2980   24.8590 S.3       1 C0W        -0.1177
     15 S1         58.4270   10.6830   26.2250 S.3       1 C0W        -0.0368
     16 H1         60.4604    9.9882   24.9618 H         1 C0W         0.0797
     17 H2         56.6235   11.0448   28.6188 H         1 C0W         0.0571
     18 H3         56.9680   10.2068   30.9167 H         1 C0W         0.0571
     19 H4         59.0358    9.0153   31.5022 H         1 C0W         0.0557
     20 H5         60.8016    8.6766   29.8213 H         1 C0W         0.0577
     21 H6         62.4909    9.0649   27.9479 H         1 C0W         0.0497
     22 H7         62.0427    6.6267   24.3490 H         1 C0W         0.1229
@<TRIPOS>BOND
     1   12    1 2  
     2    1   15 1  
     3    2    3 ar 
     4    7    2 ar 
     5    2   15 1  
     6    3    4 ar 
     7    5    4 ar 
     8    6    5 ar 
     9    7    6 ar 
    10   12    7 1  
    11    8    9 ar 
    12   10    8 1  
    13    8   13 ar 
    14   11   10 2  
    15   10   14 1  
    16   11   12 1  
    17    1   16 1  
    18    3   17 1  
    19    4   18 1  
    20    5   19 1  
    21    6   20 1  
    22   11   21 1  
    23   14   22 1  
@<TRIPOS>SUBSTRUCTURE
     1 C0W         1

