### 
### Created by X-TOOL on Wed Jan  1 15:39:38 2020
### 

@<TRIPOS>MOLECULE
6ex1_ligand
   47    49     1     0     0
SMALL
GAST_HUCK


@<TRIPOS>ATOM
      1 C3         12.8190   34.3820   18.0860 C.ar      1 N19        -0.0401
      2 C4         13.2480   35.0530   19.2180 C.ar      1 N19        -0.0295
      3 C5         14.2700   35.9860   19.1120 C.ar      1 N19         0.1122
      4 C6         14.8410   36.2740   17.8840 C.ar      1 N19        -0.0295
      5 C7         14.4120   35.5890   16.7580 C.ar      1 N19        -0.0401
      6 C8         13.4080   34.6230   16.8490 C.ar      1 N19         0.0501
      7 C9         13.0520   33.7570   15.6830 C.2       1 N19         0.2078
      8 O11        12.9140   32.5600   15.8600 O.2       1 N19        -0.3845
      9 N18        13.0060   34.3040   14.4530 N.am      1 N19        -0.2617
     10 C19        12.9180   33.4060   13.2960 C.3       1 N19         0.0782
     11 C20        12.2810   34.0720   12.0980 C.3       1 N19         0.0077
     12 N21        12.6200   35.4710   11.8150 N.4       1 N19         0.2335
     13 C22        13.4840   36.0900   12.8220 C.3       1 N19        -0.0124
     14 C23        12.9780   35.7570   14.2160 C.3       1 N19         0.0735
     15 S24        14.9090   36.7320   20.5820 S.o2      1 N19         0.0677
     16 O25        15.1450   35.6750   21.5160 O.2       1 N19        -0.1499
     17 O27        14.0080   37.7830   20.9560 O.2       1 N19        -0.1499
     18 N28        16.3200   37.4130   20.2590 N.am      1 N19        -0.2605
     19 C41        10.7620   33.8430   12.1240 C.3       1 N19         0.0259
     20 C43        10.0230   34.3810   13.3270 C.ar      1 N19        -0.0376
     21 C44         9.4640   35.6540   13.3050 C.ar      1 N19        -0.0601
     22 C45         8.7610   36.1370   14.3990 C.ar      1 N19        -0.0686
     23 C46         8.6120   35.3570   15.5280 C.ar      1 N19        -0.0687
     24 C47         9.1600   34.0910   15.5620 C.ar      1 N19        -0.0686
     25 C48         9.8590   33.6040   14.4680 C.ar      1 N19        -0.0601
     26 H1         12.0143   33.6599   18.1643 H         1 N19         0.0670
     27 H2         12.7896   34.8515   20.1794 H         1 N19         0.0649
     28 H3         15.6159   37.0278   17.8040 H         1 N19         0.0649
     29 H4         14.8612   35.8058   15.7956 H         1 N19         0.0670
     30 H5         12.3156   32.5288   13.5745 H         1 N19         0.0580
     31 H6         13.9329   33.0820   13.0221 H         1 N19         0.0580
     32 H7         12.6608   33.5151   11.2288 H         1 N19         0.0894
     33 H8         11.7638   36.0004   11.7635 H         1 N19         0.2019
     34 H9         13.0926   35.5089   10.9255 H         1 N19         0.2019
     35 H10        13.4803   37.1813   12.6841 H         1 N19         0.0834
     36 H11        14.5094   35.7092   12.7060 H         1 N19         0.0834
     37 H12        13.6173   36.2554   14.9595 H         1 N19         0.0575
     38 H13        11.9444   36.1188   14.3197 H         1 N19         0.0575
     39 H14        16.8251   37.8839   20.9822 H         1 N19         0.1635
     40 H15        16.6969   37.3678   19.3338 H         1 N19         0.1635
     41 H16        10.5861   32.7580   12.0807 H         1 N19         0.0482
     42 H17        10.3361   34.3196   11.2288 H         1 N19         0.0482
     43 H18         9.5787   36.2752   12.4241 H         1 N19         0.0557
     44 H19         8.3274   37.1300   14.3671 H         1 N19         0.0599
     45 H20         8.0668   35.7373   16.3843 H         1 N19         0.0559
     46 H21         9.0437   33.4754   16.4466 H         1 N19         0.0599
     47 H22        10.2822   32.6066   14.5028 H         1 N19         0.0557
@<TRIPOS>BOND
     1    1    2 ar 
     2    1    6 ar 
     3    2    3 ar 
     4    3    4 ar 
     5    3   15 1  
     6    4    5 ar 
     7    5    6 ar 
     8    6    7 1  
     9    7    8 2  
    10    7    9 am 
    11    9   10 1  
    12    9   14 1  
    13   10   11 1  
    14   11   12 1  
    15   11   19 1  
    16   12   13 1  
    17   13   14 1  
    18   15   16 2  
    19   15   17 2  
    20   15   18 am 
    21   19   20 1  
    22   20   21 ar 
    23   20   25 ar 
    24   21   22 ar 
    25   22   23 ar 
    26   23   24 ar 
    27   24   25 ar 
    28    1   26 1  
    29    2   27 1  
    30    4   28 1  
    31    5   29 1  
    32   10   30 1  
    33   10   31 1  
    34   11   32 1  
    35   12   33 1  
    36   12   34 1  
    37   13   35 1  
    38   13   36 1  
    39   14   37 1  
    40   14   38 1  
    41   18   39 1  
    42   18   40 1  
    43   19   41 1  
    44   19   42 1  
    45   21   43 1  
    46   22   44 1  
    47   23   45 1  
    48   24   46 1  
    49   25   47 1  
@<TRIPOS>SUBSTRUCTURE
     1 N19         1

