### 
### Created by X-TOOL on Wed Jan  1 15:39:35 2020
### 

@<TRIPOS>MOLECULE
6exi_ligand
   32    34     1     0     0
SMALL
GAST_HUCK


@<TRIPOS>ATOM
      1 O5'       -13.1710   64.7330   22.1520 O.3       1 ADN        -0.3924
      2 C5'       -13.9790   64.1560   21.1410 C.3       1 ADN         0.0730
      3 C4'       -14.2060   65.0990   19.9680 C.3       1 ADN         0.1135
      4 O4'       -15.2140   66.0810   20.3040 O.3       1 ADN        -0.3368
      5 C3'       -13.0140   65.8920   19.4500 C.3       1 ADN         0.1146
      6 O3'       -13.2140   66.1370   18.0610 O.3       1 ADN        -0.3864
      7 C2'       -13.1310   67.2180   20.2020 C.3       1 ADN         0.1385
      8 O2'       -12.5760   68.3370   19.5460 O.3       1 ADN        -0.3836
      9 C1'       -14.6540   67.3840   20.3420 C.3       1 ADN         0.2010
     10 N9        -15.0350   67.9460   21.6410 N.pl3     1 ADN        -0.1919
     11 C8        -14.5730   67.4690   22.7770 C.2       1 ADN         0.1123
     12 N7        -15.1540   68.1430   23.8450 N.2       1 ADN        -0.2958
     13 C5        -16.0010   69.0770   23.3120 C.ar      1 ADN         0.1045
     14 C6        -16.8390   70.0570   23.8850 C.ar      1 ADN         0.1298
     15 N6        -16.8910   70.2180   25.2940 N.pl3     1 ADN        -0.3152
     16 N1        -17.5810   70.8380   23.0930 N.ar      1 ADN        -0.2698
     17 C2        -17.5150   70.7130   21.7470 C.ar      1 ADN         0.0533
     18 N3        -16.7470   69.8100   21.1500 N.ar      1 ADN        -0.2714
     19 C4        -15.9650   68.9720   21.9000 C.ar      1 ADN         0.1613
     20 H1        -12.3227   64.9578   21.7881 H         1 ADN         0.2095
     21 H2        -14.9544   63.8930   21.5761 H         1 ADN         0.0584
     22 H3        -13.4849   63.2455   20.7712 H         1 ADN         0.0584
     23 H4        -14.5742   64.4801   19.1365 H         1 ADN         0.0647
     24 H5        -12.0555   65.3853   19.6359 H         1 ADN         0.0648
     25 H6        -12.4788   66.6319   17.7188 H         1 ADN         0.2100
     26 H7        -12.6554   67.1277   21.1898 H         1 ADN         0.0676
     27 H8        -13.0118   68.4615   18.7111 H         1 ADN         0.2101
     28 H9        -15.0422   68.0118   19.5264 H         1 ADN         0.0996
     29 H10       -13.8436   66.6654   22.8671 H         1 ADN         0.1349
     30 H11       -17.5041   70.9346   25.7082 H         1 ADN         0.1820
     31 H12       -16.3157   69.6183   25.9025 H         1 ADN         0.1820
     32 H13       -18.1128   71.3764   21.1324 H         1 ADN         0.0996
@<TRIPOS>BOND
     1    1    2 1  
     2    2    3 1  
     3    3    4 1  
     4    3    5 1  
     5    4    9 1  
     6    5    6 1  
     7    5    7 1  
     8    7    8 1  
     9    7    9 1  
    10    9   10 1  
    11   10   11 1  
    12   10   19 1  
    13   11   12 2  
    14   12   13 1  
    15   13   14 ar 
    16   13   19 ar 
    17   14   15 1  
    18   14   16 ar 
    19   16   17 ar 
    20   17   18 ar 
    21   18   19 ar 
    22    1   20 1  
    23    2   21 1  
    24    2   22 1  
    25    3   23 1  
    26    5   24 1  
    27    6   25 1  
    28    7   26 1  
    29    8   27 1  
    30    9   28 1  
    31   11   29 1  
    32   15   30 1  
    33   15   31 1  
    34   17   32 1  
@<TRIPOS>SUBSTRUCTURE
     1 ADN         1

