### 
### Created by X-TOOL on Wed Jan  1 15:39:38 2020
### 

@<TRIPOS>MOLECULE
6exj_ligand
   99    98     1     0     0
SMALL
GAST_HUCK


@<TRIPOS>ATOM
      1 C          19.8390   87.9010   10.5890 C.2       1 ACE         0.1752
      2 O          20.1040   88.5140   11.6540 O.2       1 ACE        -0.3972
      3 CH3        20.7220   86.8650    9.9350 C.3       1 ACE         0.0258
      4 N          18.7340   88.0510    9.9100 N.am      1 ASP        -0.2643
      5 CA         17.7130   89.0020   10.2220 C.3       1 ASP         0.1422
      6 C          16.3390   88.3570   10.3750 C.2       1 ASP         0.2056
      7 O          16.0160   87.4730    9.6310 O.2       1 ASP        -0.3943
      8 CB         17.7380   90.0100    9.0930 C.3       1 ASP         0.0406
      9 CG         17.1140   91.2980    9.4730 C.2       1 ASP         0.0393
     10 OD1        17.5030   91.8070   10.5660 O.co2     1 ASP        -0.5688
     11 OD2        16.2670   91.7890    8.6830 O.co2     1 ASP        -0.5688
     12 N          15.5270   88.7470   11.3500 N.am      1 LEU        -0.2636
     13 CA         14.2040   88.1510   11.4810 C.3       1 LEU         0.1312
     14 C          13.1640   89.2460   11.6750 C.2       1 LEU         0.2039
     15 O          13.4490   90.3120   12.2580 O.2       1 LEU        -0.3944
     16 CB         14.0920   87.1460   12.6630 C.3       1 LEU        -0.0101
     17 CG         14.7150   85.7650   12.4950 C.3       1 LEU        -0.0425
     18 CD1        14.5800   84.9490   13.7550 C.3       1 LEU        -0.0625
     19 CD2        14.0900   85.0290   11.2710 C.3       1 LEU        -0.0625
     20 N          11.9390   88.9450   11.2310 N.am      1 GLN        -0.2636
     21 CA         10.8130   89.8440   11.4180 C.3       1 GLN         0.1330
     22 C           9.6960   89.1350   12.1420 C.2       1 GLN         0.2041
     23 O           9.3840   87.9810   11.8210 O.2       1 GLN        -0.3944
     24 CB         10.2340   90.3340   10.0800 C.3       1 GLN         0.0045
     25 CG         11.2140   91.1420    9.3290 C.3       1 GLN         0.0412
     26 CD         10.6550   91.7400    8.0570 C.2       1 GLN         0.1737
     27 OE1         9.5430   92.2890    8.0450 O.2       1 GLN        -0.3973
     28 NE2        11.4640   91.6750    6.9840 N.am      1 GLN        -0.3009
     29 N           9.0160   89.8670   13.0270 N.am      1 THR        -0.2613
     30 CA          7.9160   89.2730   13.7500 C.3       1 THR         0.1565
     31 C           6.8220   90.3000   13.8650 C.2       1 THR         0.2065
     32 O           7.0450   91.3840   14.4240 O.2       1 THR        -0.3943
     33 CB          8.3540   88.8190   15.1470 C.3       1 THR         0.0924
     34 OG1         9.4420   87.9050   15.0100 O.3       1 THR        -0.3874
     35 CG2         7.1790   88.1920   15.8440 C.3       1 THR        -0.0346
     36 N           5.6450   89.8900   13.4670 N.am      1 SER        -0.2615
     37 CA          4.4660   90.7020   13.6150 C.3       1 SER         0.1539
     38 C           3.9420   90.5500   15.0280 C.2       1 SER         0.2056
     39 O           3.7050   89.4350   15.4670 O.2       1 SER        -0.3943
     40 CB          3.4080   90.2600   12.6120 C.3       1 SER         0.0843
     41 OG          2.1960   90.9510   12.8030 O.3       1 SER        -0.3903
     42 N           3.7030   91.6640   15.6770 N.am      1 ILE        -0.2692
     43 CA          3.3530   91.6780   17.1090 C.3       1 ILE         0.0969
     44 C           2.1750   92.5880   17.3890 C.2       1 ILE         0.0604
     45 O           1.3630   92.4050   18.3120 O.co2     1 ILE        -0.5666
     46 CB          4.5360   92.1420   17.9090 C.3       1 ILE        -0.0092
     47 CG1         5.6960   91.1860   17.7840 C.3       1 ILE        -0.0497
     48 CG2         4.1940   92.3560   19.4410 C.3       1 ILE        -0.0588
     49 CD1         6.8750   91.9010   18.1000 C.3       1 ILE        -0.0649
     50 OXT         2.0000   93.5570   16.6740 O.co2     1 ILE        -0.5666
     51 H1         20.2387   86.4978    9.0176 H         1 ACE         0.0467
     52 H2         20.8779   86.0255   10.6285 H         1 ACE         0.0467
     53 H3         21.6925   87.3171    9.6824 H         1 ACE         0.0467
     54 H4         18.5918   87.4595    9.1163 H         1 ASP         0.1884
     55 H5         17.9614   89.5051   11.1681 H         1 ASP         0.0819
     56 H6         17.1917   89.5925    8.2344 H         1 ASP         0.0478
     57 H7         18.7841   90.1949    8.8074 H         1 ASP         0.0478
     58 H8         15.8237   89.4508   11.9954 H         1 LEU         0.1883
     59 H9         13.9824   87.6101   10.5492 H         1 LEU         0.0800
     60 H10        13.0209   86.9983   12.8653 H         1 LEU         0.0315
     61 H11        14.5689   87.6149   13.5363 H         1 LEU         0.0315
     62 H12        15.7884   85.8997   12.2961 H         1 LEU         0.0298
     63 H13        15.0379   83.9605   13.6025 H         1 LEU         0.0232
     64 H14        13.5147   84.8258   13.9997 H         1 LEU         0.0232
     65 H15        15.0890   85.4651   14.5824 H         1 LEU         0.0232
     66 H16        14.2057   85.6508   10.3710 H         1 LEU         0.0232
     67 H17        13.0209   84.8496   11.4577 H         1 LEU         0.0232
     68 H18        14.6024   84.0673   11.1205 H         1 LEU         0.0232
     69 H19        11.7938   88.0766   10.7569 H         1 GLN         0.1883
     70 H20        11.1478   90.7095   12.0086 H         1 GLN         0.0801
     71 H21         9.3432   90.9477   10.2796 H         1 GLN         0.0337
     72 H22         9.9500   89.4618    9.4728 H         1 GLN         0.0337
     73 H23        12.0668   90.4989    9.0658 H         1 GLN         0.0504
     74 H24        11.5588   91.9615    9.9767 H         1 GLN         0.0504
     75 H25        11.1627   92.0498    6.1072 H         1 GLN         0.1814
     76 H26        12.3666   91.2519    7.0632 H         1 GLN         0.1814
     77 H27         9.2668   90.8215   13.1885 H         1 THR         0.1884
     78 H28         7.5440   88.4010   13.1922 H         1 THR         0.0826
     79 H29         8.6903   89.6899   15.7287 H         1 THR         0.0639
     80 H30        10.1639   88.3375   14.5693 H         1 THR         0.2101
     81 H31         7.4820   87.8621   16.8487 H         1 THR         0.0257
     82 H32         6.8280   87.3258   15.2639 H         1 THR         0.0257
     83 H33         6.3672   88.9293   15.9296 H         1 THR         0.0257
     84 H34         5.5622   88.9859   13.0477 H         1 SER         0.1884
     85 H35         4.7210   91.7561   13.4313 H         1 SER         0.0823
     86 H36         3.2279   89.1818   12.7341 H         1 SER         0.0606
     87 H37         3.7755   90.4575   11.5942 H         1 SER         0.0606
     88 H38         1.5591   90.6535   12.1640 H         1 SER         0.2097
     89 H39         3.7600   92.5325   15.1845 H         1 ILE         0.1875
     90 H40         3.0890   90.6553   17.4161 H         1 ILE         0.0729
     91 H41         4.8497   93.1125   17.4971 H         1 ILE         0.0338
     92 H42         5.7554   90.8006   16.7555 H         1 ILE         0.0267
     93 H43         5.5675   90.3467   18.4833 H         1 ILE         0.0267
     94 H44         3.3481   93.0530   19.5339 H         1 ILE         0.0234
     95 H45         5.0710   92.7728   19.9578 H         1 ILE         0.0234
     96 H46         3.9253   91.3908   19.8950 H         1 ILE         0.0234
     97 H47         7.7433   91.2307   18.0183 H         1 ILE         0.0230
     98 H48         6.8054   92.2872   19.1276 H         1 ILE         0.0230
     99 H49         6.9932   92.7411   17.3998 H         1 ILE         0.0230
@<TRIPOS>BOND
     1    1    2 2  
     2    1    3 1  
     3    1    4 am 
     4    4    5 1  
     5    5    6 1  
     6    5    8 1  
     7    6    7 2  
     8    6   12 am 
     9    8    9 1  
    10    9   10 ar 
    11    9   11 ar 
    12   12   13 1  
    13   13   14 1  
    14   13   16 1  
    15   14   15 2  
    16   14   20 am 
    17   16   17 1  
    18   17   18 1  
    19   17   19 1  
    20   20   21 1  
    21   21   22 1  
    22   21   24 1  
    23   22   23 2  
    24   22   29 am 
    25   24   25 1  
    26   25   26 1  
    27   26   27 2  
    28   26   28 am 
    29   29   30 1  
    30   30   31 1  
    31   30   33 1  
    32   31   32 2  
    33   31   36 am 
    34   33   34 1  
    35   33   35 1  
    36   36   37 1  
    37   37   38 1  
    38   37   40 1  
    39   38   39 2  
    40   38   42 am 
    41   40   41 1  
    42   42   43 1  
    43   43   44 1  
    44   43   46 1  
    45   44   45 ar 
    46   44   50 ar 
    47   46   47 1  
    48   46   48 1  
    49   47   49 1  
    50    3   51 1  
    51    3   52 1  
    52    3   53 1  
    53    4   54 1  
    54    5   55 1  
    55    8   56 1  
    56    8   57 1  
    57   12   58 1  
    58   13   59 1  
    59   16   60 1  
    60   16   61 1  
    61   17   62 1  
    62   18   63 1  
    63   18   64 1  
    64   18   65 1  
    65   19   66 1  
    66   19   67 1  
    67   19   68 1  
    68   20   69 1  
    69   21   70 1  
    70   24   71 1  
    71   24   72 1  
    72   25   73 1  
    73   25   74 1  
    74   28   75 1  
    75   28   76 1  
    76   29   77 1  
    77   30   78 1  
    78   33   79 1  
    79   34   80 1  
    80   35   81 1  
    81   35   82 1  
    82   35   83 1  
    83   36   84 1  
    84   37   85 1  
    85   40   86 1  
    86   40   87 1  
    87   41   88 1  
    88   42   89 1  
    89   43   90 1  
    90   46   91 1  
    91   47   92 1  
    92   47   93 1  
    93   48   94 1  
    94   48   95 1  
    95   48   96 1  
    96   49   97 1  
    97   49   98 1  
    98   49   99 1  
@<TRIPOS>SUBSTRUCTURE
     1 ACE         1

