### 
### Created by X-TOOL on Wed Jan  1 15:39:36 2020
### 

@<TRIPOS>MOLECULE
6exm_ligand
   46    48     1     0     0
SMALL
GAST_HUCK


@<TRIPOS>ATOM
      1 C01        68.9390   98.8280   12.8720 C.3       1 QQH        -0.0352
      2 C02        67.7840   99.1070   13.8110 C.ar      1 QQH        -0.0504
      3 C03        67.2340   98.0130   14.5020 C.ar      1 QQH        -0.0736
      4 C04        66.1700   98.2050   15.3800 C.ar      1 QQH        -0.0815
      5 C05        65.6390   99.4820   15.5810 C.ar      1 QQH        -0.0714
      6 C06        66.1610  100.5890   14.9060 C.ar      1 QQH        -0.0360
      7 C07        65.5790  101.9540   15.1470 C.3       1 QQH         0.0066
      8 C08        64.8000  102.5360   13.9930 C.2       1 QQH        -0.0343
      9 C09        64.5310  101.8960   12.8020 C.2       1 QQH        -0.0305
     10 C10        63.7880  102.4660   11.7130 C.2       1 QQH         0.1721
     11 O11        63.5780  101.8290   10.6580 O.2       1 QQH        -0.4392
     12 N12        63.2790  103.7800   11.8420 N.am      1 QQH        -0.1910
     13 C13        63.5530  104.4290   13.0360 C.2       1 QQH         0.1599
     14 S14        62.8280  106.0350   12.9710 S.3       1 QQH        -0.0541
     15 C15        61.7650  105.6430   11.5660 C.3       1 QQH         0.0558
     16 C16        62.5170  104.5510   10.8600 C.3       1 QQH         0.1393
     17 C17        63.3750  105.1360    9.7460 C.2       1 QQH         0.0707
     18 O18        64.5920  104.9110    9.9220 O.co2     1 QQH        -0.5659
     19 O19        62.9060  105.7560    8.8070 O.co2     1 QQH        -0.5659
     20 C20        64.2770  103.8880   14.1200 C.2       1 QQH         0.0753
     21 N21        64.4690  104.6510   15.2420 N.pl3     1 QQH        -0.3371
     22 C22        63.1550  105.2190   15.7750 C.3       1 QQH         0.0047
     23 C23        65.5750  105.6840   15.0730 C.3       1 QQH         0.0047
     24 C24        67.2470  100.3940   14.0170 C.ar      1 QQH        -0.0404
     25 C25        67.8590  101.5400   13.2610 C.3       1 QQH        -0.0360
     26 H1         69.1715   97.7529   12.8860 H         1 QQH         0.0374
     27 H2         69.8217   99.3982   13.1969 H         1 QQH         0.0374
     28 H3         68.6627   99.1301   11.8510 H         1 QQH         0.0374
     29 H4         67.6386   97.0187   14.3512 H         1 QQH         0.0484
     30 H5         65.7509   97.3581   15.9111 H         1 QQH         0.0526
     31 H6         64.8120   99.6156   16.2690 H         1 QQH         0.0487
     32 H7         66.4068  102.6403   15.3786 H         1 QQH         0.0578
     33 H8         64.9043  101.8877   16.0133 H         1 QQH         0.0578
     34 H9         64.9101  100.8827   12.6776 H         1 QQH         0.0182
     35 H10        61.6357  106.5186   10.9129 H         1 QQH         0.0457
     36 H11        60.7799  105.2887   11.9036 H         1 QQH         0.0457
     37 H12        61.7874  103.8723   10.3942 H         1 QQH         0.0845
     38 H13        63.3539  105.8228   16.6727 H         1 QQH         0.0456
     39 H14        62.4758  104.3928   16.0320 H         1 QQH         0.0456
     40 H15        62.6890  105.8505   15.0042 H         1 QQH         0.0456
     41 H16        66.4802  105.1922   14.6872 H         1 QQH         0.0456
     42 H17        65.7958  106.1473   16.0459 H         1 QQH         0.0456
     43 H18        65.2480  106.4586   14.3637 H         1 QQH         0.0456
     44 H19        68.6818  101.1673   12.6332 H         1 QQH         0.0362
     45 H20        68.2485  102.2826   13.9729 H         1 QQH         0.0362
     46 H21        67.0947  102.0086   12.6236 H         1 QQH         0.0362
@<TRIPOS>BOND
     1    1    2 1  
     2    2    3 ar 
     3    2   24 ar 
     4    3    4 ar 
     5    4    5 ar 
     6    5    6 ar 
     7    6    7 1  
     8    6   24 ar 
     9    7    8 1  
    10    8    9 2  
    11    8   20 1  
    12    9   10 1  
    13   10   11 2  
    14   10   12 am 
    15   12   13 1  
    16   12   16 1  
    17   13   14 1  
    18   13   20 2  
    19   14   15 1  
    20   15   16 1  
    21   16   17 1  
    22   17   18 ar 
    23   17   19 ar 
    24   20   21 1  
    25   21   22 1  
    26   21   23 1  
    27   24   25 1  
    28    1   26 1  
    29    1   27 1  
    30    1   28 1  
    31    3   29 1  
    32    4   30 1  
    33    5   31 1  
    34    7   32 1  
    35    7   33 1  
    36    9   34 1  
    37   15   35 1  
    38   15   36 1  
    39   16   37 1  
    40   22   38 1  
    41   22   39 1  
    42   22   40 1  
    43   23   41 1  
    44   23   42 1  
    45   23   43 1  
    46   25   44 1  
    47   25   45 1  
    48   25   46 1  
@<TRIPOS>SUBSTRUCTURE
     1 QQH         1

