### 
### Created by X-TOOL on Wed Jan  1 15:39:37 2020
### 

@<TRIPOS>MOLECULE
6exs_ligand
   43    42     1     0     0
SMALL
GAST_HUCK


@<TRIPOS>ATOM
      1 O2         18.2000    2.2200   32.3260 O.co2     1 C3H        -0.5669
      2 C11        17.9890    3.0050   33.1800 C.2       1 C3H         0.0570
      3 O3         16.9450    3.7570   33.2150 O.co2     1 C3H        -0.5669
      4 C10        18.9150    3.3020   34.3230 C.3       1 C3H         0.0834
      5 N1         20.3040    3.0730   34.0060 N.am      1 C3H        -0.2694
      6 C9         21.0450    4.0040   33.4290 C.2       1 C3H         0.2268
      7 O1         20.6920    4.6160   32.4320 O.2       1 C3H        -0.3907
      8 C8         22.3680    4.3340   34.0380 C.3       1 C3H         0.0741
      9 N          22.7470    3.2740   34.9620 N.4       1 C3H         0.2385
     10 C7         23.4520    4.4370   32.9640 C.3       1 C3H         0.0546
     11 S          23.9650    6.0980   32.4500 S.3       1 C3H        -0.1461
     12 C3         24.8400    7.0040   33.8350 C.3       1 C3H         0.0163
     13 C4         26.1310    6.2640   34.0720 C.3       1 C3H        -0.0504
     14 C5         23.8750    7.0570   35.0270 C.3       1 C3H        -0.0152
     15 C6         24.4290    7.5520   36.3440 C.3       1 C3H         0.0455
     16 O          24.3640    6.5860   37.3410 O.3       1 C3H        -0.3950
     17 C2         25.1470    8.4450   33.4360 C.3       1 C3H        -0.0387
     18 C1         24.4730    9.5150   34.2780 C.3       1 C3H        -0.0547
     19 C          24.8480   10.8970   33.8170 C.3       1 C3H        -0.0652
     20 H1         18.6398    2.6586   35.1717 H         1 C3H         0.0689
     21 H2         18.7912    4.3573   34.6077 H         1 C3H         0.0689
     22 H3         20.7160    2.1893   34.2279 H         1 C3H         0.1874
     23 H4         22.2921    5.2901   34.5766 H         1 C3H         0.1106
     24 H5         23.6398    3.4923   35.3758 H         1 C3H         0.2015
     25 H6         22.8126    2.4007   34.4629 H         1 C3H         0.2015
     26 H7         22.0510    3.1953   35.6869 H         1 C3H         0.2015
     27 H8         23.0805    3.9153   32.0697 H         1 C3H         0.0458
     28 H9         24.3446    3.9199   33.3459 H         1 C3H         0.0458
     29 H10        26.6916    6.7547   34.8813 H         1 C3H         0.0243
     30 H11        26.7330    6.2727   33.1514 H         1 C3H         0.0243
     31 H12        25.9109    5.2245   34.3564 H         1 C3H         0.0243
     32 H13        23.4947    6.0378   35.1903 H         1 C3H         0.0300
     33 H14        23.0418    7.7191   34.7489 H         1 C3H         0.0300
     34 H15        23.8487    8.4300   36.6641 H         1 C3H         0.0557
     35 H16        25.4806    7.8404   36.1992 H         1 C3H         0.0557
     36 H17        24.7214    6.9398   38.1470 H         1 C3H         0.2094
     37 H18        24.8268    8.5833   32.3928 H         1 C3H         0.0278
     38 H19        26.2347    8.5922   33.5083 H         1 C3H         0.0278
     39 H20        24.7819    9.3920   35.3265 H         1 C3H         0.0263
     40 H21        23.3822    9.3962   34.2007 H         1 C3H         0.0263
     41 H22        24.3430   11.6435   34.4477 H         1 C3H         0.0230
     42 H23        24.5377   11.0312   32.7702 H         1 C3H         0.0230
     43 H24        25.9374   11.0269   33.8961 H         1 C3H         0.0230
@<TRIPOS>BOND
     1    1    2 ar 
     2    2    3 ar 
     3    2    4 1  
     4    4    5 1  
     5    5    6 am 
     6    6    7 2  
     7    6    8 1  
     8    8    9 1  
     9    8   10 1  
    10   10   11 1  
    11   11   12 1  
    12   12   13 1  
    13   12   14 1  
    14   12   17 1  
    15   14   15 1  
    16   15   16 1  
    17   17   18 1  
    18   18   19 1  
    19    4   20 1  
    20    4   21 1  
    21    5   22 1  
    22    8   23 1  
    23    9   24 1  
    24    9   25 1  
    25    9   26 1  
    26   10   27 1  
    27   10   28 1  
    28   13   29 1  
    29   13   30 1  
    30   13   31 1  
    31   14   32 1  
    32   14   33 1  
    33   15   34 1  
    34   15   35 1  
    35   16   36 1  
    36   17   37 1  
    37   17   38 1  
    38   18   39 1  
    39   18   40 1  
    40   19   41 1  
    41   19   42 1  
    42   19   43 1  
@<TRIPOS>SUBSTRUCTURE
     1 C3H         1

