### 
### Created by X-TOOL on Wed Jan  1 15:39:35 2020
### 

@<TRIPOS>MOLECULE
6ey7_ligand
   29    29     1     0     0
SMALL
GAST_HUCK


@<TRIPOS>ATOM
      1 C3        -26.2470  -47.0240   59.2870 C.ar      1 C3W        -0.0601
      2 C2        -26.5880  -48.1020   60.0970 C.ar      1 C3W        -0.0246
      3 C8        -29.4760  -48.3080   58.2890 C.2       1 C3W         0.1987
      4 C6        -25.0680  -47.2690   61.7830 C.ar      1 C3W        -0.0348
      5 C7        -25.9840  -48.2120   61.3460 C.ar      1 C3W        -0.0601
      6 O1        -30.7950  -47.6460   55.8230 O.2       1 C3W        -0.3543
      7 C1        -27.6000  -49.1250   59.6370 C.3       1 C3W         0.0655
      8 C5        -24.7660  -46.2210   60.9490 C.ar      1 C3W         0.1248
      9 C9        -30.8960  -47.7720   58.2370 C.3       1 C3W         0.1201
     10 C10       -31.4690  -47.4700   56.8320 C.2       1 C3W         0.1904
     11 C4        -25.3320  -46.0720   59.7080 C.ar      1 C3W        -0.0348
     12 O3        -33.3210  -46.6710   55.5430 O.co2     1 C3W        -0.5463
     13 C11       -32.8990  -46.9370   56.7490 C.2       1 C3W         0.1273
     14 O2        -33.5960  -46.7630   57.7430 O.co2     1 C3W        -0.5463
     15 O         -28.8280  -48.4890   57.2660 O.2       1 C3W        -0.3932
     16 N         -28.9620  -48.5810   59.5090 N.am      1 C3W        -0.2636
     17 C         -29.6800  -48.3980   60.7650 C.3       1 C3W         0.0248
     18 F         -23.8710  -45.2860   61.3730 F         1 C3W        -0.1893
     19 H1        -26.7049  -46.9267   58.3093 H         1 C3W         0.0548
     20 H2        -24.6019  -47.3563   62.7578 H         1 C3W         0.0587
     21 H3        -26.2344  -49.0492   61.9874 H         1 C3W         0.0548
     22 H4        -27.6202  -49.9483   60.3662 H         1 C3W         0.0678
     23 H5        -27.2849  -49.5112   58.6564 H         1 C3W         0.0678
     24 H6        -30.9218  -46.8373   58.8163 H         1 C3W         0.0734
     25 H7        -31.5518  -48.5163   58.7124 H         1 C3W         0.0734
     26 H8        -25.0706  -45.2325   59.0741 H         1 C3W         0.0587
     27 H9        -30.6805  -47.9896   60.5593 H         1 C3W         0.0488
     28 H10       -29.1237  -47.6992   61.4070 H         1 C3W         0.0488
     29 H11       -29.7776  -49.3671   61.2762 H         1 C3W         0.0488
@<TRIPOS>BOND
     1    2    1 ar 
     2    1   11 ar 
     3    2    5 ar 
     4    7    2 1  
     5    9    3 1  
     6    3   15 2  
     7    3   16 am 
     8    5    4 ar 
     9    4    8 ar 
    10   10    6 2  
    11   16    7 1  
    12   11    8 ar 
    13    8   18 1  
    14    9   10 1  
    15   10   13 1  
    16   13   12 ar 
    17   13   14 ar 
    18   16   17 1  
    19    1   19 1  
    20    4   20 1  
    21    5   21 1  
    22    7   22 1  
    23    7   23 1  
    24    9   24 1  
    25    9   25 1  
    26   11   26 1  
    27   17   27 1  
    28   17   28 1  
    29   17   29 1  
@<TRIPOS>SUBSTRUCTURE
     1 C3W         1

