### 
### Created by X-TOOL on Wed Jan  1 15:39:36 2020
### 

@<TRIPOS>MOLECULE
6ey8_ligand
   49    52     1     0     0
SMALL
GAST_HUCK


@<TRIPOS>ATOM
      1 C1         -0.8020   33.8450   23.5170 C.ar      1 C4T         0.0713
      2 C2         -1.9690   33.5610   24.2640 C.ar      1 C4T         0.1004
      3 C3         -1.9010   32.8990   25.4630 C.ar      1 C4T        -0.0048
      4 O5         -3.1810   33.8770   23.7680 O.3       1 C4T        -0.3312
      5 C9          0.5400   32.8810   25.2620 C.ar      1 C4T         0.0144
      6 C10        -0.6500   32.5790   25.9860 C.ar      1 C4T         0.0786
      7 C13         1.6400   32.4000   26.0820 C.2       1 C4T         0.0409
      8 C14         3.1220   32.5580   25.7970 C.3       1 C4T         0.0217
      9 C15         3.7090   31.6340   24.7590 C.ar      1 C4T        -0.0320
     10 C16         4.2500   32.1790   23.5920 C.ar      1 C4T        -0.0585
     11 C19         4.8820   31.3490   22.6590 C.ar      1 C4T        -0.0682
     12 C20         3.8370   30.2640   25.0130 C.ar      1 C4T        -0.0585
     13 C21        -0.5170   36.4920   20.7720 C.3       1 C4T         0.0239
     14 C22        -0.1690   36.7330   23.2420 C.3       1 C4T         0.0664
     15 C24         2.3000   36.3110   22.9500 C.ar      1 C4T        -0.0578
     16 C27         3.5690   36.2390   23.4950 C.ar      1 C4T        -0.0545
     17 C4          0.4680   33.4750   23.9990 C.ar      1 C4T        -0.0463
     18 C6         -0.8740   34.5540   22.2180 C.2       1 C4T         0.1985
     19 N7         -0.4780   35.8570   22.0900 N.am      1 C4T        -0.2669
     20 O8         -1.2220   33.9180   21.2390 O.2       1 C4T        -0.3935
     21 N11        -0.2710   31.9880   27.1530 N.pl3     1 C4T        -0.2272
     22 N12         1.1190   31.9600   27.1850 N.2       1 C4T        -0.2220
     23 C17         4.9900   29.9750   22.9120 C.ar      1 C4T        -0.0685
     24 C18         4.4810   29.4380   24.0930 C.ar      1 C4T        -0.0682
     25 C23         1.2300   36.6780   23.7690 C.ar      1 C4T        -0.0206
     26 C25         3.7610   36.5410   24.8470 C.ar      1 C4T         0.0330
     27 C26         2.6920   36.8830   25.6740 C.ar      1 C4T        -0.0545
     28 C28         1.4190   36.9690   25.1200 C.ar      1 C4T        -0.0578
     29 CL          5.3630   36.4520   25.5010 Cl        1 C4T        -0.0771
     30 H1         -2.8059   32.6291   25.9952 H         1 C4T         0.0462
     31 H2         -3.6842   33.0824   23.6343 H         1 C4T         0.2502
     32 H3          3.6636   32.3893   26.7394 H         1 C4T         0.0580
     33 H4          3.2891   33.5910   25.4579 H         1 C4T         0.0580
     34 H5          4.1803   33.2452   23.4090 H         1 C4T         0.0560
     35 H6          5.2863   31.7674   21.7444 H         1 C4T         0.0600
     36 H7          3.4343   29.8438   25.9275 H         1 C4T         0.0560
     37 H8         -0.1668   37.5314   20.8553 H         1 C4T         0.0487
     38 H9         -1.5487   36.4821   20.3906 H         1 C4T         0.0487
     39 H10         0.1353   35.9398   20.0795 H         1 C4T         0.0487
     40 H11        -0.8461   36.4556   24.0633 H         1 C4T         0.0685
     41 H12        -0.3697   37.7703   22.9358 H         1 C4T         0.0685
     42 H13         2.1382   36.0858   21.9021 H         1 C4T         0.0558
     43 H14         4.4112   35.9497   22.8769 H         1 C4T         0.0606
     44 H15         1.3615   33.6454   23.4093 H         1 C4T         0.0649
     45 H16        -0.9018   31.6261   27.8823 H         1 C4T         0.2381
     46 H17         5.4708   29.3280   22.1872 H         1 C4T         0.0560
     47 H18         4.5858   28.3784   24.2962 H         1 C4T         0.0600
     48 H19         2.8498   37.0782   26.7285 H         1 C4T         0.0606
     49 H20         0.5765   37.2613   25.7363 H         1 C4T         0.0558
@<TRIPOS>BOND
     1    1    2 ar 
     2    1   17 ar 
     3   18    1 1  
     4    2    3 ar 
     5    2    4 1  
     6    3    6 ar 
     7    5    6 ar 
     8    5    7 1  
     9   17    5 ar 
    10    6   21 1  
    11    7    8 1  
    12    7   22 2  
    13    8    9 1  
    14    9   10 ar 
    15    9   12 ar 
    16   10   11 ar 
    17   11   23 ar 
    18   12   24 ar 
    19   19   13 1  
    20   19   14 1  
    21   14   25 1  
    22   15   16 ar 
    23   25   15 ar 
    24   16   26 ar 
    25   18   19 am 
    26   18   20 2  
    27   21   22 1  
    28   23   24 ar 
    29   25   28 ar 
    30   26   27 ar 
    31   26   29 1  
    32   27   28 ar 
    33    3   30 1  
    34    4   31 1  
    35    8   32 1  
    36    8   33 1  
    37   10   34 1  
    38   11   35 1  
    39   12   36 1  
    40   13   37 1  
    41   13   38 1  
    42   13   39 1  
    43   14   40 1  
    44   14   41 1  
    45   15   42 1  
    46   16   43 1  
    47   17   44 1  
    48   21   45 1  
    49   23   46 1  
    50   24   47 1  
    51   27   48 1  
    52   28   49 1  
@<TRIPOS>SUBSTRUCTURE
     1 C4T         1

