### 
### Created by X-TOOL on Wed Jan  1 15:39:37 2020
### 

@<TRIPOS>MOLECULE
6ey9_ligand
   52    55     1     0     0
SMALL
GAST_HUCK


@<TRIPOS>ATOM
      1 C1         66.4830   34.2320   23.8740 C.ar      1 C4N         0.0713
      2 C2         65.3300   33.8090   24.5770 C.ar      1 C4N         0.1004
      3 C3         65.4320   33.0840   25.7540 C.ar      1 C4N        -0.0048
      4 O5         64.1100   34.0650   24.0580 O.3       1 C4N        -0.3312
      5 C9         67.8600   33.2500   25.6050 C.ar      1 C4N         0.0144
      6 C10        66.6910   32.8220   26.2960 C.ar      1 C4N         0.0786
      7 C13        68.9900   32.8490   26.4370 C.2       1 C4N         0.0407
      8 C14        70.4430   33.2060   26.1920 C.3       1 C4N         0.0201
      9 C15        71.1410   32.5500   25.0300 C.ar      1 C4N        -0.0388
     10 C16        71.6560   33.3510   24.0050 C.ar      1 C4N        -0.0654
     11 C19        72.4000   32.7890   22.9590 C.ar      1 C4N        -0.0749
     12 C20        71.4190   31.1800   25.0420 C.ar      1 C4N        -0.0576
     13 C21        66.6080   36.8780   21.0850 C.3       1 C4N         0.0239
     14 C22        67.0000   37.1620   23.5260 C.3       1 C4N         0.0664
     15 C24        68.5760   37.2440   25.4240 C.ar      1 C4N        -0.0578
     16 C27        69.8530   37.2520   25.9670 C.ar      1 C4N        -0.0545
     17 C30        72.4870   29.1710   23.9860 C.3       1 C4N        -0.0327
     18 C4         67.7580   33.8860   24.3590 C.ar      1 C4N        -0.0463
     19 C6         66.3690   34.9330   22.5670 C.2       1 C4N         0.1985
     20 N7         66.7020   36.2510   22.4070 N.am      1 C4N        -0.2669
     21 O8         66.0400   34.2540   21.6020 O.2       1 C4N        -0.3935
     22 N11        67.1080   32.2380   27.4640 N.pl3     1 C4N        -0.2272
     23 N12        68.5010   32.3450   27.5360 N.2       1 C4N        -0.2220
     24 C17        72.6570   31.4240   22.9560 C.ar      1 C4N        -0.0673
     25 C18        72.1680   30.6310   23.9960 C.ar      1 C4N        -0.0526
     26 C23        68.4120   37.1710   24.0380 C.ar      1 C4N        -0.0206
     27 C25        70.9590   37.1920   25.1170 C.ar      1 C4N         0.0330
     28 C26        70.7860   37.1170   23.7310 C.ar      1 C4N        -0.0545
     29 C28        69.5100   37.1060   23.1790 C.ar      1 C4N        -0.0578
     30 CL         72.5580   37.2200   25.8040 Cl        1 C4N        -0.0771
     31 H1         64.5388   32.7226   26.2507 H         1 C4N         0.0462
     32 H2         64.2067   34.5671   23.2574 H         1 C4N         0.2502
     33 H3         71.0032   32.9437   27.1016 H         1 C4N         0.0579
     34 H4         70.4913   34.2933   26.0323 H         1 C4N         0.0579
     35 H5         71.4772   34.4200   24.0202 H         1 C4N         0.0503
     36 H6         72.7728   33.4158   22.1570 H         1 C4N         0.0582
     37 H7         71.0596   30.5527   25.8497 H         1 C4N         0.0497
     38 H8         66.9147   37.9320   21.1565 H         1 C4N         0.0487
     39 H9         65.5699   36.8218   20.7255 H         1 C4N         0.0487
     40 H10        67.2689   36.3508   20.3813 H         1 C4N         0.0487
     41 H11        66.3444   36.8840   24.3644 H         1 C4N         0.0685
     42 H12        66.7599   38.1834   23.1958 H         1 C4N         0.0685
     43 H13        67.7088   37.2942   26.0725 H         1 C4N         0.0558
     44 H14        69.9905   37.3043   27.0410 H         1 C4N         0.0606
     45 H15        73.0789   28.9312   23.0904 H         1 C4N         0.0390
     46 H16        71.5521   28.5915   23.9736 H         1 C4N         0.0390
     47 H17        73.0648   28.9157   24.8865 H         1 C4N         0.0390
     48 H18        68.6467   34.1074   23.7791 H         1 C4N         0.0649
     49 H19        66.4998   31.7961   28.1681 H         1 C4N         0.2381
     50 H20        73.2325   30.9780   22.1529 H         1 C4N         0.0501
     51 H21        71.6532   37.0671   23.0825 H         1 C4N         0.0606
     52 H22        69.3711   37.0482   22.1055 H         1 C4N         0.0558
@<TRIPOS>BOND
     1    1    2 ar 
     2    1   18 ar 
     3   19    1 1  
     4    2    3 ar 
     5    2    4 1  
     6    3    6 ar 
     7    5    6 ar 
     8    5    7 1  
     9   18    5 ar 
    10    6   22 1  
    11    7    8 1  
    12    7   23 2  
    13    8    9 1  
    14    9   10 ar 
    15    9   12 ar 
    16   10   11 ar 
    17   11   24 ar 
    18   12   25 ar 
    19   20   13 1  
    20   20   14 1  
    21   14   26 1  
    22   15   16 ar 
    23   26   15 ar 
    24   16   27 ar 
    25   25   17 1  
    26   19   20 am 
    27   19   21 2  
    28   22   23 1  
    29   24   25 ar 
    30   26   29 ar 
    31   27   28 ar 
    32   27   30 1  
    33   28   29 ar 
    34    3   31 1  
    35    4   32 1  
    36    8   33 1  
    37    8   34 1  
    38   10   35 1  
    39   11   36 1  
    40   12   37 1  
    41   13   38 1  
    42   13   39 1  
    43   13   40 1  
    44   14   41 1  
    45   14   42 1  
    46   15   43 1  
    47   16   44 1  
    48   17   45 1  
    49   17   46 1  
    50   17   47 1  
    51   18   48 1  
    52   22   49 1  
    53   24   50 1  
    54   28   51 1  
    55   29   52 1  
@<TRIPOS>SUBSTRUCTURE
     1 C4N         1

