### 
### Created by X-TOOL on Wed Jan  1 15:39:37 2020
### 

@<TRIPOS>MOLECULE
6eya_ligand
   52    56     1     0     0
SMALL
GAST_HUCK


@<TRIPOS>ATOM
      1 C1         65.9470   34.3770   23.9460 C.ar      1 C4K         0.0767
      2 C2         64.7540   34.0340   24.6450 C.ar      1 C4K         0.1009
      3 C3         64.8000   33.3560   25.8530 C.ar      1 C4K        -0.0048
      4 O5         63.5460   34.3180   24.0970 O.3       1 C4K        -0.3312
      5 C8         67.2470   33.4330   25.7700 C.ar      1 C4K         0.0144
      6 C9         66.0430   33.0690   26.4340 C.ar      1 C4K         0.0786
      7 C12        68.3350   32.9760   26.6340 C.2       1 C4K         0.0407
      8 C13        69.8190   33.1860   26.4500 C.3       1 C4K         0.0201
      9 C14        70.4980   32.5730   25.2550 C.ar      1 C4K        -0.0388
     10 C15        70.9100   33.4260   24.2440 C.ar      1 C4K        -0.0654
     11 C16        71.9900   31.6010   23.0750 C.ar      1 C4K        -0.0673
     12 C19        70.8720   31.2240   25.2020 C.ar      1 C4K        -0.0576
     13 C20        71.9870   29.3250   23.9660 C.3       1 C4K        -0.0327
     14 C21        69.6250   37.3410   24.1460 C.ar      1 C4K        -0.0539
     15 C22        68.7190   36.8780   23.2000 C.ar      1 C4K        -0.0604
     16 C24        66.8610   37.4540   24.6580 C.ar      1 C4K        -0.0204
     17 N25        66.4460   36.3760   22.4970 N.am      1 C4K        -0.2335
     18 C27        69.1500   37.8530   25.3550 C.ar      1 C4K         0.1079
     19 C30        68.8160   39.1130   27.1700 C.3       1 C4K         0.1837
     20 C4         67.1920   34.0500   24.5150 C.ar      1 C4K        -0.0460
     21 C6         65.8370   35.1520   22.6750 C.2       1 C4K         0.2212
     22 O7         65.0860   34.7120   21.8150 O.2       1 C4K        -0.3835
     23 N10        66.4080   32.4750   27.6110 N.pl3     1 C4K        -0.2272
     24 N11        67.7960   32.4850   27.7140 N.2       1 C4K        -0.2220
     25 C17        71.6190   30.7600   24.1040 C.ar      1 C4K        -0.0526
     26 C18        71.6350   32.9290   23.1610 C.ar      1 C4K        -0.0749
     27 C23        67.3340   36.9210   23.4500 C.ar      1 C4K         0.0484
     28 C26        66.2930   37.1140   21.2320 C.3       1 C4K         0.0413
     29 C28        67.7700   37.8970   25.6130 C.ar      1 C4K         0.1109
     30 O29        67.5810   38.4400   26.8470 O.3       1 C4K        -0.2947
     31 O31        69.8110   38.3760   26.4330 O.3       1 C4K        -0.3008
     32 H1         63.8831   33.0505   26.3440 H         1 C4K         0.0462
     33 H2         63.6724   34.7812   23.2772 H         1 C4K         0.2502
     34 H3         70.3154   32.7831   27.3451 H         1 C4K         0.0579
     35 H4         69.9870   34.2717   26.3949 H         1 C4K         0.0579
     36 H5         70.6685   34.4815   24.2947 H         1 C4K         0.0503
     37 H6         72.5454   31.2269   22.2226 H         1 C4K         0.0501
     38 H7         70.5889   30.5452   25.9983 H         1 C4K         0.0497
     39 H8         72.5664   29.1823   23.0419 H         1 C4K         0.0390
     40 H9         71.0730   28.7145   23.9236 H         1 C4K         0.0390
     41 H10        72.5938   29.0173   24.8303 H         1 C4K         0.0390
     42 H11        70.6901   37.3051   23.9475 H         1 C4K         0.0475
     43 H12        69.0821   36.4795   22.2596 H         1 C4K         0.0386
     44 H13        65.7955   37.5202   24.8459 H         1 C4K         0.0397
     45 H14        69.0158   39.0683   28.2508 H         1 C4K         0.0968
     46 H15        68.7864   40.1637   26.8457 H         1 C4K         0.0968
     47 H16        68.1081   34.2760   23.9814 H         1 C4K         0.0649
     48 H17        65.7597   32.0832   28.3090 H         1 C4K         0.2381
     49 H18        71.9267   33.6058   22.3661 H         1 C4K         0.0582
     50 H19        65.5784   36.5859   20.5836 H         1 C4K         0.0544
     51 H20        67.2674   37.1804   20.7260 H         1 C4K         0.0544
     52 H21        65.9188   38.1270   21.4414 H         1 C4K         0.0544
@<TRIPOS>BOND
     1    1    2 ar 
     2    1   20 ar 
     3   21    1 1  
     4    2    3 ar 
     5    2    4 1  
     6    3    6 ar 
     7    5    6 ar 
     8    5    7 1  
     9   20    5 ar 
    10    6   23 1  
    11    7    8 1  
    12    7   24 2  
    13    8    9 1  
    14    9   10 ar 
    15    9   12 ar 
    16   10   26 ar 
    17   25   11 ar 
    18   26   11 ar 
    19   12   25 ar 
    20   25   13 1  
    21   14   15 ar 
    22   18   14 ar 
    23   15   27 ar 
    24   16   27 ar 
    25   29   16 ar 
    26   17   21 am 
    27   27   17 1  
    28   17   28 1  
    29   18   29 ar 
    30   31   18 1  
    31   19   30 1  
    32   19   31 1  
    33   21   22 2  
    34   23   24 1  
    35   29   30 1  
    36    3   32 1  
    37    4   33 1  
    38    8   34 1  
    39    8   35 1  
    40   10   36 1  
    41   11   37 1  
    42   12   38 1  
    43   13   39 1  
    44   13   40 1  
    45   13   41 1  
    46   14   42 1  
    47   15   43 1  
    48   16   44 1  
    49   19   45 1  
    50   19   46 1  
    51   20   47 1  
    52   23   48 1  
    53   26   49 1  
    54   28   50 1  
    55   28   51 1  
    56   28   52 1  
@<TRIPOS>SUBSTRUCTURE
     1 C4K         1

