### 
### Created by X-TOOL on Wed Jan  1 15:39:36 2020
### 

@<TRIPOS>MOLECULE
6eyb_ligand
   46    50     1     0     0
SMALL
GAST_HUCK


@<TRIPOS>ATOM
      1 C1         65.1030   33.1410   25.6100 C.ar      1 C3Z        -0.0325
      2 C2         65.1050   33.8540   24.4180 C.ar      1 C3Z         0.1014
      3 C3         66.3170   34.2320   23.7890 C.ar      1 C3Z         0.0443
      4 C7         65.9630   35.9030   20.5420 C.2       1 C3Z        -0.0052
      5 C10        67.7310   36.9690   23.4400 C.ar      1 C3Z         0.1103
      6 C11        69.0900   37.1780   23.1490 C.ar      1 C3Z        -0.0257
      7 C12        69.9280   37.7650   24.1040 C.ar      1 C3Z        -0.0658
      8 C13        69.4170   38.1250   25.3540 C.ar      1 C3Z        -0.0686
      9 C14        68.0660   37.9070   25.6490 C.ar      1 C3Z        -0.0658
     10 C15        67.2200   37.3400   24.6980 C.ar      1 C3Z        -0.0257
     11 C19        68.6440   32.5660   26.3210 C.2       1 C3Z         0.1454
     12 C22        70.1180   32.7520   26.0280 C.3       1 C3Z         0.0761
     13 C24        70.7860   30.4410   25.2230 C.ar      1 C3Z        -0.0559
     14 C27        71.4180   29.6040   24.2990 C.ar      1 C3Z        -0.0675
     15 C4         67.5400   33.8320   24.3200 C.ar      1 C3Z        -0.0397
     16 C5         66.3190   35.0920   22.5820 C.2       1 C3Z         0.1030
     17 C6         65.7020   34.8290   21.3940 C.2       1 C3Z        -0.0413
     18 N8         66.7020   36.7810   21.1690 N.2       1 C3Z        -0.2074
     19 N9         66.9190   36.3270   22.4730 N.pl3     1 C3Z        -0.1600
     20 O16        63.9330   34.2390   23.8710 O.3       1 C3Z        -0.3296
     21 C17        66.3480   32.7530   26.1600 C.ar      1 C3Z        -0.0453
     22 C18        67.5620   33.1020   25.5110 C.ar      1 C3Z         0.0397
     23 N20        68.1080   32.0480   27.4080 N.pl3     1 C3Z        -0.2567
     24 N21        66.7200   32.0960   27.3130 N.2       1 C3Z        -0.3962
     25 C23        70.7190   31.8160   24.9990 C.ar      1 C3Z        -0.0166
     26 C25        72.0010   30.1350   23.1500 C.ar      1 C3Z        -0.0680
     27 C26        71.9580   31.5150   22.9310 C.ar      1 C3Z        -0.0675
     28 C28        71.3280   32.3490   23.8600 C.ar      1 C3Z        -0.0559
     29 H1         64.1727   32.8885   26.1058 H         1 C3Z         0.0538
     30 H2         65.6074   35.9954   19.5168 H         1 C3Z         0.0663
     31 H3         69.4892   36.8845   22.1848 H         1 C3Z         0.0586
     32 H4         70.9728   37.9403   23.8743 H         1 C3Z         0.0600
     33 H5         70.0676   38.5736   26.0960 H         1 C3Z         0.0558
     34 H6         67.6759   38.1808   26.6226 H         1 C3Z         0.0600
     35 H7         66.1717   37.1851   24.9262 H         1 C3Z         0.0586
     36 H8         70.6678   32.6121   26.9704 H         1 C3Z         0.0778
     37 H9         70.2615   33.7819   25.6691 H         1 C3Z         0.0778
     38 H10        70.3453   30.0190   26.1190 H         1 C3Z         0.0567
     39 H11        71.4549   28.5354   24.4773 H         1 C3Z         0.0601
     40 H12        68.4654   34.0842   23.8148 H         1 C3Z         0.0608
     41 H13        65.1142   33.9441   21.1547 H         1 C3Z         0.0346
     42 H14        63.2152   33.9128   24.4010 H         1 C3Z         0.2503
     43 H15        68.6356   31.6660   28.2059 H         1 C3Z         0.2722
     44 H16        72.4842   29.4829   22.4315 H         1 C3Z         0.0565
     45 H17        72.4124   31.9380   22.0423 H         1 C3Z         0.0601
     46 H18        71.3119   33.4202   23.6948 H         1 C3Z         0.0567
@<TRIPOS>BOND
     1    2    1 ar 
     2    1   21 ar 
     3    3    2 ar 
     4    2   20 1  
     5    3   15 ar 
     6   16    3 1  
     7   17    4 1  
     8    4   18 2  
     9    5    6 ar 
    10    5   10 ar 
    11   19    5 1  
    12    6    7 ar 
    13    7    8 ar 
    14    9    8 ar 
    15   10    9 ar 
    16   11   12 1  
    17   22   11 2  
    18   11   23 1  
    19   12   25 1  
    20   13   14 ar 
    21   25   13 ar 
    22   14   26 ar 
    23   15   22 ar 
    24   16   17 2  
    25   16   19 1  
    26   18   19 1  
    27   21   22 ar 
    28   21   24 2  
    29   23   24 1  
    30   25   28 ar 
    31   26   27 ar 
    32   27   28 ar 
    33    1   29 1  
    34    4   30 1  
    35    6   31 1  
    36    7   32 1  
    37    8   33 1  
    38    9   34 1  
    39   10   35 1  
    40   12   36 1  
    41   12   37 1  
    42   13   38 1  
    43   14   39 1  
    44   15   40 1  
    45   17   41 1  
    46   20   42 1  
    47   23   43 1  
    48   26   44 1  
    49   27   45 1  
    50   28   46 1  
@<TRIPOS>SUBSTRUCTURE
     1 C3Z         1

