### 
### Created by X-TOOL on Mon Sep 10 21:13:32 2018
### 

@<TRIPOS>MOLECULE
6eyz_ligand
   64    68     1     0     0
SMALL
GAST_HUCK


@<TRIPOS>ATOM
      1 C20        -8.2520  -31.3610   23.9570 C.ar      1 C5W        -0.0411
      2 C21        -6.9600  -31.5880   24.4290 C.ar      1 C5W         0.0481
      3 C22        -6.3840  -32.9240   24.2220 C.2       1 C5W         0.1944
      4 C24        -6.0210  -34.9640   23.7950 C.2       1 C5W         0.0012
      5 C26        -3.5030  -35.0040   24.5020 C.3       1 C5W         0.0376
      6 C28        -1.1460  -35.0550   23.9940 C.3       1 C5W         0.0111
      7 C29        -0.1280  -35.1450   22.8690 C.3       1 C5W         0.0097
      8 N30        -0.2560  -34.0040   21.9420 N.4       1 C5W         0.2445
      9 O10       -10.9240  -30.7920   19.5430 O.2       1 C5W        -0.3656
     10 C35         0.7980  -32.6720   20.1410 C.3       1 C5W        -0.0218
     11 C25        -4.8400  -34.4500   24.1560 C.2       1 C5W         0.1646
     12 O02       -13.9300  -29.3140   21.9000 O.3       1 C5W        -0.2959
     13 C06       -10.2480  -29.9590   23.5740 C.ar      1 C5W         0.0046
     14 C01       -14.9050  -28.6130   22.6690 C.3       1 C5W         0.0652
     15 C19        -8.8870  -30.1210   24.1190 C.ar      1 C5W        -0.0155
     16 C03       -12.7350  -29.5700   22.4800 C.ar      1 C5W         0.1856
     17 C05       -11.3330  -29.4970   24.2960 C.ar      1 C5W         0.0131
     18 C41        -6.9360  -29.2860   25.2390 C.ar      1 C5W        -0.0132
     19 C07       -10.4530  -30.2420   22.2310 C.ar      1 C5W        -0.0241
     20 C34         2.0610  -34.5940   21.1270 C.3       1 C5W        -0.0218
     21 C33         0.6760  -34.0360   20.7930 C.3       1 C5W        -0.0262
     22 C37        -6.3060  -30.5280   25.0780 C.ar      1 C5W         0.0448
     23 N39        -4.8680  -29.1730   26.1580 N.pl3     1 C5W        -0.2447
     24 C38        -5.0320  -30.3900   25.6730 C.2       1 C5W         0.1098
     25 C31        -1.6360  -33.8850   21.4470 C.3       1 C5W         0.0097
     26 O36        -5.0510  -33.1080   24.4100 O.3       1 C5W        -0.2208
     27 C32        -2.6170  -33.8100   22.5980 C.3       1 C5W         0.0111
     28 C09       -11.8350  -30.2970   20.2000 C.2       1 C5W         0.1293
     29 N27        -2.5030  -34.9970   23.4430 N.4       1 C5W         0.2578
     30 C42        -8.2280  -29.0670   24.7630 C.ar      1 C5W        -0.0518
     31 N40        -6.0220  -28.4960   25.8990 N.2       1 C5W        -0.3344
     32 N23        -7.0060  -34.0000   23.8570 N.2       1 C5W        -0.3177
     33 N04       -12.5490  -29.3060   23.7680 N.ar      1 C5W        -0.2649
     34 C08       -11.6960  -30.0530   21.6440 C.ar      1 C5W         0.0881
     35 H1         -8.7788  -32.1627   23.4523 H         1 C5W         0.0629
     36 H2         -6.1823  -35.9982   23.4944 H         1 C5W         0.0406
     37 H3         -3.6456  -36.0473   24.8201 H         1 C5W         0.1027
     38 H4         -3.1046  -34.4158   25.3418 H         1 C5W         0.1027
     39 H5         -0.9548  -34.1477   24.5858 H         1 C5W         0.0868
     40 H6         -1.0534  -35.9405   24.6400 H         1 C5W         0.0868
     41 H7         -0.2900  -36.0797   22.3122 H         1 C5W         0.0868
     42 H8          0.8841  -35.1456   23.2999 H         1 C5W         0.0868
     43 H9         -0.0449  -33.1728   22.4717 H         1 C5W         0.2040
     44 H10         1.4964  -32.7320   19.2932 H         1 C5W         0.0284
     45 H11         1.1757  -31.9465   20.8765 H         1 C5W         0.0284
     46 H12        -0.1895  -32.3483   19.7803 H         1 C5W         0.0284
     47 H13       -15.8177  -28.4794   22.0698 H         1 C5W         0.0588
     48 H14       -14.5072  -27.6284   22.9557 H         1 C5W         0.0588
     49 H15       -15.1423  -29.1905   23.5746 H         1 C5W         0.0588
     50 H16       -11.1916  -29.2771   25.3480 H         1 C5W         0.0836
     51 H17        -9.6305  -30.6160   21.6321 H         1 C5W         0.0769
     52 H18         2.6883  -34.5830   20.2235 H         1 C5W         0.0284
     53 H19         1.9619  -35.6269   21.4920 H         1 C5W         0.0284
     54 H20         2.5285  -33.9732   21.9055 H         1 C5W         0.0284
     55 H21         0.2326  -34.7145   20.0493 H         1 C5W         0.0846
     56 H22        -4.0328  -28.8075   26.6374 H         1 C5W         0.2935
     57 H23        -4.2855  -31.1812   25.7246 H         1 C5W         0.1369
     58 H24        -1.8736  -34.7624   20.8276 H         1 C5W         0.0868
     59 H25        -1.7234  -32.9725   20.8390 H         1 C5W         0.0868
     60 H26        -3.6400  -33.7463   22.1987 H         1 C5W         0.0868
     61 H27        -2.4018  -32.9147   23.1998 H         1 C5W         0.0868
     62 H28       -12.7671  -30.0325   19.7028 H         1 C5W         0.1328
     63 H29        -2.6516  -35.8125   22.8694 H         1 C5W         0.2055
     64 H30        -8.7104  -28.1044   24.8885 H         1 C5W         0.0618
@<TRIPOS>BOND
     1    1    2 ar 
     2   15    1 ar 
     3    2    3 1  
     4    2   22 ar 
     5    3   26 1  
     6    3   32 2  
     7    4   11 2  
     8   32    4 1  
     9   11    5 1  
    10    5   29 1  
    11    6    7 1  
    12   29    6 1  
    13    7    8 1  
    14    8   21 1  
    15   25    8 1  
    16   28    9 2  
    17   21   10 1  
    18   26   11 1  
    19   12   14 1  
    20   16   12 1  
    21   13   15 1  
    22   13   17 ar 
    23   19   13 ar 
    24   15   30 ar 
    25   16   33 ar 
    26   34   16 ar 
    27   33   17 ar 
    28   18   22 ar 
    29   30   18 ar 
    30   18   31 2  
    31   34   19 ar 
    32   21   20 1  
    33   22   24 2  
    34   23   24 1  
    35   31   23 1  
    36   27   25 1  
    37   29   27 1  
    38   28   34 1  
    39    1   35 1  
    40    4   36 1  
    41    5   37 1  
    42    5   38 1  
    43    6   39 1  
    44    6   40 1  
    45    7   41 1  
    46    7   42 1  
    47    8   43 1  
    48   10   44 1  
    49   10   45 1  
    50   10   46 1  
    51   14   47 1  
    52   14   48 1  
    53   14   49 1  
    54   17   50 1  
    55   19   51 1  
    56   20   52 1  
    57   20   53 1  
    58   20   54 1  
    59   21   55 1  
    60   23   56 1  
    61   24   57 1  
    62   25   58 1  
    63   25   59 1  
    64   27   60 1  
    65   27   61 1  
    66   28   62 1  
    67   29   63 1  
    68   30   64 1  
@<TRIPOS>SUBSTRUCTURE
     1 C5W         1

