### 
### Created by X-TOOL on Mon Sep 10 21:13:32 2018
### 

@<TRIPOS>MOLECULE
6ez6_ligand
   68    72     1     0     0
SMALL
GAST_HUCK


@<TRIPOS>ATOM
      1 C15       -12.8120  -29.8090   22.3230 C.ar      1 C5Z         0.1881
      2 C17       -14.8590  -28.5990   22.2220 C.3       1 C5Z         0.0651
      3 C21        -8.9920  -30.2820   24.0600 C.ar      1 C5Z        -0.0155
      4 C22        -8.2410  -31.4560   23.9050 C.ar      1 C5Z        -0.0411
      5 C24        -6.9390  -31.5820   24.4040 C.ar      1 C5Z         0.0481
      6 C01       -11.9560  -33.7980   20.4530 C.3       1 C5Z         0.0645
      7 O05       -11.4310  -32.4670   20.1990 O.3       1 C5Z        -0.2816
      8 C06       -12.2690  -31.4630   20.4450 C.2       1 C5Z         0.2654
      9 O07       -13.2410  -31.2600   19.7840 O.2       1 C5Z        -0.3601
     10 C08       -11.9210  -30.6920   21.6780 C.ar      1 C5Z         0.1198
     11 C09       -10.6590  -30.8380   22.2700 C.ar      1 C5Z        -0.0215
     12 C11       -10.3480  -30.1660   23.4520 C.ar      1 C5Z         0.0045
     13 C12       -11.3190  -29.3210   23.9720 C.ar      1 C5Z         0.0129
     14 N14       -12.5430  -29.1710   23.4500 N.ar      1 C5Z        -0.2651
     15 O16       -14.0260  -29.6550   21.7460 O.3       1 C5Z        -0.2961
     16 C25        -6.2610  -32.8760   24.2440 C.2       1 C5Z         0.1944
     17 N26        -6.7370  -33.9560   23.7070 N.2       1 C5Z        -0.3177
     18 C27        -5.7060  -34.8610   23.7640 C.2       1 C5Z         0.0012
     19 C29        -4.6410  -34.3210   24.3420 C.2       1 C5Z         0.1646
     20 C30        -3.2690  -34.8000   24.6700 C.3       1 C5Z         0.0376
     21 N33        -2.3290  -34.8050   23.5510 N.4       1 C5Z         0.2578
     22 C34        -2.3630  -33.5370   22.8130 C.3       1 C5Z         0.0111
     23 C37        -1.4380  -33.5920   21.6060 C.3       1 C5Z         0.0097
     24 N40        -0.0500  -33.8600   22.0470 N.4       1 C5Z         0.2445
     25 C41        -0.0190  -35.1310   22.8030 C.3       1 C5Z         0.0097
     26 C44        -0.9570  -35.0770   23.9960 C.3       1 C5Z         0.0111
     27 C47         0.9410  -33.8190   20.9220 C.3       1 C5Z        -0.0262
     28 C49         0.6780  -32.6760   19.9570 C.3       1 C5Z        -0.0218
     29 C53         2.3840  -33.7750   21.4160 C.3       1 C5Z        -0.0218
     30 O57        -4.9610  -33.0110   24.6490 O.3       1 C5Z        -0.2208
     31 C58        -6.3360  -30.4670   25.0200 C.ar      1 C5Z         0.0448
     32 C59        -5.0660  -30.1600   25.5600 C.2       1 C5Z         0.1098
     33 N61        -5.0340  -28.9120   25.9830 N.pl3     1 C5Z        -0.2447
     34 N62        -6.2600  -28.3720   25.6960 N.2       1 C5Z        -0.3344
     35 C64        -7.0620  -29.2680   25.0700 C.ar      1 C5Z        -0.0132
     36 C65        -8.3850  -29.1660   24.6520 C.ar      1 C5Z        -0.0518
     37 H1        -15.8060  -28.5983   21.6623 H         1 C5Z         0.0587
     38 H2        -14.3477  -27.6357   22.0787 H         1 C5Z         0.0587
     39 H3        -15.0656  -28.7488   23.2920 H         1 C5Z         0.0587
     40 H4         -8.6839  -32.2950   23.3807 H         1 C5Z         0.0629
     41 H5        -11.1855  -34.5471   20.2179 H         1 C5Z         0.0575
     42 H6        -12.8397  -33.9704   19.8211 H         1 C5Z         0.0575
     43 H7        -12.2401  -33.8842   21.5122 H         1 C5Z         0.0575
     44 H8         -9.9183  -31.4787   21.8053 H         1 C5Z         0.0768
     45 H9        -11.0706  -28.7461   24.8568 H         1 C5Z         0.0835
     46 H10        -5.7557  -35.8814   23.3868 H         1 C5Z         0.0406
     47 H11        -3.3495  -35.8285   25.0517 H         1 C5Z         0.1027
     48 H12        -2.8595  -34.1482   25.4558 H         1 C5Z         0.1027
     49 H13        -2.6058  -35.5419   22.9214 H         1 C5Z         0.2055
     50 H14        -2.0399  -32.7230   23.4786 H         1 C5Z         0.0868
     51 H15        -3.3910  -33.3454   22.4716 H         1 C5Z         0.0868
     52 H16        -1.4727  -32.6290   21.0756 H         1 C5Z         0.0868
     53 H17        -1.7675  -34.3949   20.9302 H         1 C5Z         0.0868
     54 H18         0.2098  -33.1246   22.6855 H         1 C5Z         0.2040
     55 H19         1.0057  -35.3130   23.1590 H         1 C5Z         0.0868
     56 H20        -0.3279  -35.9520   22.1393 H         1 C5Z         0.0868
     57 H21        -0.9306  -36.0423   24.5227 H         1 C5Z         0.0868
     58 H22        -0.6313  -34.2780   24.6782 H         1 C5Z         0.0868
     59 H23         0.8192  -34.7553   20.3577 H         1 C5Z         0.0846
     60 H24         1.4307  -32.6927   19.1550 H         1 C5Z         0.0284
     61 H25         0.7384  -31.7193   20.4965 H         1 C5Z         0.0284
     62 H26        -0.3254  -32.7881   19.5205 H         1 C5Z         0.0284
     63 H27         3.0661  -33.7461   20.5535 H         1 C5Z         0.0284
     64 H28         2.5928  -34.6712   22.0187 H         1 C5Z         0.0284
     65 H29         2.5335  -32.8759   22.0319 H         1 C5Z         0.0284
     66 H30        -4.2312  -30.8569   25.6183 H         1 C5Z         0.1369
     67 H31        -4.2427  -28.4362   26.4396 H         1 C5Z         0.2935
     68 H32        -8.9357  -28.2413   24.7817 H         1 C5Z         0.0618
@<TRIPOS>BOND
     1   10    1 ar 
     2    1   14 ar 
     3    1   15 1  
     4   15    2 1  
     5    3    4 ar 
     6   12    3 1  
     7    3   36 ar 
     8    4    5 ar 
     9    5   16 1  
    10    5   31 ar 
    11    7    6 1  
    12    8    7 1  
    13    8    9 2  
    14   10    8 1  
    15   11   10 ar 
    16   11   12 ar 
    17   12   13 ar 
    18   13   14 ar 
    19   16   17 2  
    20   16   30 1  
    21   17   18 1  
    22   18   19 2  
    23   19   20 1  
    24   19   30 1  
    25   20   21 1  
    26   21   22 1  
    27   21   26 1  
    28   22   23 1  
    29   23   24 1  
    30   24   25 1  
    31   24   27 1  
    32   25   26 1  
    33   27   28 1  
    34   27   29 1  
    35   31   32 2  
    36   31   35 ar 
    37   32   33 1  
    38   33   34 1  
    39   34   35 2  
    40   35   36 ar 
    41    2   37 1  
    42    2   38 1  
    43    2   39 1  
    44    4   40 1  
    45    6   41 1  
    46    6   42 1  
    47    6   43 1  
    48   11   44 1  
    49   13   45 1  
    50   18   46 1  
    51   20   47 1  
    52   20   48 1  
    53   21   49 1  
    54   22   50 1  
    55   22   51 1  
    56   23   52 1  
    57   23   53 1  
    58   24   54 1  
    59   25   55 1  
    60   25   56 1  
    61   26   57 1  
    62   26   58 1  
    63   27   59 1  
    64   28   60 1  
    65   28   61 1  
    66   28   62 1  
    67   29   63 1  
    68   29   64 1  
    69   29   65 1  
    70   32   66 1  
    71   33   67 1  
    72   36   68 1  
@<TRIPOS>SUBSTRUCTURE
     1 C5Z         1

