### 
### Created by X-TOOL on Mon Aug  2 16:13:20 2021
### 

@<TRIPOS>MOLECULE
6ez9_ligand
   37    36     1     0     0
SMALL
GAST_HUCK


@<TRIPOS>ATOM
      1 OE1        13.8170   48.7010   40.9080 O.co2     1 C68        -0.5690
      2 CD         13.8910   47.5060   40.6200 C.2       1 C68         0.0350
      3 OE2        13.0740   46.9000   39.8960 O.co2     1 C68        -0.5690
      4 CG         15.1730   46.7800   41.0760 C.3       1 C68         0.0038
      5 CB         14.9130   45.3230   41.4820 C.3       1 C68        -0.0064
      6 CA         16.2640   44.5960   41.7560 C.3       1 C68         0.0977
      7 C          17.1320   44.6390   40.4860 C.2       1 C68         0.0602
      8 OXT        18.0870   45.4630   40.4240 O.co2     1 C68        -0.5666
      9 O          16.8530   43.7790   39.6300 O.co2     1 C68        -0.5666
     10 N          16.9960   45.2400   42.8530 N.am      1 C68        -0.2468
     11 CAR        18.1810   44.7770   43.2700 C.2       1 C68         0.3232
     12 OAF        18.6540   43.7560   42.7710 O.2       1 C68        -0.3774
     13 OAN        18.7790   45.4590   44.2650 O.3       1 C68        -0.2458
     14 CAU        20.1650   45.2980   44.5900 C.3       1 C68         0.1402
     15 CAQ        20.3040   45.8330   46.0240 C.2       1 C68         0.0684
     16 OAI        19.8580   46.9880   46.2450 O.co2     1 C68        -0.5661
     17 OAE        20.8110   45.0550   46.8620 O.co2     1 C68        -0.5661
     18 CAL        20.9820   46.1300   43.5940 C.3       1 C68        -0.0079
     19 CAS        22.4740   46.2230   43.9760 C.3       1 C68        -0.0425
     20 CAB        23.1970   47.0480   42.9140 C.3       1 C68        -0.0625
     21 CAA        23.1080   44.8240   44.0550 C.3       1 C68        -0.0625
     22 H1         15.5938   47.3165   41.9392 H         1 C68         0.0432
     23 H2         15.8976   46.7912   40.2485 H         1 C68         0.0432
     24 H3         14.3807   44.8078   40.6688 H         1 C68         0.0323
     25 H4         14.2975   45.3032   42.3935 H         1 C68         0.0323
     26 H5         16.0598   43.5492   42.0250 H         1 C68         0.0726
     27 H6         16.6007   46.0429   43.2992 H         1 C68         0.1891
     28 H7         20.4694   44.2422   44.5390 H         1 C68         0.0819
     29 H8         20.5640   47.1469   43.5592 H         1 C68         0.0314
     30 H9         20.9019   45.6664   42.5997 H         1 C68         0.0314
     31 H10        22.5685   46.7171   44.9542 H         1 C68         0.0297
     32 H11        24.2636   47.1239   43.1720 H         1 C68         0.0232
     33 H12        22.7577   48.0555   42.8704 H         1 C68         0.0232
     34 H13        23.0907   46.5589   41.9345 H         1 C68         0.0232
     35 H14        22.5880   44.2285   44.8198 H         1 C68         0.0232
     36 H15        24.1707   44.9176   44.3231 H         1 C68         0.0232
     37 H16        23.0187   44.3253   43.0787 H         1 C68         0.0232
@<TRIPOS>BOND
     1    1    2 ar 
     2    2    3 ar 
     3    2    4 1  
     4    4    5 1  
     5    5    6 1  
     6    6    7 1  
     7    6   10 1  
     8    7    8 ar 
     9    7    9 ar 
    10   10   11 am 
    11   11   12 2  
    12   11   13 1  
    13   13   14 1  
    14   14   15 1  
    15   14   18 1  
    16   15   16 ar 
    17   15   17 ar 
    18   18   19 1  
    19   19   20 1  
    20   19   21 1  
    21    4   22 1  
    22    4   23 1  
    23    5   24 1  
    24    5   25 1  
    25    6   26 1  
    26   10   27 1  
    27   14   28 1  
    28   18   29 1  
    29   18   30 1  
    30   19   31 1  
    31   20   32 1  
    32   20   33 1  
    33   20   34 1  
    34   21   35 1  
    35   21   36 1  
    36   21   37 1  
@<TRIPOS>SUBSTRUCTURE
     1 C68         1

