### 
### Created by X-TOOL on Wed Jan  1 15:39:36 2020
### 

@<TRIPOS>MOLECULE
6ezg_ligand
   57    60     1     0     0
SMALL
GAST_HUCK


@<TRIPOS>ATOM
      1 C10        -4.9750   -2.5110   52.5400 C.3       1 C6K        -0.0093
      2 N12        -4.1760   -3.7030   54.5880 N.4       1 C6K         0.2472
      3 C13        -3.6290   -4.7100   54.9810 C.3       1 C6K         0.0019
      4 C15        -1.4940   -3.8130   56.0200 C.ar      1 C6K        -0.0553
      5 C17         0.6790   -4.2670   55.1140 C.ar      1 C6K        -0.0687
      6 C20        -5.5010   -3.6970   55.0860 C.3       1 C6K        -0.0302
      7 C21        -6.4200   -2.6510   54.4280 C.3       1 C6K        -0.0093
      8 C22        -8.4240    1.2490   52.8030 C.ar      1 C6K        -0.0538
      9 C28        -9.7780    4.6850   50.5930 C.2       1 C6K        -0.0639
     10 C01        -7.3450    1.9250   48.5140 C.3       1 C6K         0.0617
     11 O02        -7.2310    2.8470   49.6330 O.3       1 C6K        -0.3170
     12 C03        -8.0150    2.6080   50.7930 C.ar      1 C6K         0.1051
     13 C04        -7.6920    1.5050   51.6290 C.ar      1 C6K         0.0454
     14 C05        -6.5530    0.6260   51.2570 C.2       1 C6K         0.1171
     15 O06        -5.4690    1.1460   51.0060 O.2       1 C6K        -0.3914
     16 C07        -6.7080   -0.8840   51.1670 C.3       1 C6K         0.0186
     17 C08        -7.1910   -1.4670   52.4630 C.3       1 C6K        -0.0349
     18 C09        -6.3290   -2.6550   52.9760 C.3       1 C6K        -0.0295
     19 C11        -4.1290   -3.6430   53.1110 C.3       1 C6K        -0.0302
     20 C14        -2.0570   -4.5390   55.0330 C.ar      1 C6K         0.0014
     21 C16        -0.1130   -3.6590   56.0710 C.ar      1 C6K        -0.0684
     22 C18         0.1010   -5.0220   54.1020 C.ar      1 C6K        -0.0684
     23 C19        -1.2340   -5.1670   54.0480 C.ar      1 C6K        -0.0553
     24 C23        -9.5240    2.0950   53.1600 C.ar      1 C6K         0.0501
     25 CL        -10.4160    1.7530   54.5880 Cl        1 C6K        -0.0884
     26 C25        -9.8910    3.2510   52.3170 C.ar      1 C6K         0.0744
     27 N26       -10.8830    4.1890   52.4650 N.pl3     1 C6K        -0.2822
     28 C27       -10.8110    5.0540   51.4190 C.2       1 C6K         0.0180
     29 C29        -9.1780    3.5140   51.1790 C.ar      1 C6K         0.0137
     30 H1         -4.5788   -1.5462   52.8895 H         1 C6K         0.0320
     31 H2         -4.9389   -2.5459   51.4412 H         1 C6K         0.0320
     32 H3         -3.6902   -2.8988   54.9531 H         1 C6K         0.2048
     33 H4         -3.8752   -5.5384   54.3005 H         1 C6K         0.0980
     34 H5         -3.9958   -4.9440   55.9913 H         1 C6K         0.0980
     35 H6         -2.1187   -3.3489   56.7746 H         1 C6K         0.0558
     36 H7          1.7563   -4.1536   55.1541 H         1 C6K         0.0559
     37 H8         -5.4624   -3.4911   56.1658 H         1 C6K         0.0815
     38 H9         -5.9368   -4.6929   54.9180 H         1 C6K         0.0815
     39 H10        -6.1367   -1.6535   54.7952 H         1 C6K         0.0320
     40 H11        -7.4597   -2.8660   54.7156 H         1 C6K         0.0320
     41 H12        -8.1558    0.4119   53.4373 H         1 C6K         0.0553
     42 H13        -9.4718    5.1814   49.6733 H         1 C6K         0.0287
     43 H14        -6.6775    2.2495   47.7021 H         1 C6K         0.0583
     44 H15        -8.3838    1.9139   48.1523 H         1 C6K         0.0583
     45 H16        -7.0598    0.9142   48.8412 H         1 C6K         0.0583
     46 H17        -5.7336   -1.3288   50.9165 H         1 C6K         0.0480
     47 H18        -7.4341   -1.1220   50.3757 H         1 C6K         0.0480
     48 H19        -8.2221   -1.8227   52.3205 H         1 C6K         0.0292
     49 H20        -7.1786   -0.6746   53.2259 H         1 C6K         0.0292
     50 H21        -6.7304   -3.6014   52.5847 H         1 C6K         0.0306
     51 H22        -3.0850   -3.4942   52.7981 H         1 C6K         0.0815
     52 H23        -4.5000   -4.5970   52.7083 H         1 C6K         0.0815
     53 H24         0.3404   -3.0656   56.8567 H         1 C6K         0.0599
     54 H25         0.7275   -5.4951   53.3545 H         1 C6K         0.0599
     55 H26        -1.6851   -5.7586   53.2596 H         1 C6K         0.0558
     56 H27       -11.5645    4.2300   53.2362 H         1 C6K         0.2269
     57 H28       -11.4697    5.9066   51.2607 H         1 C6K         0.0889
@<TRIPOS>BOND
     1   18    1 1  
     2    1   19 1  
     3    2    3 1  
     4    6    2 1  
     5   19    2 1  
     6    3   20 1  
     7   20    4 ar 
     8    4   21 ar 
     9   21    5 ar 
    10    5   22 ar 
    11    7    6 1  
    12   18    7 1  
    13   13    8 ar 
    14    8   24 ar 
    15    9   28 2  
    16   29    9 1  
    17   11   10 1  
    18   12   11 1  
    19   13   12 ar 
    20   12   29 ar 
    21   14   13 1  
    22   14   15 2  
    23   16   14 1  
    24   17   16 1  
    25   17   18 1  
    26   20   23 ar 
    27   22   23 ar 
    28   24   25 1  
    29   24   26 ar 
    30   26   27 1  
    31   26   29 ar 
    32   27   28 1  
    33    1   30 1  
    34    1   31 1  
    35    2   32 1  
    36    3   33 1  
    37    3   34 1  
    38    4   35 1  
    39    5   36 1  
    40    6   37 1  
    41    6   38 1  
    42    7   39 1  
    43    7   40 1  
    44    8   41 1  
    45    9   42 1  
    46   10   43 1  
    47   10   44 1  
    48   10   45 1  
    49   16   46 1  
    50   16   47 1  
    51   17   48 1  
    52   17   49 1  
    53   18   50 1  
    54   19   51 1  
    55   19   52 1  
    56   21   53 1  
    57   22   54 1  
    58   23   55 1  
    59   27   56 1  
    60   28   57 1  
@<TRIPOS>SUBSTRUCTURE
     1 C6K         1

