### 
### Created by X-TOOL on Wed Jan  1 15:39:38 2020
### 

@<TRIPOS>MOLECULE
6ezh_ligand
   63    66     1     0     0
SMALL
GAST_HUCK


@<TRIPOS>ATOM
      1 C01        -8.3390    1.2470   55.1230 C.3       1 C6H         0.0617
      2 O02        -8.9670    0.8050   54.0020 O.3       1 C6H        -0.3170
      3 C03        -9.0740    1.7640   52.9960 C.ar      1 C6H         0.1051
      4 C04        -8.2420    1.7300   51.8590 C.ar      1 C6H         0.0454
      5 C05        -7.1350    0.6080   51.6220 C.2       1 C6H         0.1171
      6 O06        -6.1060    0.8100   50.9810 O.2       1 C6H        -0.3914
      7 C07        -7.3480   -0.7970   52.1870 C.3       1 C6H         0.0186
      8 C08        -6.2250   -1.7310   51.6770 C.3       1 C6H        -0.0349
      9 C09        -5.1680   -1.9430   52.9040 C.3       1 C6H        -0.0295
     10 C10        -5.9250   -2.3740   54.0620 C.3       1 C6H        -0.0094
     11 C11        -5.1960   -3.2060   55.1000 C.3       1 C6H        -0.0316
     12 N12        -4.0230   -3.9460   54.6470 N.4       1 C6H         0.2354
     13 C13        -3.0110   -3.4510   55.1150 C.3       1 C6H        -0.0290
     14 C14        -1.6250   -4.0370   54.7770 C.3       1 C6H        -0.0008
     15 C15        -0.6440   -3.5270   55.8240 C.3       1 C6H        -0.0454
     16 C16         0.7950   -3.9020   55.4770 C.3       1 C6H        -0.0526
     17 C17         0.9440   -5.4000   55.2080 C.3       1 C6H        -0.0530
     18 C18        -0.1190   -5.9480   54.2530 C.3       1 C6H        -0.0526
     19 C19        -1.5090   -5.5760   54.7490 C.3       1 C6H        -0.0454
     20 C20        -4.0350   -4.1160   53.2140 C.3       1 C6H        -0.0316
     21 C21        -4.1150   -2.8380   52.4330 C.3       1 C6H        -0.0094
     22 C22        -8.4260    2.7260   50.8920 C.ar      1 C6H        -0.0538
     23 C23        -9.4130    3.7530   50.9940 C.ar      1 C6H         0.0501
     24 CL         -9.5770    4.9600   49.7260 Cl        1 C6H        -0.0884
     25 C25       -10.2300    3.7800   52.1550 C.ar      1 C6H         0.0744
     26 N26       -11.2240    4.6340   52.5350 N.pl3     1 C6H        -0.2822
     27 C27       -11.7140    4.2760   53.7110 C.2       1 C6H         0.0180
     28 C28       -11.0400    3.1130   54.1820 C.2       1 C6H        -0.0639
     29 C29       -10.0640    2.8010   53.1370 C.ar      1 C6H         0.0137
     30 H1         -8.2960    0.4348   55.8636 H         1 C6H         0.0583
     31 H2         -8.8952    2.0977   55.5437 H         1 C6H         0.0583
     32 H3         -7.3174    1.5663   54.8693 H         1 C6H         0.0583
     33 H4         -8.3239   -1.1817   51.8561 H         1 C6H         0.0480
     34 H5         -7.3225   -0.7585   53.2860 H         1 C6H         0.0480
     35 H6         -5.7153   -1.2711   50.8175 H         1 C6H         0.0292
     36 H7         -6.6501   -2.6998   51.3759 H         1 C6H         0.0292
     37 H8         -4.6982   -0.9802   53.1534 H         1 C6H         0.0306
     38 H9         -6.7746   -2.9704   53.6980 H         1 C6H         0.0320
     39 H10        -6.3000   -1.4712   54.5663 H         1 C6H         0.0320
     40 H11        -5.9131   -3.9353   55.5049 H         1 C6H         0.0814
     41 H12        -4.8712   -2.5269   55.9021 H         1 C6H         0.0814
     42 H13        -4.0885   -4.8733   55.0367 H         1 C6H         0.2033
     43 H14        -3.1144   -3.4971   56.2091 H         1 C6H         0.0817
     44 H15        -2.9959   -2.3996   54.7921 H         1 C6H         0.0817
     45 H16        -1.3353   -3.6607   53.7848 H         1 C6H         0.0352
     46 H17        -0.9020   -3.9664   56.7988 H         1 C6H         0.0270
     47 H18        -0.7228   -2.4314   55.8832 H         1 C6H         0.0270
     48 H19         1.4476   -3.6250   56.3181 H         1 C6H         0.0265
     49 H20         1.1003   -3.3470   54.5777 H         1 C6H         0.0265
     50 H21         0.8649   -5.9369   56.1648 H         1 C6H         0.0265
     51 H22         1.9359   -5.5795   54.7676 H         1 C6H         0.0265
     52 H23        -0.0321   -7.0433   54.2016 H         1 C6H         0.0265
     53 H24         0.0364   -5.5204   53.2515 H         1 C6H         0.0265
     54 H25        -2.2684   -5.9928   54.0711 H         1 C6H         0.0270
     55 H26        -1.6612   -5.9778   55.7616 H         1 C6H         0.0270
     56 H27        -4.9053   -4.7345   52.9494 H         1 C6H         0.0814
     57 H28        -3.1118   -4.6384   52.9230 H         1 C6H         0.0814
     58 H29        -3.1499   -2.3167   52.5153 H         1 C6H         0.0320
     59 H30        -4.3103   -3.0839   51.3788 H         1 C6H         0.0320
     60 H31        -7.7843    2.7169   50.0184 H         1 C6H         0.0553
     61 H32       -11.5471    5.4425   51.9847 H         1 C6H         0.2269
     62 H33       -12.5132    4.7934   54.2397 H         1 C6H         0.0889
     63 H34       -11.2126    2.5753   55.1131 H         1 C6H         0.0287
@<TRIPOS>BOND
     1    1    2 1  
     2    2    3 1  
     3    3    4 ar 
     4    3   29 ar 
     5    4    5 1  
     6    4   22 ar 
     7    5    6 2  
     8    5    7 1  
     9    7    8 1  
    10    8    9 1  
    11    9   10 1  
    12    9   21 1  
    13   10   11 1  
    14   11   12 1  
    15   12   13 1  
    16   12   20 1  
    17   13   14 1  
    18   14   15 1  
    19   14   19 1  
    20   15   16 1  
    21   16   17 1  
    22   17   18 1  
    23   18   19 1  
    24   20   21 1  
    25   22   23 ar 
    26   23   24 1  
    27   23   25 ar 
    28   25   26 1  
    29   25   29 ar 
    30   26   27 1  
    31   27   28 2  
    32   28   29 1  
    33    1   30 1  
    34    1   31 1  
    35    1   32 1  
    36    7   33 1  
    37    7   34 1  
    38    8   35 1  
    39    8   36 1  
    40    9   37 1  
    41   10   38 1  
    42   10   39 1  
    43   11   40 1  
    44   11   41 1  
    45   12   42 1  
    46   13   43 1  
    47   13   44 1  
    48   14   45 1  
    49   15   46 1  
    50   15   47 1  
    51   16   48 1  
    52   16   49 1  
    53   17   50 1  
    54   17   51 1  
    55   18   52 1  
    56   18   53 1  
    57   19   54 1  
    58   19   55 1  
    59   20   56 1  
    60   20   57 1  
    61   21   58 1  
    62   21   59 1  
    63   22   60 1  
    64   26   61 1  
    65   27   62 1  
    66   28   63 1  
@<TRIPOS>SUBSTRUCTURE
     1 C6H         1

