### 
### Created by X-TOOL on Mon Sep 10 21:13:32 2018
### 

@<TRIPOS>MOLECULE
6ezq_ligand
   52    53     1     0     0
SMALL
GAST_HUCK


@<TRIPOS>ATOM
      1 C1        -25.7890   13.6580   29.8060 C.ar      1 C7K         0.1065
      2 C2        -26.3310   14.2800   31.0360 C.ar      1 C7K         0.1130
      3 C3        -24.5160   14.0530   29.3240 C.ar      1 C7K         0.0638
      4 N6        -27.5340   13.7060   31.3030 N.2       1 C7K        -0.0831
      5 C7        -23.8040   15.0320   30.0190 C.ar      1 C7K        -0.0341
      6 C10       -24.3040   15.6600   31.1460 C.ar      1 C7K        -0.0288
      7 C12       -24.4440   12.4240   27.3360 C.3       1 C7K         0.0253
      8 C15       -23.4360   11.2800   27.3040 C.3       1 C7K        -0.0332
      9 C16       -23.7870   10.1640   26.3250 C.3       1 C7K        -0.0513
     10 C19       -22.7010    9.1890   22.6800 C.3       1 C7K        -0.0531
     11 C20       -22.8920   10.3820   21.7320 C.3       1 C7K        -0.0531
     12 C21       -24.2610   10.5070   21.0620 C.3       1 C7K        -0.0530
     13 C22       -24.5800   11.8870   20.4930 C.3       1 C7K        -0.0516
     14 C24       -26.1840   12.9730   22.1370 C.3       1 C7K         0.0002
     15 N4        -26.7370   12.7420   29.4600 N.2       1 C7K        -0.0913
     16 C5        -25.5490   15.3230   31.6480 C.ar      1 C7K         0.2045
     17 N8        -23.9600   13.5220   28.1580 N.pl3     1 C7K        -0.3181
     18 O9        -27.7570   12.7900   30.3460 O.3       1 C7K        -0.0339
     19 N11       -25.9590   15.9670   32.8920 N.2       1 C7K         0.3057
     20 O13       -27.1120   15.8170   33.2730 O.2       1 C7K         0.1721
     21 O14       -25.1250   16.6110   33.5120 O.2       1 C7K         0.1721
     22 C17       -23.0350   10.2280   25.0000 C.3       1 C7K        -0.0530
     23 C18       -23.5020    9.2100   23.9700 C.3       1 C7K        -0.0531
     24 C23       -24.7960   12.9970   21.5200 C.3       1 C7K        -0.0414
     25 C25       -26.2210   12.8710   23.6350 C.2       1 C7K         0.0348
     26 O26       -26.8180   13.8850   24.1970 O.co2     1 C7K        -0.5690
     27 O27       -25.7760   11.9220   24.2590 O.co2     1 C7K        -0.5690
     28 H1        -22.8196   15.3116   29.6614 H         1 C7K         0.0535
     29 H2        -23.7147   16.4236   31.6407 H         1 C7K         0.0660
     30 H3        -25.3936   12.0553   27.7511 H         1 C7K         0.0515
     31 H4        -24.6084   12.7874   26.3109 H         1 C7K         0.0515
     32 H5        -23.3740   10.8466   28.3131 H         1 C7K         0.0284
     33 H6        -22.4560   11.6916   27.0208 H         1 C7K         0.0284
     34 H7        -24.8647   10.2198   26.1118 H         1 C7K         0.0266
     35 H8        -23.5575    9.2010   26.8045 H         1 C7K         0.0266
     36 H9        -21.6355    9.1443   22.9496 H         1 C7K         0.0265
     37 H10       -22.9785    8.2778   22.1298 H         1 C7K         0.0265
     38 H11       -22.1365   10.3015   20.9366 H         1 C7K         0.0265
     39 H12       -22.7181   11.3008   22.3113 H         1 C7K         0.0265
     40 H13       -25.0298   10.2605   21.8091 H         1 C7K         0.0265
     41 H14       -24.3045    9.7802   20.2375 H         1 C7K         0.0265
     42 H15       -25.4973   11.8003   19.8921 H         1 C7K         0.0266
     43 H16       -23.7435   12.1859   19.8442 H         1 C7K         0.0266
     44 H17       -26.7240   12.1080   21.7245 H         1 C7K         0.0430
     45 H18       -26.7004   13.8999   21.8471 H         1 C7K         0.0430
     46 H19       -23.0892   13.9685   27.8366 H         1 C7K         0.1781
     47 H20       -21.9677   10.0522   25.1998 H         1 C7K         0.0265
     48 H21       -23.1678   11.2342   24.5758 H         1 C7K         0.0265
     49 H22       -23.4411    8.2108   24.4259 H         1 C7K         0.0265
     50 H23       -24.5489    9.4350   23.7181 H         1 C7K         0.0265
     51 H24       -24.6501   13.9675   21.0232 H         1 C7K         0.0283
     52 H25       -24.0534   12.8808   22.3231 H         1 C7K         0.0283
@<TRIPOS>BOND
     1    1    2 ar 
     2    3    1 ar 
     3    1   15 2  
     4    2    4 2  
     5    2   16 ar 
     6    3    5 ar 
     7   17    3 1  
     8   18    4 1  
     9    5    6 ar 
    10    6   16 ar 
    11    8    7 1  
    12    7   17 1  
    13    9    8 1  
    14   22    9 1  
    15   10   11 1  
    16   23   10 1  
    17   11   12 1  
    18   12   13 1  
    19   13   24 1  
    20   24   14 1  
    21   14   25 1  
    22   15   18 1  
    23   16   19 1  
    24   19   20 2  
    25   19   21 2  
    26   22   23 1  
    27   25   26 ar 
    28   25   27 ar 
    29    5   28 1  
    30    6   29 1  
    31    7   30 1  
    32    7   31 1  
    33    8   32 1  
    34    8   33 1  
    35    9   34 1  
    36    9   35 1  
    37   10   36 1  
    38   10   37 1  
    39   11   38 1  
    40   11   39 1  
    41   12   40 1  
    42   12   41 1  
    43   13   42 1  
    44   13   43 1  
    45   14   44 1  
    46   14   45 1  
    47   17   46 1  
    48   22   47 1  
    49   22   48 1  
    50   23   49 1  
    51   23   50 1  
    52   24   51 1  
    53   24   52 1  
@<TRIPOS>SUBSTRUCTURE
     1 C7K         1

