### 
### Created by X-TOOL on Wed Jan  1 15:39:35 2020
### 

@<TRIPOS>MOLECULE
6f05_ligand
   38    37     1     0     0
SMALL
GAST_HUCK


@<TRIPOS>ATOM
      1 N1        -47.1620   45.8320  -31.6110 N.4       1 GTS         0.2328
      2 CA1       -47.1700   44.8580  -32.6380 C.3       1 GTS         0.0304
      3 C1        -48.3810   43.9500  -32.4690 C.2       1 GTS         0.0846
      4 O11       -49.1380   43.6380  -33.4650 O.co2     1 GTS        -0.5643
      5 O12       -48.6500   43.5180  -31.3060 O.co2     1 GTS        -0.5643
      6 CB1       -45.8880   44.0160  -32.5390 C.3       1 GTS         0.0193
      7 CG1       -45.9470   42.9060  -33.5750 C.3       1 GTS         0.0441
      8 CD1       -44.5490   42.2360  -33.7200 C.2       1 GTS         0.1786
      9 OE1       -43.5500   42.8160  -33.3890 O.2       1 GTS        -0.3969
     10 N2        -44.4330   40.9220  -34.2460 N.am      1 GTS        -0.2641
     11 CA2       -43.1560   40.3210  -34.3630 C.3       1 GTS         0.1470
     12 C2        -42.5370   40.6450  -35.7050 C.2       1 GTS         0.2047
     13 O2        -43.2570   40.8170  -36.6540 O.2       1 GTS        -0.3944
     14 CB2       -43.3000   38.8040  -34.3560 C.3       1 GTS         0.0709
     15 SG2       -43.7990   38.2270  -32.7190 S.o2      1 GTS        -0.1872
     16 O1S       -43.4190   36.7830  -32.5590 O.co2     1 GTS        -0.4844
     17 O2S       -45.2640   38.4440  -32.5060 O.co2     1 GTS        -0.4844
     18 O3S       -43.2260   39.0590  -31.5890 O.co2     1 GTS        -0.4844
     19 N3        -41.0900   40.6770  -35.8470 N.am      1 GTS        -0.2721
     20 CA3       -40.5380   40.9520  -37.1600 C.3       1 GTS         0.0833
     21 C3        -39.4240   41.9760  -37.1080 C.2       1 GTS         0.0570
     22 O31       -39.3680   42.8210  -36.1840 O.co2     1 GTS        -0.5669
     23 O32       -38.5640   41.9770  -38.0080 O.co2     1 GTS        -0.5669
     24 H1        -46.3602   46.4324  -31.7237 H         1 GTS         0.2010
     25 H2        -47.1156   45.3743  -30.7141 H         1 GTS         0.2010
     26 H3        -48.0044   46.3830  -31.6639 H         1 GTS         0.2010
     27 H4        -47.2139   45.3540  -33.6188 H         1 GTS         0.1026
     28 H5        -45.8105   43.5782  -31.5329 H         1 GTS         0.0363
     29 H6        -45.0120   44.6532  -32.7301 H         1 GTS         0.0363
     30 H7        -46.2504   43.3284  -34.5443 H         1 GTS         0.0505
     31 H8        -46.6814   42.1509  -33.2580 H         1 GTS         0.0505
     32 H9        -45.2505   40.4226  -34.5329 H         1 GTS         0.1883
     33 H10       -42.5073   40.6591  -33.5415 H         1 GTS         0.0815
     34 H11       -42.3357   38.3471  -34.6230 H         1 GTS         0.0517
     35 H12       -44.0621   38.5088  -35.0923 H         1 GTS         0.0517
     36 H13       -40.4925   40.5141  -35.0618 H         1 GTS         0.1873
     37 H14       -41.3401   41.3336  -37.8089 H         1 GTS         0.0689
     38 H15       -40.1401   40.0166  -37.5803 H         1 GTS         0.0689
@<TRIPOS>BOND
     1    1    2 1  
     2    2    3 1  
     3    2    6 1  
     4    3    4 ar 
     5    3    5 ar 
     6    6    7 1  
     7    7    8 1  
     8    8    9 2  
     9    8   10 am 
    10   10   11 1  
    11   11   12 1  
    12   11   14 1  
    13   12   13 2  
    14   12   19 am 
    15   14   15 1  
    16   15   16 ar 
    17   15   17 ar 
    18   15   18 ar 
    19   19   20 1  
    20   20   21 1  
    21   21   22 ar 
    22   21   23 ar 
    23    1   24 1  
    24    1   25 1  
    25    1   26 1  
    26    2   27 1  
    27    6   28 1  
    28    6   29 1  
    29    7   30 1  
    30    7   31 1  
    31   10   32 1  
    32   11   33 1  
    33   14   34 1  
    34   14   35 1  
    35   19   36 1  
    36   20   37 1  
    37   20   38 1  
@<TRIPOS>SUBSTRUCTURE
     1 GTS         1

