### 
### Created by X-TOOL on Wed Jan  1 15:39:34 2020
### 

@<TRIPOS>MOLECULE
6f1j_ligand
   21    21     1     0     0
SMALL
GAST_HUCK


@<TRIPOS>ATOM
      1 O2'        -8.5150    3.6530  -28.2550 O.3       1 EDG        -0.3837
      2 C2'        -9.8640    3.9030  -27.8880 C.3       1 EDG         0.1258
      3 C1'        -9.9160    5.0850  -26.9260 C.3       1 EDG        -0.0039
      4 N4'       -10.7780    6.0850  -27.5600 N.4       1 EDG         0.2346
      5 C3'       -10.7380    4.3120  -29.0850 C.3       1 EDG         0.1303
      6 O3'       -11.5230    3.2470  -29.6140 O.3       1 EDG        -0.3833
      7 C4'       -11.6690    5.3970  -28.5250 C.3       1 EDG         0.0302
      8 C5'       -12.2600    6.3850  -29.5250 C.3       1 EDG         0.0893
      9 O5'       -11.2940    7.2920  -30.0540 O.3       1 EDG        -0.3894
     10 H1         -8.4823    2.9166  -28.8544 H         1 EDG         0.2101
     11 H2        -10.2797    3.0018  -27.4136 H         1 EDG         0.0675
     12 H3         -8.9072    5.4946  -26.7691 H         1 EDG         0.0840
     13 H4        -10.3395    4.7730  -25.9599 H         1 EDG         0.0840
     14 H5        -10.2116    6.7634  -28.0448 H         1 EDG         0.2019
     15 H6        -11.3321    6.5500  -26.8580 H         1 EDG         0.2019
     16 H7        -10.1044    4.7187  -29.8869 H         1 EDG         0.0679
     17 H8        -10.9501    2.5485  -29.9079 H         1 EDG         0.2102
     18 H9        -12.5084    4.9180  -27.9997 H         1 EDG         0.0900
     19 H10       -13.0459    6.9660  -29.0203 H         1 EDG         0.0614
     20 H11       -12.7009    5.8181  -30.3582 H         1 EDG         0.0614
     21 H12       -10.6130    6.8027  -30.5005 H         1 EDG         0.2097
@<TRIPOS>BOND
     1    1    2 1  
     2    2    3 1  
     3    2    5 1  
     4    3    4 1  
     5    4    7 1  
     6    5    6 1  
     7    5    7 1  
     8    7    8 1  
     9    8    9 1  
    10    1   10 1  
    11    2   11 1  
    12    3   12 1  
    13    3   13 1  
    14    4   14 1  
    15    4   15 1  
    16    5   16 1  
    17    6   17 1  
    18    7   18 1  
    19    8   19 1  
    20    8   20 1  
    21    9   21 1  
@<TRIPOS>SUBSTRUCTURE
     1 EDG         1

