### 
### Created by X-TOOL on Wed Jan  1 15:39:36 2020
### 

@<TRIPOS>MOLECULE
6f1n_ligand
   49    51     1     0     0
SMALL
GAST_HUCK


@<TRIPOS>ATOM
      1 C1         67.9910   38.5030   27.0670 C.3       1 C8W         0.0695
      2 N6         64.9600   37.5300   19.3790 N.am      1 C8W        -0.3067
      3 C8         63.3120   33.8250   25.0400 C.ar      1 C8W         0.1356
      4 C9         64.6390   33.9000   25.5520 C.ar      1 C8W         0.1367
      5 C11        65.0040   33.2640   26.8000 C.1       1 C8W         0.0879
      6 C13        63.8820   35.0790   23.1600 C.ar      1 C8W         0.0981
      7 C14        65.2100   35.2700   23.5900 C.ar      1 C8W         0.0434
      8 C15        65.9680   36.0870   22.6340 C.2       1 C8W         0.0608
      9 C19        69.1850   33.9460   25.8870 C.ar      1 C8W        -0.0344
     10 C20        67.9180   33.7440   25.3510 C.ar      1 C8W        -0.0664
     11 C21        66.9820   34.7920   25.3630 C.ar      1 C8W        -0.0226
     12 C22        67.3370   36.0160   25.9460 C.ar      1 C8W        -0.0273
     13 C27        68.3900   39.5670   28.0990 C.3       1 C8W        -0.0139
     14 O2         68.9470   37.4240   27.0300 O.3       1 C8W        -0.3204
     15 S3         63.6060   35.8960   21.6340 S.3       1 C8W        -0.0328
     16 C4         65.2540   36.4880   21.5350 C.2       1 C8W         0.1033
     17 C5         65.7530   37.2610   20.4340 C.2       1 C8W         0.1832
     18 N7         62.3120   33.1600   25.7100 N.pl3     1 C8W        -0.3158
     19 N10        62.9990   34.3720   23.8860 N.ar      1 C8W        -0.2657
     20 N12        65.3310   32.7680   27.7730 N.1       1 C8W        -0.3443
     21 N16        67.3100   36.4370   22.7970 N.pl3     1 C8W        -0.3389
     22 C17        68.6130   36.2220   26.4710 C.ar      1 C8W         0.1254
     23 C18        69.5570   35.1800   26.4350 C.ar      1 C8W         0.1260
     24 C23        65.6040   34.6410   24.8260 C.ar      1 C8W         0.0197
     25 O24        70.8120   35.3990   26.9590 O.3       1 C8W        -0.3206
     26 C25        71.8470   34.4060   26.9160 C.3       1 C8W         0.0585
     27 O26        66.9140   37.6480   20.3940 O.2       1 C8W        -0.4074
     28 C28        69.5570   40.4340   27.6000 C.3       1 C8W         0.0026
     29 C29        69.1450   41.3760   26.4870 C.2       1 C8W         0.0349
     30 O30        68.5610   42.4080   26.7460 O.co2     1 C8W        -0.5690
     31 O31        69.4330   41.0750   25.2050 O.co2     1 C8W        -0.5690
     32 H1         67.9394   38.9701   26.0725 H         1 C8W         0.0610
     33 H2         67.0037   38.0978   27.3335 H         1 C8W         0.0610
     34 H3         65.3117   38.0691   18.6137 H         1 C8W         0.1788
     35 H4         64.0195   37.1906   19.3610 H         1 C8W         0.1788
     36 H5         69.8999   33.1312   25.8806 H         1 C8W         0.0529
     37 H6         67.6535   32.7825   24.9259 H         1 C8W         0.0546
     38 H7         66.6074   36.8166   25.9898 H         1 C8W         0.0545
     39 H8         68.6917   39.0650   29.0301 H         1 C8W         0.0309
     40 H9         67.5234   40.2151   28.2960 H         1 C8W         0.0309
     41 H10        61.3621   33.1237   25.3133 H         1 C8W         0.1817
     42 H11        62.5129   32.6982   26.6085 H         1 C8W         0.1817
     43 H12        67.8262   36.1239   23.6315 H         1 C8W         0.1720
     44 H13        67.7837   37.0083   22.0827 H         1 C8W         0.1720
     45 H14        72.7558   34.8029   27.3919 H         1 C8W         0.0576
     46 H15        72.0642   34.1479   25.8690 H         1 C8W         0.0576
     47 H16        71.5144   33.5061   27.4541 H         1 C8W         0.0576
     48 H17        70.3529   39.7731   27.2263 H         1 C8W         0.0431
     49 H18        69.9398   41.0291   28.4422 H         1 C8W         0.0431
@<TRIPOS>BOND
     1    1   13 1  
     2   14    1 1  
     3   17    2 am 
     4    3    4 ar 
     5    3   18 1  
     6   19    3 ar 
     7    4    5 1  
     8   24    4 ar 
     9    5   20 3  
    10    6    7 ar 
    11   15    6 1  
    12    6   19 ar 
    13    8    7 1  
    14    7   24 ar 
    15   16    8 2  
    16    8   21 1  
    17   10    9 ar 
    18    9   23 ar 
    19   11   10 ar 
    20   11   12 ar 
    21   24   11 1  
    22   12   22 ar 
    23   13   28 1  
    24   22   14 1  
    25   16   15 1  
    26   16   17 1  
    27   17   27 2  
    28   22   23 ar 
    29   23   25 1  
    30   25   26 1  
    31   28   29 1  
    32   29   30 ar 
    33   29   31 ar 
    34    1   32 1  
    35    1   33 1  
    36    2   34 1  
    37    2   35 1  
    38    9   36 1  
    39   10   37 1  
    40   12   38 1  
    41   13   39 1  
    42   13   40 1  
    43   18   41 1  
    44   18   42 1  
    45   21   43 1  
    46   21   44 1  
    47   26   45 1  
    48   26   46 1  
    49   26   47 1  
    50   28   48 1  
    51   28   49 1  
@<TRIPOS>SUBSTRUCTURE
     1 C8W         1

