### 
### Created by X-TOOL on Mon Aug  2 16:13:21 2021
### 

@<TRIPOS>MOLECULE
6f1w_ligand
   81    87     1     0     0
SMALL
GAST_HUCK


@<TRIPOS>ATOM
      1 C1        -14.2040  -34.0230  -16.8580 C.3       1 CG5         0.0294
      2 C02       -15.4440  -32.2560  -15.8130 C.3       1 CG5        -0.0004
      3 C03       -16.4390  -31.2400  -16.2840 C.3       1 CG5         0.1259
      4 C05       -16.1810  -31.2600  -17.7620 C.3       1 CG5         0.1309
      5 C07       -15.8910  -32.7100  -18.1200 C.3       1 CG5         0.0382
      6 C08       -14.9250  -32.8140  -19.2720 C.3       1 CG5         0.1001
      7 C10       -13.8870  -34.5830  -18.1750 C.2       1 CG5         0.1047
      8 C11       -13.1330  -35.7670  -18.4500 C.2       1 CG5        -0.0235
      9 C12       -13.0930  -35.8330  -19.8090 C.2       1 CG5        -0.0603
     10 C13       -13.7640  -34.7470  -20.3180 C.2       1 CG5         0.1265
     11 C14       -13.9010  -34.4460  -21.7800 C.2       1 CG5         0.2411
     12 C17       -12.9260  -34.8430  -23.9250 C.ar      1 CG5         0.1270
     13 C19       -11.7560  -35.2790  -25.7990 C.ar      1 CG5        -0.0163
     14 C20       -12.4600  -34.3540  -26.5300 C.ar      1 CG5        -0.0546
     15 C21       -13.4530  -33.6850  -25.9290 C.ar      1 CG5        -0.0341
     16 C22       -13.6830  -33.9390  -24.6010 C.ar      1 CG5        -0.0196
     17 C23       -14.2510  -32.6850  -26.6670 C.2       1 CG5         0.0310
     18 C24       -14.7830  -31.4490  -26.1280 C.2       1 CG5         0.1630
     19 C27       -14.6370  -32.6200  -27.9950 C.2       1 CG5         0.0569
     20 C28       -14.4830  -33.6200  -29.0630 C.ar      1 CG5        -0.0160
     21 C29       -14.0660  -33.2920  -30.3200 C.ar      1 CG5        -0.0561
     22 C30       -14.0100  -34.2320  -31.3000 C.ar      1 CG5        -0.0278
     23 C31       -14.3780  -35.5260  -31.0140 C.ar      1 CG5         0.1325
     24 C33       -14.8160  -35.8700  -29.7630 C.ar      1 CG5        -0.0278
     25 C34       -14.8880  -34.9090  -28.8050 C.ar      1 CG5        -0.0561
     26 C35       -14.7370  -30.7810  -24.8160 C.3       1 CG5         0.0339
     27 C36       -14.6920  -29.2830  -24.9000 C.3       1 CG5        -0.0461
     28 C37       -15.9410  -31.1500  -24.0140 C.3       1 CG5        -0.0461
     29 C38       -12.6180  -36.7340  -17.4880 C.ar      1 CG5        -0.0539
     30 C39       -11.8720  -36.3720  -16.4120 C.ar      1 CG5        -0.0726
     31 C40       -11.4430  -37.3330  -15.5530 C.ar      1 CG5        -0.0388
     32 C41       -11.7710  -38.6390  -15.7630 C.ar      1 CG5         0.0853
     33 C43       -12.0700  -40.7170  -14.7590 C.3       1 CG5         0.0583
     34 C44       -12.5570  -39.0280  -16.8040 C.ar      1 CG5        -0.0388
     35 C45       -12.9700  -38.0530  -17.6780 C.ar      1 CG5        -0.0726
     36 F32       -14.2840  -36.4110  -31.9440 F         1 CG5        -0.1832
     37 N01       -15.3950  -33.2510  -16.8730 N.4       1 CG5         0.2583
     38 N09       -14.2100  -34.0370  -19.2950 N.pl3     1 CG5        -0.2463
     39 N16       -13.0970  -35.1030  -22.6270 N.am      1 CG5        -0.2222
     40 N18       -11.9780  -35.4570  -24.5570 N.ar      1 CG5        -0.2964
     41 N26       -15.3550  -31.5160  -28.2050 N.2       1 CG5        -0.1461
     42 O04       -17.7380  -31.7120  -16.0440 O.3       1 CG5        -0.3837
     43 O06       -17.2630  -30.7260  -18.4350 O.3       1 CG5        -0.3833
     44 O15       -14.6720  -33.5950  -22.0520 O.2       1 CG5        -0.3828
     45 O25       -15.3940  -30.8590  -27.1130 O.3       1 CG5        -0.1570
     46 O42       -11.3520  -39.5320  -14.8860 O.3       1 CG5        -0.3246
     47 H1        -13.3705  -33.3811  -16.5367 H         1 CG5         0.1027
     48 H2        -14.3273  -34.8494  -16.1426 H         1 CG5         0.1027
     49 H3        -15.7747  -32.7127  -14.8685 H         1 CG5         0.0841
     50 H4        -14.4563  -31.7933  -15.6705 H         1 CG5         0.0841
     51 H5        -16.2847  -30.2485  -15.8334 H         1 CG5         0.0675
     52 H6        -15.2956  -30.6499  -17.9939 H         1 CG5         0.0679
     53 H7        -16.8191  -33.2264  -18.4062 H         1 CG5         0.0906
     54 H8        -14.2021  -31.9883  -19.1971 H         1 CG5         0.0674
     55 H9        -15.4903  -32.7224  -20.2111 H         1 CG5         0.0674
     56 H10       -12.6107  -36.6145  -20.3942 H         1 CG5         0.0359
     57 H11       -10.9931  -35.8720  -26.2903 H         1 CG5         0.0747
     58 H12       -12.2177  -34.1692  -27.5703 H         1 CG5         0.0521
     59 H13       -14.4776  -33.4127  -24.0846 H         1 CG5         0.0518
     60 H14       -13.7763  -32.2707  -30.5394 H         1 CG5         0.0609
     61 H15       -13.6787  -33.9646  -32.2969 H         1 CG5         0.0604
     62 H16       -15.1006  -36.8921  -29.5406 H         1 CG5         0.0604
     63 H17       -15.2703  -35.1620  -27.8227 H         1 CG5         0.0609
     64 H18       -13.8339  -31.1265  -24.2917 H         1 CG5         0.0543
     65 H19       -14.6593  -28.8597  -23.8852 H         1 CG5         0.0262
     66 H20       -15.5894  -28.9178  -25.4209 H         1 CG5         0.0262
     67 H21       -13.7943  -28.9737  -25.4554 H         1 CG5         0.0262
     68 H22       -16.0054  -32.2450  -23.9320 H         1 CG5         0.0262
     69 H23       -16.8442  -30.7658  -24.5106 H         1 CG5         0.0262
     70 H24       -15.8605  -30.7111  -23.0086 H         1 CG5         0.0262
     71 H25       -11.6226  -35.3310  -16.2412 H         1 CG5         0.0535
     72 H26       -10.8371  -37.0598  -14.6967 H         1 CG5         0.0530
     73 H27       -11.5982  -41.3514  -13.9942 H         1 CG5         0.0576
     74 H28       -12.0758  -41.2473  -15.7227 H         1 CG5         0.0576
     75 H29       -13.1037  -40.4892  -14.4596 H         1 CG5         0.0576
     76 H30       -12.8449  -40.0645  -16.9374 H         1 CG5         0.0530
     77 H31       -13.5822  -38.3247  -18.5304 H         1 CG5         0.0535
     78 H32       -16.1003  -33.9249  -16.6192 H         1 CG5         0.2057
     79 H33       -12.5720  -35.8652  -22.2484 H         1 CG5         0.2291
     80 H34       -18.3642  -31.1521  -16.4877 H         1 CG5         0.2101
     81 H35       -18.0421  -31.2293  -18.2296 H         1 CG5         0.2102
@<TRIPOS>BOND
     1    7    1 1  
     2    1   37 1  
     3    2    3 1  
     4   37    2 1  
     5    4    3 1  
     6    3   42 1  
     7    5    4 1  
     8    4   43 1  
     9    6    5 1  
    10    5   37 1  
    11   38    6 1  
    12    7    8 2  
    13   38    7 1  
    14    9    8 1  
    15    8   29 1  
    16   10    9 2  
    17   11   10 1  
    18   10   38 1  
    19   39   11 am 
    20   11   44 2  
    21   12   16 ar 
    22   12   39 1  
    23   40   12 ar 
    24   13   14 ar 
    25   13   40 ar 
    26   14   15 ar 
    27   15   16 ar 
    28   15   17 1  
    29   17   18 2  
    30   17   19 1  
    31   18   26 1  
    32   18   45 1  
    33   19   20 1  
    34   19   41 2  
    35   20   21 ar 
    36   20   25 ar 
    37   21   22 ar 
    38   22   23 ar 
    39   23   24 ar 
    40   23   36 1  
    41   24   25 ar 
    42   26   27 1  
    43   26   28 1  
    44   29   30 ar 
    45   29   35 ar 
    46   30   31 ar 
    47   31   32 ar 
    48   32   34 ar 
    49   32   46 1  
    50   46   33 1  
    51   34   35 ar 
    52   41   45 1  
    53    1   47 1  
    54    1   48 1  
    55    2   49 1  
    56    2   50 1  
    57    3   51 1  
    58    4   52 1  
    59    5   53 1  
    60    6   54 1  
    61    6   55 1  
    62    9   56 1  
    63   13   57 1  
    64   14   58 1  
    65   16   59 1  
    66   21   60 1  
    67   22   61 1  
    68   24   62 1  
    69   25   63 1  
    70   26   64 1  
    71   27   65 1  
    72   27   66 1  
    73   27   67 1  
    74   28   68 1  
    75   28   69 1  
    76   28   70 1  
    77   30   71 1  
    78   31   72 1  
    79   33   73 1  
    80   33   74 1  
    81   33   75 1  
    82   34   76 1  
    83   35   77 1  
    84   37   78 1  
    85   39   79 1  
    86   42   80 1  
    87   43   81 1  
@<TRIPOS>SUBSTRUCTURE
     1 CG5         1

