### 
### Created by X-TOOL on Wed Jan  1 15:39:37 2020
### 

@<TRIPOS>MOLECULE
6f1x_ligand
   35    37     1     0     0
SMALL
GAST_HUCK


@<TRIPOS>ATOM
      1 C1          2.2370  -26.0460   17.8610 C.ar      1 C9Q        -0.0416
      2 C2          1.3170  -25.2320   17.1880 C.ar      1 C9Q        -0.0091
      3 C3          1.8290  -24.2770   16.3090 C.ar      1 C9Q         0.0155
      4 C7          3.2950  -19.7460   12.4890 C.3       1 C9Q         0.0275
      5 C8          4.3830  -19.6670   11.4290 C.3       1 C9Q        -0.0449
      6 C9          3.1900  -24.1940   16.1830 C.ar      1 C9Q         0.1383
      7 C10         3.5760  -25.8520   17.6330 C.ar      1 C9Q        -0.0041
      8 C11        -0.1310  -25.3460   17.2860 C.ar      1 C9Q        -0.0128
      9 C12        -0.8800  -25.4350   16.0720 C.ar      1 C9Q        -0.0379
     10 C13        -2.2680  -25.5470   16.0680 C.ar      1 C9Q         0.0424
     11 C14        -2.9420  -25.5920   17.2800 C.ar      1 C9Q        -0.0465
     12 C15        -2.2240  -25.5430   18.4760 C.ar      1 C9Q        -0.0593
     13 C16        -0.8350  -25.4160   18.4770 C.ar      1 C9Q        -0.0518
     14 C4          1.2870  -23.2550   15.4700 C.2       1 C9Q        -0.0311
     15 C5          2.3220  -22.5990   14.8260 C.2       1 C9Q         0.1376
     16 CL1        -3.1870  -25.6220   14.5790 Cl        1 C9Q        -0.0704
     17 C6          2.1820  -21.4800   13.8980 C.2       1 C9Q         0.2292
     18 O1          1.0960  -20.9510   13.6930 O.2       1 C9Q        -0.3828
     19 N2          3.4700  -23.2000   15.2910 N.pl3     1 C9Q        -0.2528
     20 N1          3.2900  -21.0140   13.2200 N.am      1 C9Q        -0.2848
     21 N3          4.1160  -24.9340   16.7870 N.ar      1 C9Q        -0.2848
     22 H1          1.8982  -26.8133   18.5477 H         1 C9Q         0.0609
     23 H2          2.3188  -19.6227   11.9973 H         1 C9Q         0.0516
     24 H3          3.4488  -18.9286   13.2089 H         1 C9Q         0.0516
     25 H4          4.3297  -18.6929   10.9208 H         1 C9Q         0.0249
     26 H5          4.2380  -20.4724   10.6940 H         1 C9Q         0.0249
     27 H6          5.3681  -19.7784   11.9056 H         1 C9Q         0.0249
     28 H7          4.2658  -26.4878   18.1762 H         1 C9Q         0.0762
     29 H8         -0.3516  -25.4147   15.1257 H         1 C9Q         0.0642
     30 H9         -4.0234  -25.6650   17.2980 H         1 C9Q         0.0634
     31 H10        -2.7545  -25.6046   19.4193 H         1 C9Q         0.0621
     32 H11        -0.3010  -25.3716   19.4193 H         1 C9Q         0.0637
     33 H12         0.2280  -23.0283   15.3555 H         1 C9Q         0.0418
     34 H13         4.4217  -22.9327   15.0016 H         1 C9Q         0.2299
     35 H14         4.1241  -21.5656   13.2285 H         1 C9Q         0.1842
@<TRIPOS>BOND
     1    2    1 ar 
     2    7    1 ar 
     3    3    2 ar 
     4    2    8 1  
     5    6    3 ar 
     6   14    3 1  
     7    4    5 1  
     8   20    4 1  
     9   19    6 1  
    10    6   21 ar 
    11   21    7 ar 
    12    8    9 ar 
    13    8   13 ar 
    14    9   10 ar 
    15   10   11 ar 
    16   10   16 1  
    17   12   11 ar 
    18   13   12 ar 
    19   15   14 2  
    20   17   15 1  
    21   15   19 1  
    22   17   18 2  
    23   17   20 am 
    24    1   22 1  
    25    4   23 1  
    26    4   24 1  
    27    5   25 1  
    28    5   26 1  
    29    5   27 1  
    30    7   28 1  
    31    9   29 1  
    32   11   30 1  
    33   12   31 1  
    34   13   32 1  
    35   14   33 1  
    36   19   34 1  
    37   20   35 1  
@<TRIPOS>SUBSTRUCTURE
     1 C9Q         1

