### 
### Created by X-TOOL on Wed Jan  1 15:39:37 2020
### 

@<TRIPOS>MOLECULE
6f20_ligand
   24    25     1     0     0
SMALL
GAST_HUCK


@<TRIPOS>ATOM
      1 C1          3.1180   -9.0640  -16.5960 C.ar      1 C9E         0.1412
      2 C2         -3.0420   -8.6750  -14.6400 C.3       1 C9E        -0.0373
      3 C3         -2.5850   -7.8760  -15.8550 C.3       1 C9E         0.0729
      4 C7          1.3830   -9.8290  -15.3070 C.2       1 C9E        -0.0522
      5 C8          1.0000   -8.1550  -17.3230 C.ar      1 C9E         0.0661
      6 C9          1.6950   -8.9980  -16.4420 C.ar      1 C9E         0.0184
      7 C10         2.5800  -10.3810  -14.8430 C.2       1 C9E         0.0295
      8 N1          3.8750   -8.4550  -17.5240 N.ar      1 C9E        -0.2802
      9 N2          3.5950   -9.9060  -15.6370 N.pl3     1 C9E        -0.2630
     10 C5          3.1860   -7.6590  -18.3600 C.ar      1 C9E         0.0009
     11 C6          1.8000   -7.5080  -18.2980 C.ar      1 C9E        -0.0302
     12 C4         -0.5010   -7.9820  -17.2040 C.2       1 C9E         0.2654
     13 O2         -1.0090   -7.2660  -18.0670 O.2       1 C9E        -0.3549
     14 O1         -1.1670   -7.9350  -15.9880 O.3       1 C9E        -0.2775
     15 H1         -4.1371   -8.6176  -14.5542 H         1 C9E         0.0255
     16 H2         -2.5808   -8.2583  -13.7325 H         1 C9E         0.0255
     17 H3         -2.7379   -9.7257  -14.7565 H         1 C9E         0.0255
     18 H4         -2.8938   -6.8270  -15.7353 H         1 C9E         0.0608
     19 H5         -3.0509   -8.2945  -16.7593 H         1 C9E         0.0608
     20 H6          0.3926   -9.9967  -14.8864 H         1 C9E         0.0310
     21 H7          2.6885  -11.0651  -14.0026 H         1 C9E         0.0984
     22 H8          4.5881  -10.1542  -15.5223 H         1 C9E         0.2314
     23 H9          3.7324   -7.1088  -19.1175 H         1 C9E         0.0759
     24 H10         1.3146   -6.8687  -19.0265 H         1 C9E         0.0659
@<TRIPOS>BOND
     1    6    1 ar 
     2    1    8 ar 
     3    1    9 1  
     4    3    2 1  
     5   14    3 1  
     6    6    4 1  
     7    4    7 2  
     8    5    6 ar 
     9    5   11 ar 
    10   12    5 1  
    11    7    9 1  
    12   10    8 ar 
    13   11   10 ar 
    14   12   13 2  
    15   12   14 1  
    16    2   15 1  
    17    2   16 1  
    18    2   17 1  
    19    3   18 1  
    20    3   19 1  
    21    4   20 1  
    22    7   21 1  
    23    9   22 1  
    24   10   23 1  
    25   11   24 1  
@<TRIPOS>SUBSTRUCTURE
     1 C9E         1

