### 
### Created by X-TOOL on Wed Jan  1 15:39:35 2020
### 

@<TRIPOS>MOLECULE
6f22_ligand
   37    40     1     0     0
SMALL
GAST_HUCK


@<TRIPOS>ATOM
      1 C1          3.1420   -9.2260  -16.5010 C.ar      1 C9B         0.0450
      2 C2          1.7840   -9.4570  -16.8220 C.ar      1 C9B         0.0776
      3 C3          1.2490   -8.6550  -17.8520 C.ar      1 C9B         0.0784
      4 C7         -1.6910   -9.8540  -16.7580 C.ar      1 C9B        -0.0158
      5 C8         -2.3320  -11.0030  -16.2640 C.ar      1 C9B        -0.0581
      6 C9         -3.1000  -10.9430  -15.0910 C.ar      1 C9B        -0.0685
      7 C10        -3.2170   -9.7190  -14.4170 C.ar      1 C9B        -0.0687
      8 C11        -2.5760   -8.5720  -14.9060 C.ar      1 C9B        -0.0685
      9 C12        -1.8100   -8.6300  -16.0790 C.ar      1 C9B        -0.0581
     10 C13        -1.8450  -10.2330  -19.1920 C.3       1 C9B         0.0803
     11 C14        -1.6570   -8.0840  -20.0690 C.3       1 C9B         0.0682
     12 C15        -0.6550   -7.6220  -19.0030 C.3       1 C9B         0.0554
     13 C16         1.3720  -10.5010  -15.9320 C.2       1 C9B         0.1110
     14 N1          3.9780   -8.3320  -17.0780 N.ar      1 C9B        -0.3129
     15 C4          2.0830   -7.7140  -18.4690 C.ar      1 C9B        -0.0154
     16 N2         -0.0660   -8.7600  -18.3050 N.pl3     1 C9B        -0.2812
     17 N3          2.3460  -10.8770  -15.1450 N.pl3     1 C9B        -0.2441
     18 C5          3.4150   -7.5920  -18.0510 C.ar      1 C9B        -0.0036
     19 C6         -0.8710   -9.9510  -18.0290 C.3       1 C9B         0.0975
     20 N4          3.4070  -10.1140  -15.4850 N.2       1 C9B        -0.3207
     21 O1         -2.5440   -9.0380  -19.5010 O.3       1 C9B        -0.3734
     22 H1         -2.2323  -11.9436  -16.7936 H         1 C9B         0.0557
     23 H2         -3.5953  -11.8295  -14.7117 H         1 C9B         0.0599
     24 H3         -3.8080   -9.6591  -13.5103 H         1 C9B         0.0559
     25 H4         -2.6733   -7.6330  -14.3731 H         1 C9B         0.0599
     26 H5         -1.3162   -7.7421  -16.4569 H         1 C9B         0.0557
     27 H6         -2.5605  -11.0137  -18.8943 H         1 C9B         0.0606
     28 H7         -1.2805  -10.5699  -20.0739 H         1 C9B         0.0606
     29 H8         -1.1142   -8.5421  -20.9089 H         1 C9B         0.0580
     30 H9         -2.2317   -7.2191  -20.4319 H         1 C9B         0.0580
     31 H10        -1.1755   -6.9839  -18.2737 H         1 C9B         0.0544
     32 H11         0.1458   -7.0454  -19.4890 H         1 C9B         0.0544
     33 H12         0.3707  -10.9289  -15.9132 H         1 C9B         0.1358
     34 H13         1.7008   -7.0844  -19.2644 H         1 C9B         0.0610
     35 H14         2.3112  -11.6044  -14.4166 H         1 C9B         0.2935
     36 H15         4.0338   -6.8515  -18.5448 H         1 C9B         0.0780
     37 H16        -0.1816  -10.8023  -17.9290 H         1 C9B         0.0742
@<TRIPOS>BOND
     1    2    1 ar 
     2    1   14 ar 
     3    1   20 2  
     4    3    2 ar 
     5    2   13 2  
     6    3   15 ar 
     7   16    3 1  
     8    4    5 ar 
     9    4    9 ar 
    10   19    4 1  
    11    5    6 ar 
    12    6    7 ar 
    13    8    7 ar 
    14    9    8 ar 
    15   10   19 1  
    16   21   10 1  
    17   12   11 1  
    18   11   21 1  
    19   12   16 1  
    20   13   17 1  
    21   14   18 ar 
    22   15   18 ar 
    23   16   19 1  
    24   17   20 1  
    25    5   22 1  
    26    6   23 1  
    27    7   24 1  
    28    8   25 1  
    29    9   26 1  
    30   10   27 1  
    31   10   28 1  
    32   11   29 1  
    33   11   30 1  
    34   12   31 1  
    35   12   32 1  
    36   13   33 1  
    37   15   34 1  
    38   17   35 1  
    39   18   36 1  
    40   19   37 1  
@<TRIPOS>SUBSTRUCTURE
     1 C9B         1

