### 
### Created by X-TOOL on Wed Jan  1 15:39:38 2020
### 

@<TRIPOS>MOLECULE
6f23_ligand
   37    40     1     0     0
SMALL
GAST_HUCK


@<TRIPOS>ATOM
      1 C1          3.1560   -8.9610  -16.9250 C.ar      1 C8Z         0.1203
      2 C2          1.8020   -9.2640  -17.2490 C.ar      1 C8Z         0.0203
      3 C3          1.3490  -10.2280  -16.2780 C.2       1 C8Z        -0.0606
      4 C7         -2.0040   -8.6570  -20.0770 C.3       1 C8Z        -0.0285
      5 C8         -1.7300  -10.1080  -19.6770 C.3       1 C8Z        -0.0179
      6 C9         -0.8280   -9.9230  -18.4320 C.3       1 C8Z         0.0745
      7 C10        -1.6370   -9.6650  -17.1820 C.ar      1 C8Z        -0.0178
      8 C11        -2.3650  -10.7170  -16.6220 C.ar      1 C8Z        -0.0581
      9 C12        -3.1230  -10.5180  -15.4700 C.ar      1 C8Z        -0.0685
     10 C13        -3.1440   -9.2540  -14.8700 C.ar      1 C8Z        -0.0687
     11 C14        -2.4300   -8.2020  -15.4310 C.ar      1 C8Z        -0.0685
     12 C15        -1.6690   -8.4100  -16.5780 C.ar      1 C8Z        -0.0581
     13 C16         2.1600   -7.7030  -19.0380 C.ar      1 C8Z        -0.0336
     14 N1          3.4740   -9.6870  -15.8090 N.pl3     1 C8Z        -0.2726
     15 C5          1.2810   -8.5840  -18.3780 C.ar      1 C8Z         0.0536
     16 C4          2.3970  -10.4480  -15.4240 C.2       1 C8Z         0.0208
     17 N2          0.0150   -8.8030  -18.8550 N.pl3     1 C8Z        -0.2883
     18 C6         -0.6170   -7.9950  -19.9140 C.3       1 C8Z         0.0325
     19 C17         3.4660   -7.5040  -18.5770 C.ar      1 C8Z        -0.0226
     20 N3          3.9970   -8.1230  -17.5280 N.ar      1 C8Z        -0.3081
     21 H1          0.3646  -10.6915  -16.2322 H         1 C8Z         0.0295
     22 H2         -2.7458   -8.1943  -19.4094 H         1 C8Z         0.0287
     23 H3         -2.3555   -8.5914  -21.1172 H         1 C8Z         0.0287
     24 H4         -1.2048  -10.6522  -20.4758 H         1 C8Z         0.0310
     25 H5         -2.6605  -10.6370  -19.4234 H         1 C8Z         0.0310
     26 H6         -0.2116  -10.8180  -18.2614 H         1 C8Z         0.0721
     27 H7         -2.3402  -11.6958  -17.0871 H         1 C8Z         0.0557
     28 H8         -3.6918  -11.3356  -15.0421 H         1 C8Z         0.0599
     29 H9         -3.7189   -9.0950  -13.9649 H         1 C8Z         0.0559
     30 H10        -2.4656   -7.2191  -14.9753 H         1 C8Z         0.0599
     31 H11        -1.0988   -7.5919  -17.0030 H         1 C8Z         0.0557
     32 H12         1.8187   -7.1701  -19.9181 H         1 C8Z         0.0477
     33 H13         4.3852   -9.6659  -15.3293 H         1 C8Z         0.2287
     34 H14         2.3792  -11.1233  -14.5699 H         1 C8Z         0.0903
     35 H15        -0.7147   -6.9441  -19.6040 H         1 C8Z         0.0524
     36 H16        -0.0408   -8.0493  -20.8494 H         1 C8Z         0.0524
     37 H17         4.0877   -6.7958  -19.1128 H         1 C8Z         0.0703
@<TRIPOS>BOND
     1    2    1 ar 
     2    1   14 1  
     3    1   20 ar 
     4    2    3 1  
     5   15    2 ar 
     6    3   16 2  
     7    5    4 1  
     8    4   18 1  
     9    6    5 1  
    10    6    7 1  
    11   17    6 1  
    12    7    8 ar 
    13    7   12 ar 
    14    8    9 ar 
    15    9   10 ar 
    16   11   10 ar 
    17   12   11 ar 
    18   15   13 ar 
    19   13   19 ar 
    20   16   14 1  
    21   15   17 1  
    22   17   18 1  
    23   19   20 ar 
    24    3   21 1  
    25    4   22 1  
    26    4   23 1  
    27    5   24 1  
    28    5   25 1  
    29    6   26 1  
    30    8   27 1  
    31    9   28 1  
    32   10   29 1  
    33   11   30 1  
    34   12   31 1  
    35   13   32 1  
    36   14   33 1  
    37   16   34 1  
    38   18   35 1  
    39   18   36 1  
    40   19   37 1  
@<TRIPOS>SUBSTRUCTURE
     1 C8Z         1

