### 
### Created by X-TOOL on Mon Aug  2 16:13:21 2021
### 

@<TRIPOS>MOLECULE
6f26_ligand
   81    87     1     0     0
SMALL
GAST_HUCK


@<TRIPOS>ATOM
      1 C13        14.2140   -1.2170   27.2880 C.3       1 C9Z         0.1309
      2 C15        16.6660    3.3540   25.4490 C.2       1 C9Z         0.2411
      3 C20        17.8130    7.9590   25.2540 C.ar      1 C9Z        -0.0163
      4 C21        16.5310    8.4140   25.4860 C.ar      1 C9Z        -0.0546
      5 C22        15.4930    7.5100   25.5950 C.ar      1 C9Z        -0.0341
      6 C24        14.0640    7.9480   25.8560 C.2       1 C9Z         0.0310
      7 C28        13.4150    9.1180   25.4620 C.2       1 C9Z         0.0569
      8 C01        14.4750   -2.6270   27.8530 C.3       1 C9Z         0.1259
      9 C03        15.7310   -3.0130   27.0420 C.3       1 C9Z        -0.0004
     10 C05        17.6090   -1.6030   26.2000 C.3       1 C9Z         0.0294
     11 C06        17.8610   -0.1330   25.7430 C.2       1 C9Z         0.1047
     12 C07        18.9730    0.4210   25.1890 C.2       1 C9Z        -0.0235
     13 C08        18.6840    1.7640   24.9770 C.2       1 C9Z        -0.0603
     14 C09        17.4020    1.9850   25.4240 C.2       1 C9Z         0.1265
     15 C11        15.5970    0.6140   26.4860 C.3       1 C9Z         0.1001
     16 C12        15.4510   -0.7130   27.2370 C.3       1 C9Z         0.0382
     17 C18        17.1250    5.8350   25.2300 C.ar      1 C9Z         0.1270
     18 C23        15.8170    6.1730   25.4760 C.ar      1 C9Z        -0.0196
     19 C25        13.1510    7.2800   26.6120 C.2       1 C9Z         0.1630
     20 C29        13.8910   10.2240   24.5350 C.ar      1 C9Z        -0.0160
     21 C30        13.6080   11.5370   24.7870 C.ar      1 C9Z        -0.0561
     22 C31        14.0170   12.4800   23.8930 C.ar      1 C9Z        -0.0278
     23 C32        14.6500   12.0970   22.7490 C.ar      1 C9Z         0.1325
     24 C34        14.8930   10.7870   22.4750 C.ar      1 C9Z        -0.0278
     25 C35        14.4900    9.8440   23.3680 C.ar      1 C9Z        -0.0561
     26 C36        13.3220    5.9530   27.3240 C.3       1 C9Z         0.0339
     27 C37        12.6950    6.0550   28.7220 C.3       1 C9Z        -0.0461
     28 C38        12.6520    4.8600   26.4710 C.3       1 C9Z        -0.0461
     29 C39        20.2240   -0.3270   24.7720 C.ar      1 C9Z        -0.0539
     30 C40        20.6240   -0.0800   23.4890 C.ar      1 C9Z        -0.0726
     31 C41        21.7160   -0.7200   22.9720 C.ar      1 C9Z        -0.0388
     32 C42        22.4160   -1.6370   23.7250 C.ar      1 C9Z         0.0853
     33 C44        23.4630   -2.3960   21.7780 C.3       1 C9Z         0.0583
     34 C45        22.0100   -1.8980   25.0280 C.ar      1 C9Z        -0.0388
     35 C46        20.8870   -1.2540   25.5300 C.ar      1 C9Z        -0.0726
     36 F33        15.0380   13.0020   21.8840 F         1 C9Z        -0.1832
     37 N04        16.2560   -1.8980   26.5480 N.4       1 C9Z         0.2583
     38 N10        16.9120    0.8390   25.9000 N.pl3     1 C9Z        -0.2463
     39 N17        17.5320    4.4730   25.1740 N.am      1 C9Z        -0.2222
     40 N19        18.0790    6.7040   25.1690 N.ar      1 C9Z        -0.2964
     41 N27        12.1750    9.0850   25.9190 N.2       1 C9Z        -0.1461
     42 O02        14.7010   -2.5980   29.1890 O.3       1 C9Z        -0.3837
     43 O14        13.3460   -0.5550   28.2170 O.3       1 C9Z        -0.3833
     44 O16        15.5560    3.4320   25.6920 O.2       1 C9Z        -0.3828
     45 O26        12.0420    7.9510   26.6280 O.3       1 C9Z        -0.1570
     46 O43        23.5280   -2.3020   23.1730 O.3       1 C9Z        -0.3246
     47 H1         13.7537   -1.2384   26.2892 H         1 C9Z         0.0679
     48 H2         18.6162    8.6780   25.1405 H         1 C9Z         0.0747
     49 H3         16.3397    9.4766   25.5823 H         1 C9Z         0.0521
     50 H4         13.6374   -3.3088   27.6442 H         1 C9Z         0.0675
     51 H5         15.4525   -3.6905   26.2214 H         1 C9Z         0.0841
     52 H6         16.4606   -3.5113   27.6973 H         1 C9Z         0.0841
     53 H7         18.2395   -1.8009   27.0794 H         1 C9Z         0.1027
     54 H8         17.9048   -2.2722   25.3787 H         1 C9Z         0.1027
     55 H9         19.3501    2.5051   24.5377 H         1 C9Z         0.0359
     56 H10        15.3918    1.4321   27.1922 H         1 C9Z         0.0674
     57 H11        14.8529    0.6334   25.6761 H         1 C9Z         0.0674
     58 H12        15.8214   -0.5518   28.2601 H         1 C9Z         0.0906
     59 H13        15.0559    5.4074   25.5746 H         1 C9Z         0.0518
     60 H14        13.0678   11.8230   25.6822 H         1 C9Z         0.0609
     61 H15        13.8395   13.5309   24.0910 H         1 C9Z         0.0604
     62 H16        15.3992   10.4997   21.5605 H         1 C9Z         0.0604
     63 H17        14.6439    8.7925   23.1540 H         1 C9Z         0.0609
     64 H18        14.3926    5.7227   27.4281 H         1 C9Z         0.0543
     65 H19        12.8137    5.0962   29.2479 H         1 C9Z         0.0262
     66 H20        11.6249    6.2913   28.6276 H         1 C9Z         0.0262
     67 H21        13.1973    6.8505   29.2920 H         1 C9Z         0.0262
     68 H22        13.1309    4.8222   25.4814 H         1 C9Z         0.0262
     69 H23        11.5831    5.0911   26.3524 H         1 C9Z         0.0262
     70 H24        12.7634    3.8859   26.9697 H         1 C9Z         0.0262
     71 H25        20.0732    0.6264   22.8785 H         1 C9Z         0.0535
     72 H26        22.0344   -0.5035   21.9587 H         1 C9Z         0.0530
     73 H27        24.3536   -2.9223   21.4041 H         1 C9Z         0.0576
     74 H28        23.4247   -1.3861   21.3438 H         1 C9Z         0.0576
     75 H29        22.5597   -2.9536   21.4897 H         1 C9Z         0.0576
     76 H30        22.5635   -2.5962   25.6454 H         1 C9Z         0.0530
     77 H31        20.5333   -1.4867   26.5279 H         1 C9Z         0.0535
     78 H32        15.8702   -1.9203   25.6170 H         1 C9Z         0.2057
     79 H33        18.4816    4.2791   24.9276 H         1 C9Z         0.2291
     80 H34        13.9002   -2.3563   29.6393 H         1 C9Z         0.2101
     81 H35        13.7104   -0.6215   29.0918 H         1 C9Z         0.2102
@<TRIPOS>BOND
     1    1    8 1  
     2   16    1 1  
     3    1   43 1  
     4    2   14 1  
     5   39    2 am 
     6    2   44 2  
     7    4    3 ar 
     8    3   40 ar 
     9    5    4 ar 
    10    5    6 1  
    11   18    5 ar 
    12    6    7 1  
    13    6   19 2  
    14    7   20 1  
    15    7   41 2  
    16    9    8 1  
    17    8   42 1  
    18   37    9 1  
    19   11   10 1  
    20   10   37 1  
    21   11   12 2  
    22   38   11 1  
    23   13   12 1  
    24   12   29 1  
    25   14   13 2  
    26   14   38 1  
    27   15   16 1  
    28   38   15 1  
    29   16   37 1  
    30   17   18 ar 
    31   17   39 1  
    32   17   40 ar 
    33   19   26 1  
    34   19   45 1  
    35   20   21 ar 
    36   20   25 ar 
    37   21   22 ar 
    38   22   23 ar 
    39   23   24 ar 
    40   23   36 1  
    41   24   25 ar 
    42   26   27 1  
    43   26   28 1  
    44   29   30 ar 
    45   29   35 ar 
    46   30   31 ar 
    47   31   32 ar 
    48   32   34 ar 
    49   32   46 1  
    50   46   33 1  
    51   34   35 ar 
    52   41   45 1  
    53    1   47 1  
    54    3   48 1  
    55    4   49 1  
    56    8   50 1  
    57    9   51 1  
    58    9   52 1  
    59   10   53 1  
    60   10   54 1  
    61   13   55 1  
    62   15   56 1  
    63   15   57 1  
    64   16   58 1  
    65   18   59 1  
    66   21   60 1  
    67   22   61 1  
    68   24   62 1  
    69   25   63 1  
    70   26   64 1  
    71   27   65 1  
    72   27   66 1  
    73   27   67 1  
    74   28   68 1  
    75   28   69 1  
    76   28   70 1  
    77   30   71 1  
    78   31   72 1  
    79   33   73 1  
    80   33   74 1  
    81   33   75 1  
    82   34   76 1  
    83   35   77 1  
    84   37   78 1  
    85   39   79 1  
    86   42   80 1  
    87   43   81 1  
@<TRIPOS>SUBSTRUCTURE
     1 C9Z         1

