### 
### Created by X-TOOL on Wed Jan  1 15:39:37 2020
### 

@<TRIPOS>MOLECULE
6f28_ligand
   33    34     1     0     0
SMALL
GAST_HUCK


@<TRIPOS>ATOM
      1 O1        -44.6000  -22.9970  -20.6090 O.2       1 CG8        -0.3844
      2 N3        -48.3450  -21.4950  -16.3200 N.4       1 CG8         0.2523
      3 C6        -47.1110  -20.9780  -16.9410 C.3       1 CG8         0.0305
      4 C7        -48.7100  -22.7860  -16.9360 C.3       1 CG8        -0.0149
      5 C10       -42.2680  -20.2170  -18.4300 C.2       1 CG8         0.0871
      6 C9        -43.4160  -21.1810  -18.1000 C.3       1 CG8         0.0556
      7 C8        -48.3110  -21.4990  -14.8630 C.3       1 CG8        -0.0409
      8 N2        -46.4630  -24.0020  -19.7780 N.am      1 CG8        -0.1891
      9 N1        -45.7000  -21.9200  -18.8630 N.am      1 CG8        -0.1805
     10 C5        -44.7360  -20.8430  -18.8550 C.3       1 CG8         0.1171
     11 C4        -47.6640  -22.9890  -17.9880 C.2       1 CG8         0.0667
     12 C3        -47.5600  -24.0990  -18.9150 C.2       1 CG8         0.1845
     13 C2        -45.5250  -22.9690  -19.7970 C.2       1 CG8         0.3249
     14 C1        -46.7800  -21.9990  -17.9980 C.2       1 CG8         0.1176
     15 N4        -43.6120  -21.1830  -16.6410 N.4       1 CG8         0.2346
     16 O2        -48.3270  -25.0580  -18.9770 O.2       1 CG8        -0.4177
     17 O3        -41.6340  -19.7000  -17.4840 O.co2     1 CG8        -0.5642
     18 O4        -42.0160  -19.9890  -19.6300 O.co2     1 CG8        -0.5642
     19 H1        -49.0787  -20.8497  -16.5676 H         1 CG8         0.2053
     20 H2        -46.3011  -20.9055  -16.2002 H         1 CG8         0.1042
     21 H3        -47.2846  -19.9900  -17.3924 H         1 CG8         0.1042
     22 H4        -49.7128  -22.7361  -17.3852 H         1 CG8         0.0842
     23 H5        -48.6809  -23.5967  -16.1931 H         1 CG8         0.0842
     24 H6        -43.1108  -22.1916  -18.4091 H         1 CG8         0.1051
     25 H7        -48.0310  -20.4991  -14.5001 H         1 CG8         0.0778
     26 H8        -47.5715  -22.2355  -14.5155 H         1 CG8         0.0778
     27 H9        -49.3047  -21.7654  -14.4737 H         1 CG8         0.0778
     28 H10       -46.3399  -24.7400  -20.4415 H         1 CG8         0.2251
     29 H11       -44.4851  -20.5955  -19.8970 H         1 CG8         0.0680
     30 H12       -45.1973  -19.9693  -18.3714 H         1 CG8         0.0680
     31 H13       -42.7407  -21.4047  -16.1853 H         1 CG8         0.2011
     32 H14       -44.3045  -21.8733  -16.3959 H         1 CG8         0.2011
     33 H15       -43.9250  -20.2724  -16.3427 H         1 CG8         0.2011
@<TRIPOS>BOND
     1   13    1 2  
     2    3    2 1  
     3    2    4 1  
     4    2    7 1  
     5   14    3 1  
     6    4   11 1  
     7    6    5 1  
     8    5   17 ar 
     9    5   18 ar 
    10   10    6 1  
    11    6   15 1  
    12    8   12 am 
    13   13    8 am 
    14    9   10 1  
    15    9   13 am 
    16    9   14 1  
    17   11   12 1  
    18   11   14 2  
    19   12   16 2  
    20    2   19 1  
    21    3   20 1  
    22    3   21 1  
    23    4   22 1  
    24    4   23 1  
    25    6   24 1  
    26    7   25 1  
    27    7   26 1  
    28    7   27 1  
    29    8   28 1  
    30   10   29 1  
    31   10   30 1  
    32   15   31 1  
    33   15   32 1  
    34   15   33 1  
@<TRIPOS>SUBSTRUCTURE
     1 CG8         1

