### 
### Created by X-TOOL on Wed Jan  1 15:39:37 2020
### 

@<TRIPOS>MOLECULE
6f29_ligand
   26    27     1     0     0
SMALL
GAST_HUCK


@<TRIPOS>ATOM
      1 N          -4.3330   30.2510  -12.8070 N.4       1 CGW         0.2344
      2 CA         -3.1530   29.7900  -13.5330 C.3       1 CGW         0.0533
      3 C          -2.1170   30.8680  -13.3680 C.2       1 CGW         0.0869
      4 O          -2.5430   31.9270  -12.8490 O.co2     1 CGW        -0.5642
      5 CB         -3.4060   29.5390  -15.0280 C.3       1 CGW         0.1067
      6 OXT        -0.9640   30.6030  -13.7540 O.co2     1 CGW        -0.5642
      7 CAF        -7.8690   27.8470  -15.8100 C.2       1 CGW         0.0143
      8 CAG        -6.2990   29.8570  -15.6180 C.2       1 CGW        -0.0002
      9 CAL        -6.5360   27.5320  -15.5270 C.2       1 CGW         0.0705
     10 CAM        -5.6700   28.6030  -15.4210 C.2       1 CGW         0.0673
     11 CAN        -6.0540   26.2880  -15.3710 C.2       1 CGW         0.2170
     12 CAO        -3.8410   27.1470  -14.9900 C.2       1 CGW         0.3134
     13 NAI        -4.6920   26.0450  -15.0900 N.am      1 CGW        -0.1836
     14 NAQ        -4.3410   28.3950  -15.1620 N.am      1 CGW        -0.2074
     15 OAC        -6.7990   25.3080  -15.4510 O.2       1 CGW        -0.3878
     16 OAD        -2.6530   26.9510  -14.7550 O.2       1 CGW        -0.3855
     17 SAJ        -8.0730   29.5860  -15.3950 S.3       1 CGW        -0.0606
     18 H1         -5.0651   29.5624  -12.8840 H         1 CGW         0.2011
     19 H2         -4.6497   31.1235  -13.2000 H         1 CGW         0.2011
     20 H3         -4.0988   30.3853  -11.8358 H         1 CGW         0.2011
     21 H4         -2.7949   28.8538  -13.0800 H         1 CGW         0.1049
     22 H5         -2.4564   29.3028  -15.5304 H         1 CGW         0.0652
     23 H6         -3.8494   30.4360  -15.4850 H         1 CGW         0.0652
     24 H7         -8.6305   27.1748  -16.2027 H         1 CGW         0.0838
     25 H8         -5.8097   30.8001  -15.8571 H         1 CGW         0.0415
     26 H9         -4.3482   25.1141  -14.9667 H         1 CGW         0.2255
@<TRIPOS>BOND
     1    2    1 1  
     2    2    3 1  
     3    5    2 1  
     4    3    4 ar 
     5    3    6 ar 
     6   14    5 1  
     7    9    7 2  
     8    7   17 1  
     9   10    8 2  
    10    8   17 1  
    11   10    9 1  
    12    9   11 1  
    13   10   14 1  
    14   11   13 am 
    15   11   15 2  
    16   13   12 am 
    17   12   14 am 
    18   12   16 2  
    19    1   18 1  
    20    1   19 1  
    21    1   20 1  
    22    2   21 1  
    23    5   22 1  
    24    5   23 1  
    25    7   24 1  
    26    8   25 1  
    27   13   26 1  
@<TRIPOS>SUBSTRUCTURE
     1 CGW         1

