### 
### Created by X-TOOL on Wed Jan  1 15:39:34 2020
### 

@<TRIPOS>MOLECULE
6f2n_ligand
   38    40     1     0     0
SMALL
GAST_HUCK


@<TRIPOS>ATOM
      1 C4         15.8360   13.2620   41.3330 C.ar      1 CF8        -0.0643
      2 C5         17.0420   13.9180   41.3490 C.ar      1 CF8        -0.0706
      3 C6         17.3650   14.7220   42.4040 C.ar      1 CF8        -0.0705
      4 C7         16.4730   14.8940   43.4530 C.ar      1 CF8        -0.0597
      5 C8         15.2440   14.2330   43.4760 C.ar      1 CF8        -0.0265
      6 C9         14.2710   14.4710   44.6290 C.3       1 CF8         0.0146
      7 C10        12.8690   14.9420   44.2330 C.ar      1 CF8        -0.0309
      8 C11        11.7690   14.1970   44.5570 C.ar      1 CF8        -0.0528
      9 C12        10.4580   14.6030   44.2070 C.ar      1 CF8        -0.0254
     10 C13         9.3000   13.8570   44.5690 C.ar      1 CF8        -0.0577
     11 C14         8.0530   14.2820   44.1960 C.ar      1 CF8        -0.0636
     12 C15         7.8930   15.4670   43.4860 C.ar      1 CF8        -0.0634
     13 C          13.3870   11.5400   43.3050 C.2       1 CF8         0.0474
     14 O          11.8380    9.9050   43.7910 O.co2     1 CF8        -0.5589
     15 C1         12.0800   10.8890   43.0680 C.2       1 CF8         0.0739
     16 C16         8.9790   16.2260   43.1430 C.ar      1 CF8        -0.0567
     17 C17        10.2900   15.8130   43.4880 C.ar      1 CF8        -0.0221
     18 C18        11.4450   16.5580   43.1530 C.ar      1 CF8        -0.0565
     19 C19        12.6910   16.1230   43.5190 C.ar      1 CF8        -0.0547
     20 C2         13.7330   12.5380   42.4310 C.2       1 CF8        -0.0437
     21 C3         14.9400   13.3710   42.4040 C.ar      1 CF8        -0.0276
     22 O1         11.3070   11.1470   42.0880 O.co2     1 CF8        -0.5589
     23 S          14.4440   11.0650   44.6260 S.3       1 CF8        -0.1105
     24 H1         15.5731   12.6499   40.4778 H         1 CF8         0.0579
     25 H2         17.7365   13.7978   40.5254 H         1 CF8         0.0557
     26 H3         18.3232   15.2286   42.4223 H         1 CF8         0.0580
     27 H4         16.7360   15.5550   44.2709 H         1 CF8         0.0553
     28 H5         14.7096   15.2346   45.2882 H         1 CF8         0.0589
     29 H6         14.1656   13.5259   45.1819 H         1 CF8         0.0589
     30 H7         11.9045   13.2675   45.0981 H         1 CF8         0.0536
     31 H8          9.4068   12.9448   45.1448 H         1 CF8         0.0604
     32 H9          7.1832   13.6898   44.4563 H         1 CF8         0.0611
     33 H10         6.8989   15.7926   43.2016 H         1 CF8         0.0599
     34 H11         8.8347   17.1537   42.6012 H         1 CF8         0.0619
     35 H12        11.3426   17.4846   42.5998 H         1 CF8         0.0620
     36 H13        13.5588   16.7125   43.2461 H         1 CF8         0.0589
     37 H14        13.0080   12.7414   41.6443 H         1 CF8         0.0514
     38 H15        14.0116   10.3200   45.1495 H         1 CF8         0.1251
@<TRIPOS>BOND
     1    1    2 ar 
     2   21    1 ar 
     3    2    3 ar 
     4    4    3 ar 
     5    5    4 ar 
     6    5    6 1  
     7   21    5 ar 
     8    6    7 1  
     9    7    8 ar 
    10    7   19 ar 
    11    8    9 ar 
    12    9   10 ar 
    13    9   17 ar 
    14   10   11 ar 
    15   11   12 ar 
    16   16   12 ar 
    17   13   15 1  
    18   20   13 2  
    19   13   23 1  
    20   15   14 ar 
    21   15   22 ar 
    22   17   16 ar 
    23   18   17 ar 
    24   19   18 ar 
    25   20   21 1  
    26    1   24 1  
    27    2   25 1  
    28    3   26 1  
    29    4   27 1  
    30    6   28 1  
    31    6   29 1  
    32    8   30 1  
    33   10   31 1  
    34   11   32 1  
    35   12   33 1  
    36   16   34 1  
    37   18   35 1  
    38   19   36 1  
    39   20   37 1  
    40   23   38 1  
@<TRIPOS>SUBSTRUCTURE
     1 CF8         1

