### 
### Created by X-TOOL on Wed Jan  1 15:39:38 2020
### 

@<TRIPOS>MOLECULE
6f34_ligand
   27    26     1     0     0
SMALL
GAST_HUCK


@<TRIPOS>ATOM
      1 N         -11.1610   -0.7700   28.2790 N.4       1 ARG         0.2327
      2 CA        -12.6070   -0.8490   28.4480 C.3       1 ARG         0.0284
      3 C         -13.0050   -0.5030   29.8780 C.2       1 ARG         0.0844
      4 O         -14.1550   -0.1560   30.1500 O.co2     1 ARG        -0.5643
      5 CB        -13.1140   -2.2440   28.0840 C.3       1 ARG         0.0055
      6 CG        -13.4400   -2.4300   26.6130 C.3       1 ARG        -0.0131
      7 CD        -13.7530   -3.8870   26.3060 C.3       1 ARG         0.0628
      8 NE        -13.8100   -4.1450   24.8700 N.pl3     1 ARG        -0.2723
      9 CZ        -13.5600   -5.3240   24.3120 C.cat     1 ARG         0.2882
     10 NH1       -13.2320   -6.3630   25.0690 N.pl3     1 ARG        -0.2849
     11 NH2       -13.6350   -5.4660   22.9960 N.pl3     1 ARG        -0.2849
     12 OXT       -12.1840   -0.5650   30.7940 O.co2     1 ARG        -0.5643
     13 H1        -10.9207   -1.0022   27.3280 H         1 ARG         0.2010
     14 H2        -10.7133   -1.4193   28.9067 H         1 ARG         0.2010
     15 H3        -10.8492    0.1661   28.4853 H         1 ARG         0.2010
     16 H4        -13.0753   -0.1199   27.7705 H         1 ARG         0.1024
     17 H5        -14.0265   -2.4409   28.6659 H         1 ARG         0.0340
     18 H6        -12.3388   -2.9742   28.3593 H         1 ARG         0.0340
     19 H7        -12.5767   -2.1124   26.0099 H         1 ARG         0.0302
     20 H8        -14.3134   -1.8124   26.3568 H         1 ARG         0.0302
     21 H9        -14.7259   -4.1424   26.7512 H         1 ARG         0.0689
     22 H10       -12.9696   -4.5193   26.7492 H         1 ARG         0.0689
     23 H11       -14.0603   -3.3619   24.2495 H         1 ARG         0.2642
     24 H12       -13.0385   -7.2764   24.6341 H         1 ARG         0.2615
     25 H13       -13.1708   -6.2562   26.0916 H         1 ARG         0.2615
     26 H14       -13.8893   -4.6618   22.4049 H         1 ARG         0.2615
     27 H15       -13.4389   -6.3806   22.5647 H         1 ARG         0.2615
@<TRIPOS>BOND
     1    1    2 1  
     2    2    3 1  
     3    2    5 1  
     4    3    4 ar 
     5    3   12 ar 
     6    5    6 1  
     7    6    7 1  
     8    7    8 1  
     9    8    9 ar 
    10    9   10 ar 
    11    9   11 ar 
    12    1   13 1  
    13    1   14 1  
    14    1   15 1  
    15    2   16 1  
    16    5   17 1  
    17    5   18 1  
    18    6   19 1  
    19    6   20 1  
    20    7   21 1  
    21    7   22 1  
    22    8   23 1  
    23   10   24 1  
    24   10   25 1  
    25   11   26 1  
    26   11   27 1  
@<TRIPOS>SUBSTRUCTURE
     1 ARG         1

