### 
### Created by X-TOOL on Wed Jan  1 15:39:37 2020
### 

@<TRIPOS>MOLECULE
6f3b_ligand
   40    41     1     0     0
SMALL
GAST_HUCK


@<TRIPOS>ATOM
      1 C1          6.6430   35.9820   11.0560 C.3       1 CJK        -0.0343
      2 C3          8.0670   36.2700   13.1200 C.ar      1 CJK        -0.0670
      3 C5          8.1420   34.6180   14.8770 C.ar      1 CJK        -0.0279
      4 C6          7.2940   33.8240   14.1210 C.ar      1 CJK        -0.0649
      5 C7          6.8230   34.2570   12.8910 C.ar      1 CJK        -0.0670
      6 C8          8.5870   34.1890   16.2530 C.3       1 CJK         0.0623
      7 C10        10.9750   33.6750   16.0750 C.2       1 CJK         0.2861
      8 N12        12.2450   34.0810   16.4100 N.am      1 CJK        -0.2221
      9 C13        12.6660   35.3160   16.9690 C.ar      1 CJK         0.0982
     10 C14        13.2870   35.3320   18.2250 C.ar      1 CJK        -0.0231
     11 C15        13.7450   36.5380   18.7410 C.ar      1 CJK         0.0831
     12 C16        13.6040   37.7210   18.0280 C.ar      1 CJK        -0.0599
     13 C17        12.9680   37.7060   16.7930 C.ar      1 CJK        -0.0447
     14 C18        12.5010   36.5110   16.2540 C.ar      1 CJK         0.1088
     15 O21        14.6070   35.2250   20.8060 O.2       1 CJK        -0.1521
     16 C2          7.1950   35.4900   12.3720 C.ar      1 CJK        -0.0528
     17 C4          8.5280   35.8470   14.3550 C.ar      1 CJK        -0.0649
     18 N9          9.9880   34.4880   16.5090 N.am      1 CJK        -0.2580
     19 O11        10.7550   32.6420   15.4440 O.2       1 CJK        -0.3915
     20 O19        11.9040   36.4750   15.0150 O.3       1 CJK        -0.3395
     21 S20        14.5140   36.5740   20.3350 S.o2      1 CJK         0.0576
     22 O22        13.8030   37.5300   21.1270 O.2       1 CJK        -0.1521
     23 N23        16.0230   37.1260   20.1410 N.am      1 CJK        -0.2623
     24 H1          7.0628   36.9733   10.8299 H         1 CJK         0.0378
     25 H2          5.5474   36.0542   11.1220 H         1 CJK         0.0378
     26 H3          6.9166   35.2771   10.2571 H         1 CJK         0.0378
     27 H4          8.3927   37.2275   12.7298 H         1 CJK         0.0540
     28 H5          6.9952   32.8519   14.4963 H         1 CJK         0.0540
     29 H6          6.1522   33.6215   12.3242 H         1 CJK         0.0540
     30 H7          8.4356   33.1038   16.3494 H         1 CJK         0.0668
     31 H8          7.9732   34.7128   17.0006 H         1 CJK         0.0668
     32 H9         12.9711   33.4157   16.2362 H         1 CJK         0.2221
     33 H10        13.4087   34.4136   18.7879 H         1 CJK         0.0484
     34 H11        13.9878   38.6506   18.4325 H         1 CJK         0.0478
     35 H12        12.8345   38.6318   16.2452 H         1 CJK         0.0495
     36 H13         9.1986   36.4824   14.9221 H         1 CJK         0.0540
     37 H14        10.2254   35.3151   17.0184 H         1 CJK         0.1876
     38 H15        12.5171   36.7875   14.3601 H         1 CJK         0.2433
     39 H16        16.6264   37.2208   20.9328 H         1 CJK         0.1633
     40 H17        16.3520   37.3723   19.2293 H         1 CJK         0.1633
@<TRIPOS>BOND
     1   16    1 1  
     2    2   16 ar 
     3   17    2 ar 
     4    3    4 ar 
     5    6    3 1  
     6    3   17 ar 
     7    4    5 ar 
     8    5   16 ar 
     9   18    6 1  
    10    7    8 am 
    11    7   18 am 
    12    7   19 2  
    13    8    9 1  
    14    9   10 ar 
    15    9   14 ar 
    16   10   11 ar 
    17   11   12 ar 
    18   11   21 1  
    19   12   13 ar 
    20   13   14 ar 
    21   14   20 1  
    22   21   15 2  
    23   21   22 2  
    24   21   23 am 
    25    1   24 1  
    26    1   25 1  
    27    1   26 1  
    28    2   27 1  
    29    4   28 1  
    30    5   29 1  
    31    6   30 1  
    32    6   31 1  
    33    8   32 1  
    34   10   33 1  
    35   12   34 1  
    36   13   35 1  
    37   17   36 1  
    38   18   37 1  
    39   20   38 1  
    40   23   39 1  
    41   23   40 1  
@<TRIPOS>SUBSTRUCTURE
     1 CJK         1

