### 
### Created by X-TOOL on Wed Jan  1 15:39:37 2020
### 

@<TRIPOS>MOLECULE
6f3d_ligand
   61    64     1     0     0
SMALL
GAST_HUCK


@<TRIPOS>ATOM
      1 C1         20.3510   43.0080   12.8050 C.3       1 CJT        -0.0212
      2 C2         20.8340   44.4380   12.5080 C.3       1 CJT        -0.0075
      3 C3         22.3050   44.4900   12.0600 C.3       1 CJT        -0.0243
      4 C7         24.4020   43.2830    9.2240 C.ar      1 CJT         0.1191
      5 C8         23.8910   42.8790    7.0340 C.ar      1 CJT         0.0493
      6 C9         26.0770   42.8730    7.5690 C.ar      1 CJT         0.1320
      7 C10        25.8120   43.1890    8.9260 C.ar      1 CJT         0.0494
      8 C11        27.0990   43.2190    9.5810 C.2       1 CJT        -0.0338
      9 C12        28.0310   43.0110    8.6070 C.2       1 CJT         0.0204
     10 C13        27.3660   43.5390   11.0270 C.3       1 CJT        -0.0228
     11 C14        27.3330   45.0630   11.2730 C.3       1 CJT        -0.0431
     12 C15        27.6330   45.4030   12.7410 C.3       1 CJT        -0.0318
     13 C16        28.9930   44.8280   13.1620 C.3       1 CJT         0.0486
     14 C19        29.3460   45.1960   14.5950 C.2       1 CJT         0.1766
     15 C20        17.9150   43.5530   12.3190 C.3       1 CJT        -0.0431
     16 O          28.4690   45.4740   15.4190 O.2       1 CJT        -0.3970
     17 N5         30.6410   45.1870   14.8920 N.am      1 CJT        -0.3006
     18 C17        28.9850   43.3070   12.9650 C.3       1 CJT        -0.0318
     19 C18        28.7170   42.9620   11.5010 C.3       1 CJT        -0.0431
     20 N4         27.4250   42.7500    7.4090 N.pl3     1 CJT        -0.2756
     21 N3         25.1460   42.7560    6.5980 N.ar      1 CJT        -0.2785
     22 N2         23.4650   43.1590    8.2680 N.ar      1 CJT        -0.2737
     23 N1         23.9690   43.5370   10.4830 N.pl3     1 CJT        -0.2984
     24 C4         22.5710   43.5250   10.9150 C.3       1 CJT         0.0416
     25 C5         22.1580   42.1110   11.3030 C.3       1 CJT        -0.0243
     26 C6         20.6780   42.0330   11.6720 C.3       1 CJT        -0.0075
     27 N          18.8650   42.8530   13.1970 N.4       1 CJT         0.2331
     28 C          18.5920   43.1210   14.6030 C.3       1 CJT        -0.0431
     29 H1         20.9304   42.6813   13.6811 H         1 CJT         0.0851
     30 H2         20.7229   45.0429   13.4200 H         1 CJT         0.0320
     31 H3         20.2081   44.8614   11.7086 H         1 CJT         0.0320
     32 H4         22.9480   44.2213   12.9111 H         1 CJT         0.0290
     33 H5         22.5425   45.5118   11.7292 H         1 CJT         0.0290
     34 H6         23.1167   42.7326    6.2897 H         1 CJT         0.0974
     35 H7         29.1083   43.0477    8.7618 H         1 CJT         0.0786
     36 H8         26.5684   43.0766   11.6270 H         1 CJT         0.0390
     37 H9         26.3345   45.4453   11.0145 H         1 CJT         0.0284
     38 H10        28.0871   45.5448   10.6333 H         1 CJT         0.0284
     39 H11        26.8462   44.9746   13.3793 H         1 CJT         0.0293
     40 H12        27.6494   46.4961   12.8628 H         1 CJT         0.0293
     41 H13        29.7643   45.2569   12.5054 H         1 CJT         0.0538
     42 H14        16.8895   43.3829   12.6787 H         1 CJT         0.0777
     43 H15        18.0121   43.1685   11.2930 H         1 CJT         0.0777
     44 H16        18.1328   44.6312   12.3287 H         1 CJT         0.0777
     45 H17        30.9436   45.4192   15.8164 H         1 CJT         0.1814
     46 H18        31.3131   44.9481   14.1911 H         1 CJT         0.1814
     47 H19        28.1970   42.8643   13.5920 H         1 CJT         0.0293
     48 H20        29.9622   42.8979   13.2609 H         1 CJT         0.0293
     49 H21        29.5230   43.3811   10.8808 H         1 CJT         0.0284
     50 H22        28.6987   41.8680   11.3883 H         1 CJT         0.0284
     51 H23        27.9065   42.5021    6.5329 H         1 CJT         0.2269
     52 H24        24.6819   43.7563   11.1934 H         1 CJT         0.1867
     53 H25        21.9532   43.8411   10.0615 H         1 CJT         0.0562
     54 H26        22.7577   41.7895   12.1673 H         1 CJT         0.0290
     55 H27        22.3490   41.4386   10.4536 H         1 CJT         0.0290
     56 H28        20.0721   42.2880   10.7900 H         1 CJT         0.0320
     57 H29        20.4403   41.0093   11.9967 H         1 CJT         0.0320
     58 H30        18.6682   41.8727   13.0695 H         1 CJT         0.2030
     59 H31        19.3203   42.5824   15.2270 H         1 CJT         0.0777
     60 H32        17.5753   42.7816   14.8503 H         1 CJT         0.0777
     61 H33        18.6743   44.2013   14.7931 H         1 CJT         0.0777
@<TRIPOS>BOND
     1    2    1 1  
     2    1   26 1  
     3    1   27 1  
     4    3    2 1  
     5   24    3 1  
     6    4    7 ar 
     7    4   22 ar 
     8   23    4 1  
     9    5   21 ar 
    10   22    5 ar 
    11    7    6 ar 
    12    6   20 1  
    13    6   21 ar 
    14    7    8 1  
    15    8    9 2  
    16    8   10 1  
    17    9   20 1  
    18   10   11 1  
    19   10   19 1  
    20   11   12 1  
    21   12   13 1  
    22   13   14 1  
    23   18   13 1  
    24   14   16 2  
    25   14   17 am 
    26   27   15 1  
    27   19   18 1  
    28   23   24 1  
    29   24   25 1  
    30   25   26 1  
    31   27   28 1  
    32    1   29 1  
    33    2   30 1  
    34    2   31 1  
    35    3   32 1  
    36    3   33 1  
    37    5   34 1  
    38    9   35 1  
    39   10   36 1  
    40   11   37 1  
    41   11   38 1  
    42   12   39 1  
    43   12   40 1  
    44   13   41 1  
    45   15   42 1  
    46   15   43 1  
    47   15   44 1  
    48   17   45 1  
    49   17   46 1  
    50   18   47 1  
    51   18   48 1  
    52   19   49 1  
    53   19   50 1  
    54   20   51 1  
    55   23   52 1  
    56   24   53 1  
    57   25   54 1  
    58   25   55 1  
    59   26   56 1  
    60   26   57 1  
    61   27   58 1  
    62   28   59 1  
    63   28   60 1  
    64   28   61 1  
@<TRIPOS>SUBSTRUCTURE
     1 CJT         1

