### 
### Created by X-TOOL on Wed Jan  1 15:39:37 2020
### 

@<TRIPOS>MOLECULE
6f3e_ligand
   58    62     1     0     0
SMALL
GAST_HUCK


@<TRIPOS>ATOM
      1 C1        -18.9060  -15.9640   10.1990 C.ar      1 CJQ         0.1763
      2 C2        -17.5020  -16.1180   10.0530 C.ar      1 CJQ         0.0523
      3 C3        -16.4100  -16.0420   10.9700 C.2       1 CJQ        -0.0312
      4 C7        -14.5970  -15.8000   12.5110 C.3       1 CJQ        -0.0334
      5 C8        -16.1620  -15.7840   12.4390 C.3       1 CJQ        -0.0046
      6 C9        -16.9140  -16.8700   13.2120 C.3       1 CJQ         0.0442
      7 C10       -16.6750  -16.8140   14.7030 C.2       1 CJQ         0.1750
      8 C11       -20.7740  -15.7120   11.7290 C.3       1 CJQ         0.0883
      9 C12       -20.8070  -15.0200   13.0670 C.3       1 CJQ        -0.0161
     10 C13       -22.2440  -14.7610   13.4830 C.3       1 CJQ        -0.0069
     11 C14       -23.0830  -16.0350   13.5160 C.3       1 CJQ        -0.0205
     12 C15       -22.9460  -16.8810   12.2380 C.3       1 CJQ        -0.0069
     13 C16       -21.4800  -17.0510   11.8010 C.3       1 CJQ        -0.0161
     14 C19       -26.1890  -15.4590   15.6160 C.3       1 CJQ         0.0878
     15 C20       -24.9320  -16.2100   15.2460 C.3       1 CJQ        -0.0076
     16 O         -17.1590  -15.9080   15.3810 O.2       1 CJQ        -0.3971
     17 N2        -15.9340  -17.7850   15.2100 N.am      1 CJQ        -0.3008
     18 C6        -14.0950  -16.5300   11.2810 C.3       1 CJQ        -0.0094
     19 C4        -15.2470  -16.3910   10.3690 C.2       1 CJQ         0.0171
     20 C5        -17.1040  -16.4950    8.7730 C.ar      1 CJQ         0.1056
     21 S         -15.3970  -16.8200    8.6910 S.3       1 CJQ        -0.0197
     22 N1        -17.9100  -16.6390    7.7250 N.ar      1 CJQ        -0.2791
     23 C         -19.2010  -16.4140    8.0080 C.ar      1 CJQ         0.0589
     24 N         -19.7520  -16.0860    9.1850 N.ar      1 CJQ        -0.2569
     25 O1        -19.3510  -15.8880   11.4730 O.3       1 CJQ        -0.2885
     26 N3        -24.4610  -15.7350   13.9430 N.4       1 CJQ         0.2406
     27 O2        -27.2100  -15.5970   14.6120 O.3       1 CJQ        -0.3693
     28 C18       -26.7450  -15.1480   13.3250 C.3       1 CJQ         0.0878
     29 C17       -25.4790  -15.8610   12.8870 C.3       1 CJQ        -0.0076
     30 H1        -14.2676  -16.3244   13.4201 H         1 CJQ         0.0307
     31 H2        -14.2104  -14.7703   12.5211 H         1 CJQ         0.0307
     32 H3        -16.5384  -14.7994   12.7535 H         1 CJQ         0.0410
     33 H4        -16.5862  -17.8527   12.8422 H         1 CJQ         0.0519
     34 H5        -17.9914  -16.7489   13.0260 H         1 CJQ         0.0519
     35 H6        -21.2408  -15.0903   10.9508 H         1 CJQ         0.0663
     36 H7        -20.2705  -14.0624   12.9951 H         1 CJQ         0.0297
     37 H8        -20.3196  -15.6578   13.8190 H         1 CJQ         0.0297
     38 H9        -22.6971  -14.0591   12.7674 H         1 CJQ         0.0321
     39 H10       -22.2448  -14.3124   14.4873 H         1 CJQ         0.0321
     40 H11       -22.6571  -16.6581   14.3162 H         1 CJQ         0.0851
     41 H12       -23.5015  -16.3878   11.4267 H         1 CJQ         0.0321
     42 H13       -23.3764  -17.8759   12.4251 H         1 CJQ         0.0321
     43 H14       -20.9605  -17.6926   12.5279 H         1 CJQ         0.0297
     44 H15       -21.4535  -17.5251   10.8088 H         1 CJQ         0.0297
     45 H16       -25.9454  -14.3926   15.7316 H         1 CJQ         0.0613
     46 H17       -26.5716  -15.8531   16.5690 H         1 CJQ         0.0613
     47 H18       -25.1484  -17.2870   15.1900 H         1 CJQ         0.0837
     48 H19       -24.1575  -16.0306   16.0062 H         1 CJQ         0.0837
     49 H20       -15.7389  -17.8051   16.1906 H         1 CJQ         0.1814
     50 H21       -15.5688  -18.4991   14.6128 H         1 CJQ         0.1814
     51 H22       -13.8804  -17.5864   11.4998 H         1 CJQ         0.0438
     52 H23       -13.1950  -16.0508   10.8681 H         1 CJQ         0.0438
     53 H24       -19.8893  -16.5099    7.1761 H         1 CJQ         0.0990
     54 H25       -24.4137  -14.7389   14.0897 H         1 CJQ         0.2038
     55 H26       -26.5416  -14.0684   13.3797 H         1 CJQ         0.0613
     56 H27       -27.5320  -15.3356   12.5797 H         1 CJQ         0.0613
     57 H28       -25.6979  -16.9247   12.7123 H         1 CJQ         0.0837
     58 H29       -25.1036  -15.4065   11.9583 H         1 CJQ         0.0837
@<TRIPOS>BOND
     1    1    2 ar 
     2    1   24 ar 
     3   25    1 1  
     4    2    3 1  
     5    2   20 ar 
     6    3    5 1  
     7    3   19 2  
     8    5    4 1  
     9    4   18 1  
    10    5    6 1  
    11    6    7 1  
    12    7   16 2  
    13    7   17 am 
    14    9    8 1  
    15   13    8 1  
    16    8   25 1  
    17   10    9 1  
    18   11   10 1  
    19   11   12 1  
    20   26   11 1  
    21   12   13 1  
    22   15   14 1  
    23   14   27 1  
    24   15   26 1  
    25   18   19 1  
    26   19   21 1  
    27   20   21 1  
    28   20   22 ar 
    29   22   23 ar 
    30   23   24 ar 
    31   26   29 1  
    32   27   28 1  
    33   28   29 1  
    34    4   30 1  
    35    4   31 1  
    36    5   32 1  
    37    6   33 1  
    38    6   34 1  
    39    8   35 1  
    40    9   36 1  
    41    9   37 1  
    42   10   38 1  
    43   10   39 1  
    44   11   40 1  
    45   12   41 1  
    46   12   42 1  
    47   13   43 1  
    48   13   44 1  
    49   14   45 1  
    50   14   46 1  
    51   15   47 1  
    52   15   48 1  
    53   17   49 1  
    54   17   50 1  
    55   18   51 1  
    56   18   52 1  
    57   23   53 1  
    58   26   54 1  
    59   28   55 1  
    60   28   56 1  
    61   29   57 1  
    62   29   58 1  
@<TRIPOS>SUBSTRUCTURE
     1 CJQ         1

