### 
### Created by X-TOOL on Wed Jan  1 15:39:38 2020
### 

@<TRIPOS>MOLECULE
6f3g_ligand
   50    52     1     0     0
SMALL
GAST_HUCK


@<TRIPOS>ATOM
      1 C1        -29.0880  -16.6240  -12.5720 C.3       1 CJN        -0.0352
      2 C2        -27.7580  -15.9750  -12.1550 C.3       1 CJN         0.0597
      3 C3        -27.8430  -14.4910  -12.5550 C.3       1 CJN        -0.0352
      4 C7        -26.5090  -16.4050   -8.6600 C.ar      1 CJN         0.0377
      5 C9        -24.2520  -16.3250   -8.0710 C.ar      1 CJN         0.0445
      6 C11       -24.8280  -16.0590  -10.3370 C.ar      1 CJN         0.1499
      7 C13       -22.9210  -15.8670  -11.9690 C.3       1 CJN         0.0405
      8 C15       -22.7380  -15.0740  -13.2790 C.3       1 CJN        -0.0246
      9 C16       -21.2310  -14.9700  -13.5710 C.3       1 CJN        -0.0075
     10 C19       -20.8590  -17.2860  -12.5140 C.3       1 CJN        -0.0075
     11 C20       -22.3500  -17.3000  -12.1270 C.3       1 CJN        -0.0246
     12 C22       -18.2280  -15.7170  -13.1260 C.3       1 CJN        -0.0431
     13 C24       -26.2180  -16.1830  -10.0360 C.ar      1 CJN         0.1362
     14 N4        -27.4650  -16.1660  -10.7100 N.pl3     1 CJN        -0.2519
     15 C5        -28.4650  -16.3780   -9.7950 C.2       1 CJN         0.0347
     16 C6        -27.9580  -16.5170   -8.5610 C.2       1 CJN        -0.0449
     17 N8        -25.5220  -16.4600   -7.7500 N.ar      1 CJN        -0.3134
     18 N10       -23.9290  -16.1470   -9.3390 N.ar      1 CJN        -0.2732
     19 N12       -24.3610  -15.8820  -11.6310 N.pl3     1 CJN        -0.2986
     20 C17       -20.6130  -16.3820  -13.7440 C.3       1 CJN        -0.0212
     21 N21       -19.1640  -16.3210  -14.0940 N.4       1 CJN         0.2331
     22 C23       -18.8680  -15.9140  -15.4900 C.3       1 CJN        -0.0431
     23 H1        -29.2577  -16.4550  -13.6456 H         1 CJN         0.0259
     24 H2        -29.9111  -16.1763  -11.9958 H         1 CJN         0.0259
     25 H3        -29.0468  -17.7051  -12.3731 H         1 CJN         0.0259
     26 H4        -26.9423  -16.4456  -12.7234 H         1 CJN         0.0639
     27 H5        -26.9090  -13.9818  -12.2752 H         1 CJN         0.0259
     28 H6        -28.6885  -14.0185  -12.0336 H         1 CJN         0.0259
     29 H7        -27.9922  -14.4122  -13.6420 H         1 CJN         0.0259
     30 H8        -23.4841  -16.3594   -7.3067 H         1 CJN         0.0962
     31 H9        -22.3724  -15.3608  -11.1611 H         1 CJN         0.0559
     32 H10       -23.1661  -14.0669  -13.1676 H         1 CJN         0.0290
     33 H11       -23.2421  -15.5975  -14.1048 H         1 CJN         0.0290
     34 H12       -20.7345  -14.4576  -12.7338 H         1 CJN         0.0320
     35 H13       -21.0802  -14.3931  -14.4954 H         1 CJN         0.0320
     36 H14       -20.5397  -18.3114  -12.7519 H         1 CJN         0.0320
     37 H15       -20.2709  -16.9063  -11.6655 H         1 CJN         0.0320
     38 H16       -22.9159  -17.8236  -12.9116 H         1 CJN         0.0290
     39 H17       -22.4645  -17.8354  -11.1730 H         1 CJN         0.0290
     40 H18       -17.2069  -15.7502  -13.5337 H         1 CJN         0.0777
     41 H19       -18.2640  -16.2793  -12.1813 H         1 CJN         0.0777
     42 H20       -18.5153  -14.6713  -12.9416 H         1 CJN         0.0777
     43 H21       -29.5256  -16.4268  -10.0375 H         1 CJN         0.1014
     44 H22       -28.5279  -16.6838   -7.6481 H         1 CJN         0.0320
     45 H23       -25.0465  -15.7555  -12.3893 H         1 CJN         0.1844
     46 H24       -21.1287  -16.8520  -14.5944 H         1 CJN         0.0851
     47 H25       -18.9019  -17.2941  -14.0759 H         1 CJN         0.2030
     48 H26       -17.7790  -15.9004  -15.6449 H         1 CJN         0.0777
     49 H27       -19.2770  -14.9095  -15.6737 H         1 CJN         0.0777
     50 H28       -19.3284  -16.6304  -16.1863 H         1 CJN         0.0777
@<TRIPOS>BOND
     1    2    1 1  
     2    2    3 1  
     3   14    2 1  
     4   13    4 ar 
     5    4   16 1  
     6    4   17 ar 
     7    5   17 ar 
     8   18    5 ar 
     9    6   13 ar 
    10    6   18 ar 
    11   19    6 1  
    12    8    7 1  
    13   11    7 1  
    14    7   19 1  
    15    9    8 1  
    16   20    9 1  
    17   10   11 1  
    18   20   10 1  
    19   21   12 1  
    20   13   14 1  
    21   14   15 1  
    22   15   16 2  
    23   20   21 1  
    24   21   22 1  
    25    1   23 1  
    26    1   24 1  
    27    1   25 1  
    28    2   26 1  
    29    3   27 1  
    30    3   28 1  
    31    3   29 1  
    32    5   30 1  
    33    7   31 1  
    34    8   32 1  
    35    8   33 1  
    36    9   34 1  
    37    9   35 1  
    38   10   36 1  
    39   10   37 1  
    40   11   38 1  
    41   11   39 1  
    42   12   40 1  
    43   12   41 1  
    44   12   42 1  
    45   15   43 1  
    46   16   44 1  
    47   19   45 1  
    48   20   46 1  
    49   21   47 1  
    50   22   48 1  
    51   22   49 1  
    52   22   50 1  
@<TRIPOS>SUBSTRUCTURE
     1 CJN         1

