### 
### Created by X-TOOL on Wed Jan  1 15:39:38 2020
### 

@<TRIPOS>MOLECULE
6f3i_ligand
   65    68     1     0     0
SMALL
GAST_HUCK


@<TRIPOS>ATOM
      1 C1        -15.7390  -39.1670  -12.4270 C.3       1 CKN        -0.0086
      2 C2        -15.7290  -38.7080  -10.9900 C.2       1 CKN        -0.0342
      3 C3        -16.8430  -38.5860  -10.1820 C.2       1 CKN         0.1458
      4 N6        -16.3090  -36.2910  -14.7740 N.am      1 CKN        -0.3008
      5 C7        -20.4780  -39.9850  -13.0170 C.3       1 CKN        -0.0242
      6 C8        -21.9730  -40.0730  -13.3460 C.3       1 CKN        -0.0075
      7 C9        -22.5960  -38.6860  -13.5960 C.3       1 CKN        -0.0206
      8 C10       -22.2630  -37.6760  -12.4940 C.3       1 CKN        -0.0075
      9 C11       -20.7590  -37.6400  -12.1960 C.3       1 CKN        -0.0242
     10 C12       -24.8660  -39.4970  -12.9880 C.3       1 CKN        -0.0107
     11 C13       -26.3460  -39.2610  -13.2310 C.3       1 CKN         0.0740
     12 C14       -25.8290  -38.7260  -15.5760 C.3       1 CKN         0.0740
     13 C15       -24.3620  -39.0000  -15.2940 C.3       1 CKN        -0.0107
     14 C16       -27.7540  -40.2380  -15.0320 C.2       1 CKN         0.1757
     15 C19       -14.5880  -38.4070  -10.1650 C.2       1 CKN        -0.0705
     16 C20       -15.3810  -38.0500  -13.4130 C.3       1 CKN         0.0449
     17 C21       -16.5570  -37.4170  -14.1250 C.2       1 CKN         0.1752
     18 O1        -17.6750  -37.9460  -14.1030 O.2       1 CKN        -0.3971
     19 C         -14.8630  -40.4020  -12.6480 C.3       1 CKN        -0.0549
     20 C18       -15.0140  -38.1130   -8.9170 C.2       1 CKN         0.0473
     21 N         -16.4090  -38.2060   -8.9240 N.pl3     1 CKN        -0.1726
     22 N1        -17.2340  -37.9710   -7.8360 N.2       1 CKN        -0.1718
     23 C4        -18.5550  -38.1210   -8.1320 C.2       1 CKN         0.0733
     24 N2        -19.0970  -38.4320   -9.3130 N.2       1 CKN        -0.2823
     25 C5        -18.2600  -38.6430  -10.3500 C.2       1 CKN         0.1478
     26 N3        -18.8010  -38.9560  -11.5430 N.pl3     1 CKN        -0.2908
     27 C6        -20.2210  -39.0280  -11.8640 C.3       1 CKN         0.0434
     28 N4        -24.0440  -38.6780  -13.8950 N.4       1 CKN         0.2402
     29 N5        -26.6790  -39.4870  -14.6480 N.am      1 CKN        -0.2633
     30 C17       -28.0470  -40.3620  -16.4980 C.3       1 CKN         0.0258
     31 O         -28.4460  -40.8100  -14.2040 O.2       1 CKN        -0.3972
     32 H1        -16.7733  -39.4666  -12.6514 H         1 CKN         0.0423
     33 H2        -17.0448  -35.8241  -15.2644 H         1 CKN         0.1814
     34 H3        -15.3857  -35.9069  -14.7741 H         1 CKN         0.1814
     35 H4        -19.9360  -39.6290  -13.9055 H         1 CKN         0.0290
     36 H5        -20.1125  -40.9850  -12.7407 H         1 CKN         0.0290
     37 H6        -22.4942  -40.5486  -12.5021 H         1 CKN         0.0320
     38 H7        -22.1015  -40.6872  -14.2495 H         1 CKN         0.0320
     39 H8        -22.1064  -38.3129  -14.5076 H         1 CKN         0.0851
     40 H9        -22.8018  -37.9575  -11.5772 H         1 CKN         0.0320
     41 H10       -22.5868  -36.6756  -12.8171 H         1 CKN         0.0320
     42 H11       -20.5803  -36.9733  -11.3396 H         1 CKN         0.0290
     43 H12       -20.2289  -37.2531  -13.0788 H         1 CKN         0.0290
     44 H13       -24.6387  -40.5597  -13.1579 H         1 CKN         0.0834
     45 H14       -24.6258  -39.2324  -11.9477 H         1 CKN         0.0834
     46 H15       -26.5963  -38.2244  -12.9613 H         1 CKN         0.0575
     47 H16       -26.9302  -39.9534  -12.6071 H         1 CKN         0.0575
     48 H17       -26.0618  -39.0246  -16.6088 H         1 CKN         0.0575
     49 H18       -26.0277  -37.6513  -15.4514 H         1 CKN         0.0575
     50 H19       -23.7424  -38.3805  -15.9591 H         1 CKN         0.0834
     51 H20       -24.1489  -40.0631  -15.4794 H         1 CKN         0.0834
     52 H21       -13.5498  -38.4150  -10.4937 H         1 CKN         0.0298
     53 H22       -14.7087  -38.4713  -14.1749 H         1 CKN         0.0521
     54 H23       -14.8552  -37.2603  -12.8563 H         1 CKN         0.0521
     55 H24       -15.1433  -41.1841  -11.9271 H         1 CKN         0.0250
     56 H25       -13.8063  -40.1325  -12.5042 H         1 CKN         0.0250
     57 H26       -15.0097  -40.7773  -13.6715 H         1 CKN         0.0250
     58 H27       -14.3879  -37.8523   -8.0650 H         1 CKN         0.0826
     59 H28       -19.2517  -37.9696   -7.3089 H         1 CKN         0.1029
     60 H29       -18.1435  -39.1662  -12.3074 H         1 CKN         0.1888
     61 H30       -20.7549  -39.4048  -10.9792 H         1 CKN         0.0564
     62 H31       -24.3392  -37.7248  -13.7522 H         1 CKN         0.2038
     63 H32       -28.9361  -40.9934  -16.6421 H         1 CKN         0.0467
     64 H33       -27.1858  -40.8199  -17.0066 H         1 CKN         0.0467
     65 H34       -28.2340  -39.3637  -16.9203 H         1 CKN         0.0467
@<TRIPOS>BOND
     1    2    1 1  
     2    1   16 1  
     3    1   19 1  
     4    3    2 2  
     5    2   15 1  
     6    3   21 1  
     7   25    3 1  
     8   17    4 am 
     9    5    6 1  
    10   27    5 1  
    11    6    7 1  
    12    8    7 1  
    13    7   28 1  
    14    9    8 1  
    15   27    9 1  
    16   10   11 1  
    17   28   10 1  
    18   11   29 1  
    19   13   12 1  
    20   12   29 1  
    21   28   13 1  
    22   29   14 am 
    23   14   30 1  
    24   14   31 2  
    25   20   15 2  
    26   16   17 1  
    27   17   18 2  
    28   21   20 1  
    29   21   22 1  
    30   23   22 2  
    31   24   23 1  
    32   25   24 2  
    33   26   25 1  
    34   26   27 1  
    35    1   32 1  
    36    4   33 1  
    37    4   34 1  
    38    5   35 1  
    39    5   36 1  
    40    6   37 1  
    41    6   38 1  
    42    7   39 1  
    43    8   40 1  
    44    8   41 1  
    45    9   42 1  
    46    9   43 1  
    47   10   44 1  
    48   10   45 1  
    49   11   46 1  
    50   11   47 1  
    51   12   48 1  
    52   12   49 1  
    53   13   50 1  
    54   13   51 1  
    55   15   52 1  
    56   16   53 1  
    57   16   54 1  
    58   19   55 1  
    59   19   56 1  
    60   19   57 1  
    61   20   58 1  
    62   23   59 1  
    63   26   60 1  
    64   27   61 1  
    65   28   62 1  
    66   30   63 1  
    67   30   64 1  
    68   30   65 1  
@<TRIPOS>SUBSTRUCTURE
     1 CKN         1

