### 
### Created by X-TOOL on Wed Jan  1 15:39:37 2020
### 

@<TRIPOS>MOLECULE
6f4n_ligand
   14    13     1     0     0
SMALL
GAST_HUCK


@<TRIPOS>ATOM
      1 C1        -37.5890    8.4910  -47.4610 C.2       1 AKG         0.1249
      2 O1        -37.9230    7.5520  -48.2320 O.co2     1 AKG        -0.5464
      3 O2        -38.3310    8.8190  -46.5010 O.co2     1 AKG        -0.5464
      4 C2        -36.2810    9.2370  -47.6760 C.2       1 AKG         0.1731
      5 O5        -35.5460    8.9910  -48.5710 O.2       1 AKG        -0.3576
      6 C3        -36.0240   10.3120  -46.6170 C.3       1 AKG         0.0423
      7 C4        -34.7650   11.1270  -46.9210 C.3       1 AKG         0.0164
      8 C5        -34.4500   12.1170  -45.7890 C.2       1 AKG         0.0371
      9 O3        -33.2910   12.6190  -45.7250 O.co2     1 AKG        -0.5688
     10 O4        -35.3880   12.3620  -44.9890 O.co2     1 AKG        -0.5688
     11 H1        -35.9038    9.8247  -45.6382 H         1 AKG         0.0516
     12 H2        -36.8879   10.9921  -46.5844 H         1 AKG         0.0516
     13 H3        -34.9189   11.6882  -47.8545 H         1 AKG         0.0456
     14 H4        -33.9146   10.4399  -47.0422 H         1 AKG         0.0456
@<TRIPOS>BOND
     1    1    2 ar 
     2    1    3 ar 
     3    1    4 1  
     4    4    5 2  
     5    4    6 1  
     6    6    7 1  
     7    7    8 1  
     8    8    9 ar 
     9    8   10 ar 
    10    6   11 1  
    11    6   12 1  
    12    7   13 1  
    13    7   14 1  
@<TRIPOS>SUBSTRUCTURE
     1 AKG         1

