### 
### Created by X-TOOL on Wed Jan  1 15:39:37 2020
### 

@<TRIPOS>MOLECULE
6f4w_ligand
   32    34     1     0     0
SMALL
GAST_HUCK


@<TRIPOS>ATOM
      1 N1        -11.6020   -7.5900   17.2090 N.ar      1 FMC        -0.2657
      2 C2        -11.5630   -7.5620   15.8370 C.ar      1 FMC         0.0517
      3 N3        -10.4300   -7.1440   15.1920 N.ar      1 FMC        -0.3005
      4 C4         -9.3490   -6.7390   15.9270 C.ar      1 FMC         0.0829
      5 C5         -9.3890   -6.7580   17.2690 C.ar      1 FMC         0.1556
      6 C6        -10.5280   -7.1910   17.9180 C.ar      1 FMC         0.1568
      7 N6        -10.9850   -7.3610   19.2540 N.pl3     1 FMC        -0.3134
      8 N7         -8.1860   -6.3020   17.7570 N.pl3     1 FMC        -0.2100
      9 N8         -7.3870   -6.0060   16.6840 N.2       1 FMC        -0.2021
     10 C9         -8.0940   -6.2600   15.5610 C.2       1 FMC         0.0849
     11 C1'        -7.6670   -6.0880   14.2500 C.3       1 FMC         0.1318
     12 C2'        -6.3650   -5.3080   14.1580 C.3       1 FMC         0.1192
     13 O2'        -6.3010   -4.6660   12.8940 O.3       1 FMC        -0.3846
     14 C3'        -5.3160   -6.4190   14.2470 C.3       1 FMC         0.1136
     15 O3'        -4.1530   -6.1620   13.4930 O.3       1 FMC        -0.3863
     16 C4'        -6.0350   -7.6900   13.7830 C.3       1 FMC         0.1129
     17 O4'        -7.4390   -7.3360   13.6660 O.3       1 FMC        -0.3535
     18 C5'        -5.8660   -8.8870   14.6900 C.3       1 FMC         0.0731
     19 O5'        -6.9640   -9.7810   14.5960 O.3       1 FMC        -0.3924
     20 H1        -12.4298   -7.8710   15.2640 H         1 FMC         0.0974
     21 H2        -10.3650   -7.1307   20.0436 H         1 FMC         0.1813
     22 H3        -11.9360   -7.7144   19.4320 H         1 FMC         0.1813
     23 H4         -7.9319   -6.2013   18.7501 H         1 FMC         0.2449
     24 H5         -8.4492   -5.5527   13.6917 H         1 FMC         0.0782
     25 H6         -6.2588   -4.5751   14.9713 H         1 FMC         0.0668
     26 H7         -5.4894   -4.1764   12.8295 H         1 FMC         0.2102
     27 H8         -5.0113   -6.5381   15.2972 H         1 FMC         0.0648
     28 H9         -3.7457   -5.3621   13.8040 H         1 FMC         0.2100
     29 H10        -5.6456   -7.9672   12.7923 H         1 FMC         0.0648
     30 H11        -5.7806   -8.5366   15.7292 H         1 FMC         0.0584
     31 H12        -4.9472   -9.4212   14.4065 H         1 FMC         0.0584
     32 H13        -7.7614   -9.3286   14.8448 H         1 FMC         0.2095
@<TRIPOS>BOND
     1    1    2 ar 
     2    1    6 ar 
     3    2    3 ar 
     4    3    4 ar 
     5    4    5 ar 
     6    4   10 1  
     7    5    6 ar 
     8    5    8 1  
     9    6    7 1  
    10    8    9 1  
    11    9   10 2  
    12   10   11 1  
    13   11   12 1  
    14   11   17 1  
    15   12   13 1  
    16   12   14 1  
    17   14   15 1  
    18   14   16 1  
    19   16   17 1  
    20   16   18 1  
    21   18   19 1  
    22    2   20 1  
    23    7   21 1  
    24    7   22 1  
    25    8   23 1  
    26   11   24 1  
    27   12   25 1  
    28   13   26 1  
    29   14   27 1  
    30   15   28 1  
    31   16   29 1  
    32   18   30 1  
    33   18   31 1  
    34   19   32 1  
@<TRIPOS>SUBSTRUCTURE
     1 FMC         1

