### 
### Created by X-TOOL on Wed Jan  1 15:39:37 2020
### 

@<TRIPOS>MOLECULE
6f4x_ligand
   32    34     1     0     0
SMALL
GAST_HUCK


@<TRIPOS>ATOM
      1 N1        -13.0250    5.6610  -19.4390 N.ar      1 FMC        -0.2657
      2 C2        -11.8380    5.2980  -18.8750 C.ar      1 FMC         0.0517
      3 N3        -11.7030    5.3160  -17.5170 N.ar      1 FMC        -0.3005
      4 C4        -12.7370    5.6890  -16.7080 C.ar      1 FMC         0.0829
      5 C5        -13.9080    6.0400  -17.2790 C.ar      1 FMC         0.1556
      6 C6        -14.0500    6.0260  -18.6580 C.ar      1 FMC         0.1568
      7 N6        -15.0400    6.3040  -19.6480 N.pl3     1 FMC        -0.3134
      8 N7        -14.7940    6.3740  -16.2960 N.pl3     1 FMC        -0.2100
      9 N8        -14.1490    6.2220  -15.1000 N.2       1 FMC        -0.2021
     10 C9        -12.8960    5.7880  -15.3220 C.2       1 FMC         0.0849
     11 C1'       -11.9850    5.5750  -14.2850 C.3       1 FMC         0.1318
     12 C2'       -10.5930    5.0370  -14.6890 C.3       1 FMC         0.1192
     13 O2'       -10.3540    3.7560  -14.1470 O.3       1 FMC        -0.3846
     14 C3'        -9.6190    6.1130  -14.1870 C.3       1 FMC         0.1136
     15 O3'        -9.1520    5.7550  -12.8880 O.3       1 FMC        -0.3863
     16 C4'       -10.4890    7.3460  -14.0750 C.3       1 FMC         0.1129
     17 O4'       -11.7850    6.8500  -13.7030 O.3       1 FMC        -0.3535
     18 C5'       -10.6100    8.1760  -15.3320 C.3       1 FMC         0.0731
     19 O5'       -11.4200    9.3300  -15.1200 O.3       1 FMC        -0.3924
     20 H1        -11.0063    4.9968  -19.5016 H         1 FMC         0.0974
     21 H2        -15.9783    6.6197  -19.3636 H         1 FMC         0.1813
     22 H3        -14.8161    6.1889  -20.6468 H         1 FMC         0.1813
     23 H4        -15.7673    6.6830  -16.4302 H         1 FMC         0.2449
     24 H5        -12.4300    4.8794  -13.5583 H         1 FMC         0.0782
     25 H6        -10.5234    4.9614  -15.7842 H         1 FMC         0.0668
     26 H7         -9.4929    3.4561  -14.4138 H         1 FMC         0.2102
     27 H8         -8.7772    6.2626  -14.8790 H         1 FMC         0.0648
     28 H9         -8.7064    4.9172  -12.9327 H         1 FMC         0.2100
     29 H10       -10.0888    7.9918  -13.2796 H         1 FMC         0.0648
     30 H11       -11.0634    7.5616  -16.1238 H         1 FMC         0.0584
     31 H12        -9.6060    8.4969  -15.6465 H         1 FMC         0.0584
     32 H13       -12.2906    9.0597  -14.8525 H         1 FMC         0.2095
@<TRIPOS>BOND
     1    1    2 ar 
     2    1    6 ar 
     3    2    3 ar 
     4    3    4 ar 
     5    4    5 ar 
     6    4   10 1  
     7    5    6 ar 
     8    5    8 1  
     9    6    7 1  
    10    8    9 1  
    11    9   10 2  
    12   10   11 1  
    13   11   12 1  
    14   11   17 1  
    15   12   13 1  
    16   12   14 1  
    17   14   15 1  
    18   14   16 1  
    19   16   17 1  
    20   16   18 1  
    21   18   19 1  
    22    2   20 1  
    23    7   21 1  
    24    7   22 1  
    25    8   23 1  
    26   11   24 1  
    27   12   25 1  
    28   13   26 1  
    29   14   27 1  
    30   15   28 1  
    31   16   29 1  
    32   18   30 1  
    33   18   31 1  
    34   19   32 1  
@<TRIPOS>SUBSTRUCTURE
     1 FMC         1

