### 
### Created by X-TOOL on Wed Jan  1 15:39:37 2020
### 

@<TRIPOS>MOLECULE
6f5h_ligand
   72    75     1     0     0
SMALL
GAST_HUCK


@<TRIPOS>ATOM
      1 N          33.6780   14.4530   -7.2120 N.2       1 CQ5        -0.2610
      2 C          34.4620   13.0840   -9.0640 C.2       1 CQ5         0.0087
      3 O          32.8990   11.5740   -9.8520 O.2       1 CQ5        -0.4260
      4 O2         26.0960   14.0520  -12.1570 O.2       1 CQ5        -0.3967
      5 C16        27.2650   13.8150  -12.3480 C.2       1 CQ5         0.1807
      6 C17        27.7110   13.5840  -13.8010 C.3       1 CQ5         0.0496
      7 C18        27.5510   12.1370  -14.2800 C.3       1 CQ5         0.0066
      8 C25        27.9810   12.0260  -15.7610 C.3       1 CQ5        -0.0504
      9 C19        28.3140   11.1490  -13.3980 C.ar      1 CQ5        -0.0380
     10 C24        29.6860   10.9410  -13.4830 C.ar      1 CQ5        -0.0599
     11 C23        30.3070   10.0250  -12.6560 C.ar      1 CQ5        -0.0685
     12 C22        29.5630    9.3140  -11.7260 C.ar      1 CQ5        -0.0687
     13 C21        28.2010    9.5300  -11.6290 C.ar      1 CQ5        -0.0685
     14 C20        27.5790   10.4310  -12.4580 C.ar      1 CQ5        -0.0599
     15 N4         28.0980   13.8110  -11.2330 N.am      1 CQ5        -0.2729
     16 C13        29.5480   14.1050  -11.3480 C.3       1 CQ5         0.0366
     17 C12        30.4230   13.2410  -10.4510 C.3       1 CQ5        -0.0007
     18 C14        27.5870   13.5970   -9.8450 C.3       1 CQ5         0.0366
     19 C15        28.4910   12.7460   -8.9410 C.3       1 CQ5        -0.0007
     20 C5         29.9470   13.2200   -8.9760 C.3       1 CQ5         0.0992
     21 O1         29.9710   14.5550   -8.4920 O.3       1 CQ5        -0.3855
     22 C4         30.8350   12.3190   -8.0880 C.3       1 CQ5         0.1014
     23 N1         32.2040   12.8670   -8.1150 N.am      1 CQ5        -0.1871
     24 C3         33.1430   12.4530   -9.0530 C.2       1 CQ5         0.1887
     25 C2         32.5140   13.8740   -7.2300 C.2       1 CQ5         0.1393
     26 C1         34.7320   14.0490   -8.1650 C.2       1 CQ5         0.0856
     27 N2         35.9180   14.7640   -8.1130 N.pl3     1 CQ5        -0.3024
     28 C6         36.9600   14.7930   -9.1540 C.3       1 CQ5         0.0690
     29 C7         36.3940   15.3170  -10.4950 C.3       1 CQ5        -0.0110
     30 N3         35.6650   16.5920  -10.4690 N.4       1 CQ5         0.2367
     31 C11        36.5240   17.7530  -10.2180 C.3       1 CQ5        -0.0316
     32 C10        35.7440   18.9430  -10.7890 C.3       1 CQ5        -0.0077
     33 C9         34.6500   18.3320  -11.6610 C.3       1 CQ5        -0.0077
     34 C8         35.0470   16.8670  -11.7720 C.3       1 CQ5        -0.0316
     35 H1         35.2149   12.7778   -9.7888 H         1 CQ5         0.0212
     36 H2         28.7723   13.8607  -13.8852 H         1 CQ5         0.0527
     37 H3         27.1098   14.2331  -14.4547 H         1 CQ5         0.0527
     38 H4         26.4837   11.8784  -14.2173 H         1 CQ5         0.0483
     39 H5         27.8643   10.9860  -16.0997 H         1 CQ5         0.0256
     40 H6         29.0340   12.3281  -15.8607 H         1 CQ5         0.0256
     41 H7         27.3506   12.6849  -16.3762 H         1 CQ5         0.0256
     42 H8         30.2721   11.5010  -14.2026 H         1 CQ5         0.0557
     43 H9         31.3758    9.8619  -12.7339 H         1 CQ5         0.0599
     44 H10        30.0473    8.5923  -11.0782 H         1 CQ5         0.0559
     45 H11        27.6203    8.9847  -10.8939 H         1 CQ5         0.0599
     46 H12        26.5087   10.5843  -12.3802 H         1 CQ5         0.0557
     47 H13        29.7105   15.1593  -11.0794 H         1 CQ5         0.0523
     48 H14        29.8534   13.9413  -12.3920 H         1 CQ5         0.0523
     49 H15        31.4505   13.6326  -10.4818 H         1 CQ5         0.0313
     50 H16        30.4114   12.2112  -10.8374 H         1 CQ5         0.0313
     51 H17        26.6091   13.0982   -9.9152 H         1 CQ5         0.0523
     52 H18        27.4630   14.5823   -9.3720 H         1 CQ5         0.0523
     53 H19        28.4497   11.7005   -9.2805 H         1 CQ5         0.0313
     54 H20        28.1213   12.8107   -7.9070 H         1 CQ5         0.0313
     55 H21        30.8643   14.8781   -8.5017 H         1 CQ5         0.2103
     56 H22        30.8357   11.2913   -8.4803 H         1 CQ5         0.0671
     57 H23        30.4530   12.3175   -7.0565 H         1 CQ5         0.0671
     58 H24        31.7562   14.1981   -6.5182 H         1 CQ5         0.1571
     59 H25        36.0867   15.3277   -7.2676 H         1 CQ5         0.1845
     60 H26        37.3486   13.7746   -9.3017 H         1 CQ5         0.0576
     61 H27        37.7766   15.4532   -8.8265 H         1 CQ5         0.0576
     62 H28        35.7064   14.5518  -10.8845 H         1 CQ5         0.0835
     63 H29        37.2409   15.4353  -11.1869 H         1 CQ5         0.0835
     64 H30        34.9562   16.5367   -9.7545 H         1 CQ5         0.2034
     65 H31        37.4899   17.6395  -10.7319 H         1 CQ5         0.0814
     66 H32        36.6955   17.8830   -9.1393 H         1 CQ5         0.0814
     67 H33        36.4050   19.5820  -11.3929 H         1 CQ5         0.0319
     68 H34        35.3009   19.5378   -9.9767 H         1 CQ5         0.0319
     69 H35        34.6282   18.8079  -12.6525 H         1 CQ5         0.0319
     70 H36        33.6648   18.4354  -11.1829 H         1 CQ5         0.0319
     71 H37        34.1651   16.2297  -11.9336 H         1 CQ5         0.0814
     72 H38        35.7655   16.7132  -12.5906 H         1 CQ5         0.0814
@<TRIPOS>BOND
     1    1   25 2  
     2   26    1 1  
     3   24    2 1  
     4    2   26 2  
     5   24    3 2  
     6    5    4 2  
     7    5    6 1  
     8   15    5 am 
     9    6    7 1  
    10    7    8 1  
    11    7    9 1  
    12    9   10 ar 
    13    9   14 ar 
    14   10   11 ar 
    15   11   12 ar 
    16   13   12 ar 
    17   14   13 ar 
    18   16   15 1  
    19   18   15 1  
    20   17   16 1  
    21   20   17 1  
    22   19   18 1  
    23   20   19 1  
    24   20   21 1  
    25   22   20 1  
    26   23   22 1  
    27   23   24 am 
    28   23   25 1  
    29   26   27 1  
    30   27   28 1  
    31   28   29 1  
    32   29   30 1  
    33   30   31 1  
    34   30   34 1  
    35   31   32 1  
    36   32   33 1  
    37   33   34 1  
    38    2   35 1  
    39    6   36 1  
    40    6   37 1  
    41    7   38 1  
    42    8   39 1  
    43    8   40 1  
    44    8   41 1  
    45   10   42 1  
    46   11   43 1  
    47   12   44 1  
    48   13   45 1  
    49   14   46 1  
    50   16   47 1  
    51   16   48 1  
    52   17   49 1  
    53   17   50 1  
    54   18   51 1  
    55   18   52 1  
    56   19   53 1  
    57   19   54 1  
    58   21   55 1  
    59   22   56 1  
    60   22   57 1  
    61   25   58 1  
    62   27   59 1  
    63   28   60 1  
    64   28   61 1  
    65   29   62 1  
    66   29   63 1  
    67   30   64 1  
    68   31   65 1  
    69   31   66 1  
    70   32   67 1  
    71   32   68 1  
    72   33   69 1  
    73   33   70 1  
    74   34   71 1  
    75   34   72 1  
@<TRIPOS>SUBSTRUCTURE
     1 CQ5         1

