### 
### Created by X-TOOL on Mon Aug  2 16:13:21 2021
### 

@<TRIPOS>MOLECULE
6f5l_ligand
   37    36     1     0     0
SMALL
GAST_HUCK


@<TRIPOS>ATOM
      1 OAC        13.8030   48.6400   40.5460 O.co2     1 CQB        -0.5690
      2 CAO        13.8510   47.4130   40.3000 C.2       1 CQB         0.0350
      3 OAG        13.1350   46.8430   39.4510 O.co2     1 CQB        -0.5690
      4 CAJ        14.9490   46.6070   41.0240 C.3       1 CQB         0.0044
      5 CAK        14.7170   45.0730   40.9840 C.3       1 CQB         0.0013
      6 CAU        16.0370   44.3210   41.2670 C.3       1 CQB         0.1415
      7 CAQ        17.0340   44.5340   40.0980 C.2       1 CQB         0.0685
      8 OAI        16.8710   43.7620   39.1450 O.co2     1 CQB        -0.5661
      9 OAE        17.9350   45.4220   40.1780 O.co2     1 CQB        -0.5661
     10 OAN        16.5510   44.8030   42.5190 O.3       1 CQB        -0.2457
     11 CAR        17.8580   44.5480   42.7780 C.2       1 CQB         0.3232
     12 OAF        18.3830   43.5360   42.2930 O.2       1 CQB        -0.3774
     13 N          18.4860   45.4040   43.5900 N.am      1 CQB        -0.2469
     14 CA         19.8850   45.2630   44.0190 C.3       1 CQB         0.0964
     15 C          20.0440   45.8180   45.4490 C.2       1 CQB         0.0601
     16 OXT        19.5810   46.9700   45.6950 O.co2     1 CQB        -0.5666
     17 O          20.6120   45.0820   46.2940 O.co2     1 CQB        -0.5666
     18 CB         20.7570   46.0080   42.9780 C.3       1 CQB        -0.0156
     19 CG         22.2240   46.1570   43.4360 C.3       1 CQB        -0.0431
     20 CD2        22.9740   46.9840   42.3870 C.3       1 CQB        -0.0625
     21 CD1        22.8840   44.7570   43.4950 C.3       1 CQB        -0.0625
     22 H1         14.9801   46.9273   42.0759 H         1 CQB         0.0432
     23 H2         15.9149   46.8259   40.5453 H         1 CQB         0.0432
     24 H3         14.3441   44.7886   39.9890 H         1 CQB         0.0329
     25 H4         13.9731   44.7989   41.7465 H         1 CQB         0.0329
     26 H5         15.8315   43.2441   41.3567 H         1 CQB         0.0820
     27 H6         17.9706   46.1916   43.9277 H         1 CQB         0.1891
     28 H7         20.1655   44.1994   44.0245 H         1 CQB         0.0725
     29 H8         20.3342   47.0105   42.8160 H         1 CQB         0.0308
     30 H9         20.7376   45.4448   42.0333 H         1 CQB         0.0308
     31 H10        22.2699   46.6456   44.4205 H         1 CQB         0.0297
     32 H11        24.0234   47.1021   42.6950 H         1 CQB         0.0232
     33 H12        22.5046   47.9747   42.2970 H         1 CQB         0.0232
     34 H13        22.9326   46.4690   41.4159 H         1 CQB         0.0232
     35 H14        22.3653   44.1383   44.2421 H         1 CQB         0.0232
     36 H15        23.9421   44.8620   43.7768 H         1 CQB         0.0232
     37 H16        22.8133   44.2764   42.5081 H         1 CQB         0.0232
@<TRIPOS>BOND
     1    1    2 ar 
     2    2    3 ar 
     3    2    4 1  
     4    4    5 1  
     5    5    6 1  
     6    6    7 1  
     7    6   10 1  
     8    7    8 ar 
     9    7    9 ar 
    10   10   11 1  
    11   11   12 2  
    12   11   13 am 
    13   13   14 1  
    14   14   15 1  
    15   14   18 1  
    16   15   16 ar 
    17   15   17 ar 
    18   18   19 1  
    19   19   20 1  
    20   19   21 1  
    21    4   22 1  
    22    4   23 1  
    23    5   24 1  
    24    5   25 1  
    25    6   26 1  
    26   13   27 1  
    27   14   28 1  
    28   18   29 1  
    29   18   30 1  
    30   19   31 1  
    31   20   32 1  
    32   20   33 1  
    33   20   34 1  
    34   21   35 1  
    35   21   36 1  
    36   21   37 1  
@<TRIPOS>SUBSTRUCTURE
     1 CQB         1

