### 
### Created by X-TOOL on Wed Jan  1 15:39:36 2020
### 

@<TRIPOS>MOLECULE
6f5u_ligand
   60    62     1     0     0
SMALL
GAST_HUCK


@<TRIPOS>ATOM
      1 C1        -45.5760   11.5180   -4.5060 C.3       1 CQN         0.0922
      2 C10       -42.0370   13.5040   -5.7650 C.2       1 CQN        -0.0494
      3 C11       -43.3320   14.1640   -5.4680 C.3       1 CQN        -0.0131
      4 C12       -44.3660   13.6250   -8.5630 C.3       1 CQN         0.0605
      5 C13       -44.5610   15.1530   -8.6980 C.ar      1 CQN        -0.0216
      6 C14       -43.5520   15.9770   -8.5420 C.ar      1 CQN        -0.0584
      7 C15       -43.7820   17.4870   -8.6780 C.ar      1 CQN        -0.0685
      8 C16       -44.9910   17.9580   -8.9500 C.ar      1 CQN        -0.0687
      9 C17       -46.1610   17.0000   -9.1270 C.ar      1 CQN        -0.0685
     10 C18       -45.9620   15.7020   -9.0110 C.ar      1 CQN        -0.0584
     11 C19       -46.5390   12.5120   -8.9270 C.ar      1 CQN         0.0422
     12 C2        -44.8040   12.4550   -5.5460 C.3       1 CQN         0.0255
     13 C20       -47.6920   11.9830   -8.5650 C.ar      1 CQN        -0.0442
     14 C21       -48.6070   11.4080   -9.6490 C.ar      1 CQN        -0.0737
     15 C22       -48.2630   11.4340  -10.9240 C.ar      1 CQN        -0.0751
     16 C23       -46.9270   12.0510  -11.3370 C.ar      1 CQN        -0.0737
     17 C24       -46.1370   12.5490  -10.4090 C.ar      1 CQN        -0.0442
     18 C3        -45.8870   13.1900   -6.4910 C.3       1 CQN         0.0739
     19 C4        -47.6280   11.0540   -3.4020 C.3       1 CQN         0.0502
     20 C5        -48.5310    9.8940   -3.9090 C.3       1 CQN        -0.0232
     21 C6        -48.3040    9.5880   -5.3770 C.3       1 CQN        -0.0606
     22 C7        -50.0090   10.2310   -3.6840 C.3       1 CQN        -0.0606
     23 C8        -43.2050   12.4720   -4.0830 C.3       1 CQN        -0.0131
     24 C9        -41.9540   12.4160   -4.9050 C.2       1 CQN        -0.0494
     25 N2        -44.0700   13.2350   -4.7910 N.4       1 CQN         0.2592
     26 N3        -45.6020   13.0920   -7.9650 N.pl3     1 CQN        -0.2921
     27 O1        -46.9810   11.7450   -4.4880 O.3       1 CQN        -0.3739
     28 H1        -45.1773   11.7096   -3.4989 H         1 CQN         0.0617
     29 H2        -45.3943   10.4679   -4.7787 H         1 CQN         0.0617
     30 H3        -41.3008   13.8102   -6.5067 H         1 CQN         0.0504
     31 H4        -43.8392   14.4520   -6.4006 H         1 CQN         0.0939
     32 H5        -43.1742   15.0571   -4.8455 H         1 CQN         0.0939
     33 H6        -43.5060   13.4085   -7.9122 H         1 CQN         0.0677
     34 H7        -44.1992   13.1751   -9.5528 H         1 CQN         0.0677
     35 H8        -42.5631   15.5932   -8.3186 H         1 CQN         0.0557
     36 H9        -42.9520   18.1726   -8.5511 H         1 CQN         0.0599
     37 H10       -45.1467   19.0264   -9.0465 H         1 CQN         0.0559
     38 H11       -47.1511   17.3827   -9.3469 H         1 CQN         0.0599
     39 H12       -46.7925   15.0169   -9.1373 H         1 CQN         0.0557
     40 H13       -44.1430   11.8544   -6.1882 H         1 CQN         0.0894
     41 H14       -47.9853   11.9561   -7.5218 H         1 CQN         0.0515
     42 H15       -49.5570   10.9704   -9.3644 H         1 CQN         0.0583
     43 H16       -48.9258   11.0192  -11.6748 H         1 CQN         0.0505
     44 H17       -46.6338   12.0782  -12.3802 H         1 CQN         0.0583
     45 H18       -45.1895   12.9914  -10.6948 H         1 CQN         0.0515
     46 H19       -45.9145   14.2550   -6.2171 H         1 CQN         0.0572
     47 H20       -46.8713   12.7371   -6.3012 H         1 CQN         0.0572
     48 H21       -46.8577   10.6396   -2.7350 H         1 CQN         0.0562
     49 H22       -48.2490   11.7705   -2.8444 H         1 CQN         0.0562
     50 H23       -48.2847    8.9929   -3.3282 H         1 CQN         0.0318
     51 H24       -48.9636    8.7637   -5.6859 H         1 CQN         0.0233
     52 H25       -47.2549    9.2962   -5.5328 H         1 CQN         0.0233
     53 H26       -48.5289   10.4821   -5.9770 H         1 CQN         0.0233
     54 H27       -50.1764   10.4534   -2.6198 H         1 CQN         0.0233
     55 H28       -50.6301    9.3732   -3.9814 H         1 CQN         0.0233
     56 H29       -50.2813   11.1083   -4.2892 H         1 CQN         0.0233
     57 H30       -43.0013   12.9300   -3.1039 H         1 CQN         0.0939
     58 H31       -43.6145   11.4616   -3.9371 H         1 CQN         0.0939
     59 H32       -41.1527   11.6813   -4.8421 H         1 CQN         0.0504
     60 H33       -44.6848   13.7214   -4.1574 H         1 CQN         0.2062
@<TRIPOS>BOND
     1    1   12 1  
     2   27    1 1  
     3    3    2 1  
     4    2   24 2  
     5   25    3 1  
     6    4    5 1  
     7   26    4 1  
     8    5    6 ar 
     9    5   10 ar 
    10    6    7 ar 
    11    7    8 ar 
    12    9    8 ar 
    13   10    9 ar 
    14   11   13 ar 
    15   11   17 ar 
    16   26   11 1  
    17   12   18 1  
    18   12   25 1  
    19   13   14 ar 
    20   14   15 ar 
    21   16   15 ar 
    22   17   16 ar 
    23   18   26 1  
    24   19   20 1  
    25   19   27 1  
    26   20   21 1  
    27   20   22 1  
    28   24   23 1  
    29   23   25 1  
    30    1   28 1  
    31    1   29 1  
    32    2   30 1  
    33    3   31 1  
    34    3   32 1  
    35    4   33 1  
    36    4   34 1  
    37    6   35 1  
    38    7   36 1  
    39    8   37 1  
    40    9   38 1  
    41   10   39 1  
    42   12   40 1  
    43   13   41 1  
    44   14   42 1  
    45   15   43 1  
    46   16   44 1  
    47   17   45 1  
    48   18   46 1  
    49   18   47 1  
    50   19   48 1  
    51   19   49 1  
    52   20   50 1  
    53   21   51 1  
    54   21   52 1  
    55   21   53 1  
    56   22   54 1  
    57   22   55 1  
    58   22   56 1  
    59   23   57 1  
    60   23   58 1  
    61   24   59 1  
    62   25   60 1  
@<TRIPOS>SUBSTRUCTURE
     1 CQN         1

