### 
### Created by X-TOOL on Wed Jan  1 15:39:35 2020
### 

@<TRIPOS>MOLECULE
6f5w_ligand
   28    28     1     0     0
SMALL
GAST_HUCK


@<TRIPOS>ATOM
      1 O4         25.3250  -38.0090   48.8680 O.3       1 KG1        -0.3866
      2 C4         25.0430  -39.3270   48.3840 C.3       1 KG1         0.1095
      3 C5         23.6880  -39.4090   47.6500 C.3       1 KG1         0.0873
      4 C6         23.5870  -38.4510   46.4810 C.3       1 KG1        -0.0361
      5 O5         22.6300  -39.1100   48.5620 O.3       1 KG1        -0.3430
      6 C3         25.0350  -40.2680   49.5810 C.3       1 KG1         0.1140
      7 O3         26.1880  -40.0060   50.3630 O.3       1 KG1        -0.3864
      8 C2         23.8270  -39.9650   50.4550 C.3       1 KG1         0.1341
      9 O2         23.7950  -40.9130   51.4970 O.3       1 KG1        -0.3841
     10 C1         22.5370  -40.0200   49.6530 C.3       1 KG1         0.1889
     11 O1         22.3450  -41.3540   49.2000 O.3       1 KG1        -0.3361
     12 CM         21.1140  -41.7040   48.5280 C.3       1 KG1         0.1111
     13 C7         20.8910  -42.9240   48.3130 C.1       1 KG1        -0.0772
     14 C8         20.7130  -44.1510   48.0560 C.1       1 KG1        -0.1169
     15 H1         25.3505  -37.4030   48.1368 H         1 KG1         0.2100
     16 H2         25.8378  -39.6282   47.6857 H         1 KG1         0.0646
     17 H3         23.5622  -40.4347   47.2731 H         1 KG1         0.0621
     18 H4         22.6022  -38.5585   46.0029 H         1 KG1         0.0255
     19 H5         24.3764  -38.6800   45.7500 H         1 KG1         0.0255
     20 H6         23.7090  -37.4188   46.8412 H         1 KG1         0.0255
     21 H7         25.0184  -41.3154   49.2452 H         1 KG1         0.0648
     22 H8         26.1706  -39.1032   50.6582 H         1 KG1         0.2100
     23 H9         23.9341  -38.9570   50.8821 H         1 KG1         0.0671
     24 H10        23.7231  -41.7854   51.1278 H         1 KG1         0.2101
     25 H11        21.6905  -39.7297   50.2926 H         1 KG1         0.0938
     26 H12        21.1151  -41.1936   47.5536 H         1 KG1         0.0698
     27 H13        20.2848  -41.3217   49.1413 H         1 KG1         0.0698
     28 H14        20.5645  -45.1743   47.8417 H         1 KG1         0.1229
@<TRIPOS>BOND
     1    1    2 1  
     2    2    3 1  
     3    2    6 1  
     4    3    4 1  
     5    3    5 1  
     6    5   10 1  
     7    6    7 1  
     8    6    8 1  
     9    8    9 1  
    10    8   10 1  
    11   10   11 1  
    12   11   12 1  
    13   12   13 1  
    14   13   14 3  
    15    1   15 1  
    16    2   16 1  
    17    3   17 1  
    18    4   18 1  
    19    4   19 1  
    20    4   20 1  
    21    6   21 1  
    22    7   22 1  
    23    8   23 1  
    24    9   24 1  
    25   10   25 1  
    26   12   26 1  
    27   12   27 1  
    28   14   28 1  
@<TRIPOS>SUBSTRUCTURE
     1 KG1         1

