### 
### Created by X-TOOL on Wed Jan  1 15:39:36 2020
### 

@<TRIPOS>MOLECULE
6f6i_ligand
   45    48     1     0     0
SMALL
GAST_HUCK


@<TRIPOS>ATOM
      1 FAA       -46.0900   18.1670  -10.0610 F         1 8PR        -0.1893
      2 CAB       -46.2350   16.5480   -8.2870 C.ar      1 8PR        -0.0349
      3 CAC       -44.1320   17.5090   -8.9330 C.ar      1 8PR        -0.0349
      4 CAD       -46.8700   12.1750   -8.0690 C.ar      1 8PR        -0.0530
      5 CAE       -45.5930   15.7980   -7.3150 C.ar      1 8PR        -0.0617
      6 CAF       -43.4900   16.7550   -7.9650 C.ar      1 8PR        -0.0617
      7 CAG       -47.9640   11.6600   -8.7490 C.ar      1 8PR        -0.0497
      8 CAH       -45.6860   12.4070  -10.1550 C.ar      1 8PR        -0.0128
      9 CAI       -41.9460   14.9360   -4.1630 C.3       1 8PR        -0.0316
     10 CAJ       -42.7870   15.7820   -5.1230 C.3       1 8PR        -0.0000
     11 CAK       -42.0810   12.9930   -5.6860 C.3       1 8PR        -0.0263
     12 CAL       -48.3640   11.2460  -12.3730 C.3       1 8PR         0.1845
     13 CAM       -44.1100   12.7780   -7.1020 C.3       1 8PR         0.0774
     14 NAN       -41.1670   13.8870   -4.9060 N.4       1 8PR         0.2275
     15 OAO       -44.4950   13.0830   -8.4100 O.3       1 8PR        -0.3272
     16 OAP       -48.8670   11.0320  -11.0780 O.3       1 8PR        -0.2984
     17 OAQ       -47.0210   11.6370  -12.2160 O.3       1 8PR        -0.2937
     18 CAR       -45.5050   17.4040   -9.0940 C.ar      1 8PR         0.1248
     19 CAS       -45.7340   12.5460   -8.7770 C.ar      1 8PR         0.0712
     20 CAT       -44.2200   15.8980   -7.1560 C.ar      1 8PR        -0.0431
     21 CAU       -47.9200   11.5180  -10.1460 C.ar      1 8PR         0.1117
     22 CAV       -46.7930   11.8860  -10.8410 C.ar      1 8PR         0.1152
     23 CAW       -43.0110   13.7640   -6.6330 C.3       1 8PR         0.0386
     24 CAX       -43.6900   14.9620   -6.0050 C.3       1 8PR         0.0057
     25 H1        -47.3081   16.4647   -8.4156 H         1 8PR         0.0587
     26 H2        -43.5615   18.1807   -9.5643 H         1 8PR         0.0587
     27 H3        -46.9015   12.2873   -6.9913 H         1 8PR         0.0422
     28 H4        -46.1650   15.1326   -6.6785 H         1 8PR         0.0547
     29 H5        -42.4162   16.8349   -7.8398 H         1 8PR         0.0547
     30 H6        -48.8530   11.3671   -8.2023 H         1 8PR         0.0483
     31 H7        -44.7963   12.6998  -10.7007 H         1 8PR         0.0436
     32 H8        -42.6128   14.4433   -3.4401 H         1 8PR         0.0815
     33 H9        -41.2443   15.5919   -3.6268 H         1 8PR         0.0815
     34 H10       -42.1071   16.3628   -5.7635 H         1 8PR         0.0341
     35 H11       -43.4084   16.4690   -4.5299 H         1 8PR         0.0341
     36 H12       -42.6983   12.4199   -4.9786 H         1 8PR         0.0819
     37 H13       -41.4689   12.3009   -6.2828 H         1 8PR         0.0819
     38 H14       -48.9351   12.0395  -12.8771 H         1 8PR         0.0969
     39 H15       -48.4243   10.3195  -12.9629 H         1 8PR         0.0969
     40 H16       -43.7176   11.7510   -7.0672 H         1 8PR         0.0616
     41 H17       -44.9819   12.8601   -6.4365 H         1 8PR         0.0616
     42 H18       -40.6478   13.3314   -4.2444 H         1 8PR         0.2014
     43 H19       -40.5272   14.3389   -5.5405 H         1 8PR         0.2014
     44 H20       -42.4245   14.1095   -7.4970 H         1 8PR         0.0403
     45 H21       -44.5368   14.6037   -5.4013 H         1 8PR         0.0461
@<TRIPOS>BOND
     1   18    1 1  
     2    5    2 ar 
     3    2   18 ar 
     4    6    3 ar 
     5    3   18 ar 
     6    4    7 ar 
     7   19    4 ar 
     8   20    5 ar 
     9   20    6 ar 
    10    7   21 ar 
    11   19    8 ar 
    12    8   22 ar 
    13   10    9 1  
    14    9   14 1  
    15   24   10 1  
    16   14   11 1  
    17   11   23 1  
    18   12   16 1  
    19   17   12 1  
    20   13   15 1  
    21   23   13 1  
    22   15   19 1  
    23   21   16 1  
    24   22   17 1  
    25   20   24 1  
    26   21   22 ar 
    27   23   24 1  
    28    2   25 1  
    29    3   26 1  
    30    4   27 1  
    31    5   28 1  
    32    6   29 1  
    33    7   30 1  
    34    8   31 1  
    35    9   32 1  
    36    9   33 1  
    37   10   34 1  
    38   10   35 1  
    39   11   36 1  
    40   11   37 1  
    41   12   38 1  
    42   12   39 1  
    43   13   40 1  
    44   13   41 1  
    45   14   42 1  
    46   14   43 1  
    47   23   44 1  
    48   24   45 1  
@<TRIPOS>SUBSTRUCTURE
     1 8PR         1

