### 
### Created by X-TOOL on Wed Jan  1 15:39:36 2020
### 

@<TRIPOS>MOLECULE
6f6n_ligand
   38    40     1     0     0
SMALL
GAST_HUCK


@<TRIPOS>ATOM
      1 CL19      -49.1420   10.8700   -2.5260 Cl        1 SRE        -0.0762
      2 C16       -48.1960   11.2930   -3.9760 C.ar      1 SRE         0.0471
      3 C15       -48.2360   10.4690   -5.0880 C.ar      1 SRE         0.0480
      4 CL20      -49.2340    8.9870   -5.0560 Cl        1 SRE        -0.0718
      5 C17       -47.4240   12.4420   -3.9880 C.ar      1 SRE        -0.0538
      6 C18       -46.6890   12.7770   -5.1110 C.ar      1 SRE        -0.0576
      7 C13       -46.7320   11.9570   -6.2270 C.ar      1 SRE        -0.0293
      8 C14       -47.4990   10.8010   -6.2160 C.ar      1 SRE        -0.0439
      9 C4        -45.8920   12.3290   -7.4950 C.3       1 SRE         0.0238
     10 C5        -46.2800   13.8220   -7.9430 C.ar      1 SRE        -0.0215
     11 C6        -47.6110   14.2080   -8.0500 C.ar      1 SRE        -0.0644
     12 C7        -47.9270   15.5090   -8.4420 C.ar      1 SRE        -0.0751
     13 C8        -46.9090   16.4310   -8.7300 C.ar      1 SRE        -0.0751
     14 C9        -45.5760   16.0440   -8.6230 C.ar      1 SRE        -0.0611
     15 C10       -45.2590   14.7470   -8.2340 C.ar      1 SRE         0.0086
     16 C1        -43.7380   14.3060   -8.1110 C.3       1 SRE         0.0091
     17 N11       -43.1070   15.2080   -7.1070 N.4       1 SRE         0.2381
     18 C12       -41.7250   15.4570   -7.4800 C.3       1 SRE        -0.0434
     19 C2        -43.3890   12.8860   -7.7220 C.3       1 SRE         0.0030
     20 C3        -44.4770   12.0170   -7.1170 C.3       1 SRE        -0.0251
     21 H1        -47.3953   13.0820   -3.1136 H         1 SRE         0.0606
     22 H2        -46.0830   13.6758   -5.1178 H         1 SRE         0.0562
     23 H3        -47.5226   10.1575   -7.0880 H         1 SRE         0.0566
     24 H4        -46.1649   11.6662   -8.3294 H         1 SRE         0.0605
     25 H5        -48.4015   13.4998   -7.8294 H         1 SRE         0.0541
     26 H6        -48.9652   15.8096   -8.5246 H         1 SRE         0.0542
     27 H7        -47.1596   17.4407   -9.0346 H         1 SRE         0.0543
     28 H8        -44.7859   16.7529   -8.8427 H         1 SRE         0.0540
     29 H9        -43.2790   14.4824   -9.0950 H         1 SRE         0.1001
     30 H10       -43.1364   14.7723   -6.1985 H         1 SRE         0.2026
     31 H11       -43.6095   16.0813   -7.0773 H         1 SRE         0.2026
     32 H12       -41.2594   16.1230   -6.7386 H         1 SRE         0.0777
     33 H13       -41.6927   15.9326   -8.4713 H         1 SRE         0.0777
     34 H14       -41.1765   14.5041   -7.5124 H         1 SRE         0.0777
     35 H15       -42.5709   12.9410   -6.9887 H         1 SRE         0.0344
     36 H16       -43.0337   12.3775   -8.6304 H         1 SRE         0.0344
     37 H17       -44.2757   10.9781   -7.4173 H         1 SRE         0.0313
     38 H18       -44.3999   12.1041   -6.0232 H         1 SRE         0.0313
@<TRIPOS>BOND
     1    1    2 1  
     2    2    3 ar 
     3    2    5 ar 
     4    3    4 1  
     5    3    8 ar 
     6    5    6 ar 
     7    6    7 ar 
     8    7    8 ar 
     9    7    9 1  
    10    9   10 1  
    11    9   20 1  
    12   10   11 ar 
    13   10   15 ar 
    14   11   12 ar 
    15   12   13 ar 
    16   13   14 ar 
    17   14   15 ar 
    18   15   16 1  
    19   16   17 1  
    20   16   19 1  
    21   17   18 1  
    22   19   20 1  
    23    5   21 1  
    24    6   22 1  
    25    8   23 1  
    26    9   24 1  
    27   11   25 1  
    28   12   26 1  
    29   13   27 1  
    30   14   28 1  
    31   16   29 1  
    32   17   30 1  
    33   17   31 1  
    34   18   32 1  
    35   18   33 1  
    36   18   34 1  
    37   19   35 1  
    38   19   36 1  
    39   20   37 1  
    40   20   38 1  
@<TRIPOS>SUBSTRUCTURE
     1 SRE         1

