### 
### Created by X-TOOL on Wed Jan  1 15:39:35 2020
### 

@<TRIPOS>MOLECULE
6f6r_ligand
   67    70     1     0     0
SMALL
GAST_HUCK


@<TRIPOS>ATOM
      1 C4         -0.4610   31.7480    7.2060 C.2       1 CVE         0.2297
      2 C6         -2.3780   30.3380    7.9760 C.2       1 CVE         0.3227
      3 N1         -2.9360   31.4820    8.5000 N.am      1 CVE        -0.2157
      4 C9         -0.3950   29.2560    7.0130 C.3       1 CVE         0.1550
      5 C10         0.9090   29.0270    7.7710 C.3       1 CVE        -0.0197
      6 C11        -0.2960   29.2370    5.4810 C.2       1 CVE         0.2068
      7 O7         -2.9920   29.2870    7.9240 O.2       1 CVE        -0.3870
      8 C14        -4.2720   31.3760    9.0860 C.3       1 CVE         0.0454
      9 O8          0.5740   31.8570    6.5430 O.2       1 CVE        -0.4003
     10 C2         -2.3040   32.6910    8.4530 C.2       1 CVE         0.0602
     11 C3         -1.1230   32.9250    7.8170 C.2       1 CVE         0.1365
     12 N5         -1.1020   30.4760    7.4400 N.am      1 CVE        -0.1477
     13 N12         0.8790   28.8640    4.9510 N.am      1 CVE        -0.2778
     14 O13        -1.2740   29.5320    4.7940 O.2       1 CVE        -0.3941
     15 N15        -0.2650   34.0410    7.8750 N.am      1 CVE        -0.2523
     16 C16        -0.2480   34.9660    8.8930 C.2       1 CVE         0.2124
     17 C17         0.6270   36.1580    8.6940 C.ar      1 CVE         0.0415
     18 O18        -0.8250   34.7760    9.9620 O.2       1 CVE        -0.3849
     19 C19         0.4330   37.2860    9.4910 C.ar      1 CVE        -0.0512
     20 C20         1.2870   38.3730    9.4000 C.ar      1 CVE        -0.0322
     21 C21         2.3550   38.3530    8.5080 C.ar      1 CVE         0.0693
     22 C22         2.5570   37.2290    7.7100 C.ar      1 CVE        -0.0322
     23 C23         1.6930   36.1500    7.7920 C.ar      1 CVE        -0.0512
     24 N24         3.1970   39.4840    8.4580 N.pl3     1 CVE        -0.2489
     25 C25         4.0320   39.9520    7.4590 C.ar      1 CVE         0.1648
     26 C26         4.8060   41.1170    7.7330 C.ar      1 CVE         0.0716
     27 N27         5.6410   41.6290    6.8530 N.ar      1 CVE        -0.2730
     28 N28         4.1090   39.3130    6.3010 N.ar      1 CVE        -0.2627
     29 C29         4.9700   39.8290    5.3690 C.ar      1 CVE         0.0560
     30 C30         5.7370   40.9840    5.6440 C.ar      1 CVE         0.0656
     31 C31         6.6030   41.4920    4.6460 C.ar      1 CVE        -0.0361
     32 C32         6.6900   40.8650    3.4280 C.ar      1 CVE        -0.0550
     33 C33         5.9350   39.7280    3.1580 C.ar      1 CVE        -0.0556
     34 C34         5.0840   39.2100    4.1020 C.ar      1 CVE        -0.0388
     35 C35         1.0440   28.5440    3.5330 C.3       1 CVE         0.0764
     36 C36         1.7010   27.1920    3.3340 C.3       1 CVE         0.0687
     37 O37         0.2860   29.5960    0.9630 O.co2     1 CVE        -0.5689
     38 C38         1.4850   29.6930    1.3200 C.2       1 CVE         0.0371
     39 C39         1.7960   29.6600    2.8140 C.3       1 CVE         0.0254
     40 O40         2.4550   29.8060    0.5390 O.co2     1 CVE        -0.5689
     41 O41         1.7220   26.7730    1.9700 O.3       1 CVE        -0.3926
     42 H1         -1.0406   28.4079    7.2849 H         1 CVE         0.0854
     43 H2          1.3870   28.1051    7.4081 H         1 CVE         0.0281
     44 H3          0.6963   28.9310    8.8460 H         1 CVE         0.0281
     45 H4          1.5840   29.8796    7.6054 H         1 CVE         0.0281
     46 H5         -4.5869   32.3608    9.4614 H         1 CVE         0.0559
     47 H6         -4.2517   30.6561    9.9174 H         1 CVE         0.0559
     48 H7         -4.9822   31.0315    8.3199 H         1 CVE         0.0559
     49 H8         -2.7788   33.5291    8.9610 H         1 CVE         0.0827
     50 H9          1.6764   28.8021    5.5513 H         1 CVE         0.1857
     51 H10         0.3788   34.1701    7.1208 H         1 CVE         0.2119
     52 H11        -0.3954   37.3124   10.1896 H         1 CVE         0.0638
     53 H12         1.1227   39.2425   10.0261 H         1 CVE         0.0550
     54 H13         3.3941   37.1990    7.0220 H         1 CVE         0.0550
     55 H14         1.8457   35.2904    7.1495 H         1 CVE         0.0638
     56 H15         3.1886   40.0602    9.3117 H         1 CVE         0.2182
     57 H16         4.7037   41.5981    8.6990 H         1 CVE         0.0926
     58 H17         7.1977   42.3765    4.8437 H         1 CVE         0.0665
     59 H18         7.3544   41.2601    2.6680 H         1 CVE         0.0638
     60 H19         6.0199   39.2457    2.1909 H         1 CVE         0.0663
     61 H20         4.4987   38.3259    3.8766 H         1 CVE         0.0633
     62 H21         0.0394   28.4853    3.0888 H         1 CVE         0.0597
     63 H22         1.1474   26.4444    3.9210 H         1 CVE         0.0581
     64 H23         2.7374   27.2498    3.6980 H         1 CVE         0.0581
     65 H24         2.8765   29.5029    2.9478 H         1 CVE         0.0454
     66 H25         1.5080   30.6246    3.2575 H         1 CVE         0.0454
     67 H26         2.2052   27.4066    1.4527 H         1 CVE         0.2095
@<TRIPOS>BOND
     1    1    9 2  
     2    1   11 1  
     3   12    1 am 
     4    2    3 am 
     5    2    7 2  
     6   12    2 am 
     7    3    8 1  
     8    3   10 1  
     9    4    5 1  
    10    6    4 1  
    11    4   12 1  
    12   13    6 am 
    13    6   14 2  
    14   11   10 2  
    15   11   15 1  
    16   35   13 1  
    17   15   16 am 
    18   16   17 1  
    19   16   18 2  
    20   17   19 ar 
    21   17   23 ar 
    22   19   20 ar 
    23   20   21 ar 
    24   22   21 ar 
    25   21   24 1  
    26   23   22 ar 
    27   24   25 1  
    28   25   26 ar 
    29   25   28 ar 
    30   26   27 ar 
    31   27   30 ar 
    32   28   29 ar 
    33   29   30 ar 
    34   29   34 ar 
    35   30   31 ar 
    36   31   32 ar 
    37   33   32 ar 
    38   34   33 ar 
    39   35   36 1  
    40   39   35 1  
    41   36   41 1  
    42   38   37 ar 
    43   38   39 1  
    44   38   40 ar 
    45    4   42 1  
    46    5   43 1  
    47    5   44 1  
    48    5   45 1  
    49    8   46 1  
    50    8   47 1  
    51    8   48 1  
    52   10   49 1  
    53   13   50 1  
    54   15   51 1  
    55   19   52 1  
    56   20   53 1  
    57   22   54 1  
    58   23   55 1  
    59   24   56 1  
    60   26   57 1  
    61   31   58 1  
    62   32   59 1  
    63   33   60 1  
    64   34   61 1  
    65   35   62 1  
    66   36   63 1  
    67   36   64 1  
    68   39   65 1  
    69   39   66 1  
    70   41   67 1  
@<TRIPOS>SUBSTRUCTURE
     1 CVE         1

