### 
### Created by X-TOOL on Wed Jan  1 15:39:37 2020
### 

@<TRIPOS>MOLECULE
6f6s_ligand
   49    52     1     0     0
SMALL
GAST_HUCK


@<TRIPOS>ATOM
      1 C17       -35.9960   15.4390   -8.3400 C.3       1 CXQ        -0.0426
      2 N1        -37.3260   15.6250   -8.2150 N.4       1 CXQ         0.2375
      3 C3        -37.8150   14.7520   -7.4280 C.3       1 CXQ        -0.0183
      4 C12       -37.5490   15.3230   -5.9190 C.3       1 CXQ        -0.0045
      5 C13       -37.3350   16.8380   -6.2140 C.3       1 CXQ        -0.0045
      6 C2        -37.5760   16.8470   -7.8220 C.3       1 CXQ        -0.0183
      7 C8        -39.3380   14.5850   -7.6080 C.3       1 CXQ         0.0173
      8 C6        -40.0510   15.9730   -8.0530 C.3       1 CXQ         0.0744
      9 C7        -39.0210   17.2570   -8.0640 C.3       1 CXQ         0.0173
     10 O1        -40.9840   16.2850   -7.1950 O.3       1 CXQ        -0.3484
     11 C1        -41.9950   15.3160   -6.9420 C.3       1 CXQ         0.1261
     12 C5        -42.0920   15.2900   -5.3390 C.ar      1 CXQ        -0.0032
     13 C19       -41.0290   15.8530   -4.5970 C.ar      1 CXQ        -0.0559
     14 C23       -41.0620   15.8660   -3.1610 C.ar      1 CXQ        -0.0681
     15 C26       -42.1500   15.3180   -2.5180 C.ar      1 CXQ        -0.0685
     16 C21       -43.2290   14.7500   -3.2640 C.ar      1 CXQ        -0.0681
     17 C9        -43.1900   14.7360   -4.6840 C.ar      1 CXQ        -0.0559
     18 C10       -43.5760   17.2580   -7.4690 C.ar      1 CXQ        -0.0559
     19 C22       -44.7280   17.7810   -8.0420 C.ar      1 CXQ        -0.0681
     20 C25       -45.6060   16.9290   -8.7360 C.ar      1 CXQ        -0.0685
     21 C24       -45.3220   15.5770   -8.8570 C.ar      1 CXQ        -0.0681
     22 C18       -44.1740   15.0530   -8.2890 C.ar      1 CXQ        -0.0559
     23 C4        -43.2910   15.8950   -7.5840 C.ar      1 CXQ        -0.0032
     24 H1        -35.7994   14.4085   -8.6707 H         1 CXQ         0.0778
     25 H2        -35.5087   15.6117   -7.3691 H         1 CXQ         0.0778
     26 H3        -35.5952   16.1450   -9.0822 H         1 CXQ         0.0778
     27 H4        -37.7506   15.4985   -9.1204 H         1 CXQ         0.2036
     28 H5        -37.3153   13.7837   -7.5787 H         1 CXQ         0.0852
     29 H6        -36.6556   14.8687   -5.4658 H         1 CXQ         0.0322
     30 H7        -38.4172   15.1567   -5.2643 H         1 CXQ         0.0322
     31 H8        -36.3183   17.1658   -5.9515 H         1 CXQ         0.0322
     32 H9        -38.0698   17.4646   -5.6873 H         1 CXQ         0.0322
     33 H10       -36.8989   17.5539   -8.3238 H         1 CXQ         0.0852
     34 H11       -39.7741   14.2509   -6.6550 H         1 CXQ         0.0345
     35 H12       -39.5234   13.8260   -8.3822 H         1 CXQ         0.0345
     36 H13       -40.4846   15.8408   -9.0552 H         1 CXQ         0.0604
     37 H14       -39.0874   17.7540   -9.0430 H         1 CXQ         0.0345
     38 H15       -39.3252   17.9599   -7.2745 H         1 CXQ         0.0345
     39 H16       -41.7533   14.3243   -7.3519 H         1 CXQ         0.0921
     40 H17       -40.1792   16.2798   -5.1174 H         1 CXQ         0.0561
     41 H18       -40.2459   16.2990   -2.5939 H         1 CXQ         0.0600
     42 H19       -42.1884   15.3175   -1.4347 H         1 CXQ         0.0561
     43 H20       -44.0811   14.3279   -2.7436 H         1 CXQ         0.0600
     44 H21       -44.0044   14.2997   -5.2510 H         1 CXQ         0.0561
     45 H22       -42.8962   17.9089   -6.9312 H         1 CXQ         0.0561
     46 H23       -44.9490   18.8387   -7.9550 H         1 CXQ         0.0600
     47 H24       -46.5099   17.3315   -9.1788 H         1 CXQ         0.0561
     48 H25       -46.0014   14.9286   -9.3982 H         1 CXQ         0.0600
     49 H26       -43.9543   13.9960   -8.3863 H         1 CXQ         0.0561
@<TRIPOS>BOND
     1    2    1 1  
     2    3    2 1  
     3    6    2 1  
     4    3    4 1  
     5    7    3 1  
     6    5    4 1  
     7    6    5 1  
     8    9    6 1  
     9    8    7 1  
    10    8    9 1  
    11   10    8 1  
    12   11   10 1  
    13   11   12 1  
    14   23   11 1  
    15   12   13 ar 
    16   12   17 ar 
    17   13   14 ar 
    18   14   15 ar 
    19   16   15 ar 
    20   17   16 ar 
    21   18   19 ar 
    22   18   23 ar 
    23   19   20 ar 
    24   20   21 ar 
    25   21   22 ar 
    26   22   23 ar 
    27    1   24 1  
    28    1   25 1  
    29    1   26 1  
    30    2   27 1  
    31    3   28 1  
    32    4   29 1  
    33    4   30 1  
    34    5   31 1  
    35    5   32 1  
    36    6   33 1  
    37    7   34 1  
    38    7   35 1  
    39    8   36 1  
    40    9   37 1  
    41    9   38 1  
    42   11   39 1  
    43   13   40 1  
    44   14   41 1  
    45   15   42 1  
    46   16   43 1  
    47   17   44 1  
    48   18   45 1  
    49   19   46 1  
    50   20   47 1  
    51   21   48 1  
    52   22   49 1  
@<TRIPOS>SUBSTRUCTURE
     1 CXQ         1

