### 
### Created by X-TOOL on Wed Jan  1 15:39:36 2020
### 

@<TRIPOS>MOLECULE
6f6u_ligand
   58    60     1     0     0
SMALL
GAST_HUCK


@<TRIPOS>ATOM
      1 C10        33.8190  133.1240  150.1830 C.3       1 CV8        -0.0226
      2 C13        31.7110  133.6300  149.7950 C.3       1 CV8        -0.0226
      3 C15        33.9740  134.2230  144.2480 C.3       1 CV8         0.0574
      4 C17        30.9770  131.1820  144.8890 C.ar      1 CV8        -0.0732
      5 C20        24.7930  133.3850  152.4010 C.3       1 CV8        -0.0368
      6 C21        27.8650  130.5440  154.6170 C.3       1 CV8        -0.0368
      7 C01        26.7980  130.5390  153.5310 C.3       1 CV8         0.0765
      8 C02        27.2820  129.8870  152.2240 C.3       1 CV8         0.0600
      9 N01        26.4960  130.3100  151.0520 N.am      1 CV8        -0.2659
     10 C03        26.8620  129.9020  149.7950 C.2       1 CV8         0.2128
     11 C04        28.0680  128.9950  149.5540 C.3       1 CV8         0.1821
     12 O01        28.5270  128.6610  148.1740 O.3       1 CV8        -0.2169
     13 N02        29.4340  129.5710  147.6430 N.2       1 CV8        -0.1562
     14 C05        29.4310  130.0100  146.4840 C.2       1 CV8         0.0337
     15 C06        30.5390  131.0010  146.1240 C.ar      1 CV8        -0.0312
     16 C07        31.1020  131.6980  147.1120 C.ar      1 CV8        -0.0340
     17 C08        32.1010  132.6230  146.9000 C.ar      1 CV8         0.1209
     18 O02        32.7270  133.3840  147.9290 O.3       1 CV8        -0.3185
     19 C09        32.5650  132.9260  149.2360 C.3       1 CV8         0.0788
     20 C11        33.6610  134.2810  150.6770 C.3       1 CV8        -0.0503
     21 C12        32.4310  134.9370  150.1020 C.3       1 CV8        -0.0503
     22 C14        32.5560  132.8070  145.5980 C.ar      1 CV8         0.1210
     23 O03        33.5790  133.7210  145.3900 O.3       1 CV8        -0.3237
     24 C16        31.9880  132.0900  144.6120 C.ar      1 CV8        -0.0396
     25 O04        26.3290  130.1680  148.7130 O.2       1 CV8        -0.3937
     26 C18        25.3250  131.1890  151.2140 C.3       1 CV8         0.0600
     27 C19        25.2000  131.9260  152.5640 C.3       1 CV8         0.0765
     28 O05        26.4410  131.9090  153.2800 O.3       1 CV8        -0.3699
     29 H1         34.7544  133.0712  149.6066 H         1 CV8         0.0294
     30 H2         33.8329  132.3610  150.9753 H         1 CV8         0.0294
     31 H3         31.3606  133.1527  150.7221 H         1 CV8         0.0294
     32 H4         30.8550  133.8060  149.1270 H         1 CV8         0.0294
     33 H5         34.8075  134.9194  144.4223 H         1 CV8         0.0574
     34 H6         33.1391  134.7614  143.7757 H         1 CV8         0.0574
     35 H7         34.3076  133.4103  143.5860 H         1 CV8         0.0574
     36 H8         30.5380  130.6105  144.0792 H         1 CV8         0.0503
     37 H9         23.8405  133.4410  151.8536 H         1 CV8         0.0255
     38 H10        25.5711  133.9221  151.8388 H         1 CV8         0.0255
     39 H11        24.6734  133.8453  153.3928 H         1 CV8         0.0255
     40 H12        28.1667  129.5098  154.8393 H         1 CV8         0.0255
     41 H13        27.4601  131.0114  155.5267 H         1 CV8         0.0255
     42 H14        28.7391  131.1143  154.2696 H         1 CV8         0.0255
     43 H15        25.9186  129.9868  153.8940 H         1 CV8         0.0613
     44 H16        27.2024  128.7946  152.3253 H         1 CV8         0.0548
     45 H17        28.3338  130.1645  152.0609 H         1 CV8         0.0548
     46 H18        27.8400  128.0378  150.0457 H         1 CV8         0.0895
     47 H19        28.9213  129.4722  150.0582 H         1 CV8         0.0895
     48 H20        28.6778  129.7056  145.7588 H         1 CV8         0.0755
     49 H21        30.7586  131.5294  148.1262 H         1 CV8         0.0503
     50 H22        32.2684  131.8670  149.2113 H         1 CV8         0.0645
     51 H23        34.5420  134.8973  150.4447 H         1 CV8         0.0266
     52 H24        33.5498  134.1967  151.7681 H         1 CV8         0.0266
     53 H25        31.8956  135.5596  150.8339 H         1 CV8         0.0266
     54 H26        32.6437  135.5311  149.2010 H         1 CV8         0.0266
     55 H27        32.3240  132.2232  143.5900 H         1 CV8         0.0516
     56 H28        24.4234  130.5721  151.0851 H         1 CV8         0.0548
     57 H29        25.3654  131.9496  150.4204 H         1 CV8         0.0548
     58 H30        24.4341  131.4105  153.1620 H         1 CV8         0.0613
@<TRIPOS>BOND
     1   19    1 1  
     2    1   20 1  
     3   19    2 1  
     4    2   21 1  
     5   23    3 1  
     6   15    4 ar 
     7    4   24 ar 
     8   27    5 1  
     9    7    6 1  
    10    8    7 1  
    11    7   28 1  
    12    9    8 1  
    13    9   10 am 
    14   26    9 1  
    15   10   11 1  
    16   10   25 2  
    17   11   12 1  
    18   12   13 1  
    19   13   14 2  
    20   14   15 1  
    21   15   16 ar 
    22   16   17 ar 
    23   17   18 1  
    24   17   22 ar 
    25   18   19 1  
    26   21   20 1  
    27   22   23 1  
    28   24   22 ar 
    29   26   27 1  
    30   27   28 1  
    31    1   29 1  
    32    1   30 1  
    33    2   31 1  
    34    2   32 1  
    35    3   33 1  
    36    3   34 1  
    37    3   35 1  
    38    4   36 1  
    39    5   37 1  
    40    5   38 1  
    41    5   39 1  
    42    6   40 1  
    43    6   41 1  
    44    6   42 1  
    45    7   43 1  
    46    8   44 1  
    47    8   45 1  
    48   11   46 1  
    49   11   47 1  
    50   14   48 1  
    51   16   49 1  
    52   19   50 1  
    53   20   51 1  
    54   20   52 1  
    55   21   53 1  
    56   21   54 1  
    57   24   55 1  
    58   26   56 1  
    59   26   57 1  
    60   27   58 1  
@<TRIPOS>SUBSTRUCTURE
     1 CV8         1

