### 
### Created by X-TOOL on Mon Aug  2 16:13:21 2021
### 

@<TRIPOS>MOLECULE
6f7b_ligand
   63    67     1     0     0
SMALL
GAST_HUCK


@<TRIPOS>ATOM
      1 C4         14.6640  -31.6380  -14.4310 C.ar      1 CVQ         0.1796
      2 C14        19.7780  -35.1350  -11.8170 C.ar      1 CVQ        -0.0699
      3 C6         16.8410  -32.1930  -14.9860 C.ar      1 CVQ         0.1075
      4 C11        18.4380  -33.4750  -13.6000 C.ar      1 CVQ         0.0223
      5 C7         18.1280  -32.5800  -14.6190 C.2       1 CVQ         0.0953
      6 C10        19.8040  -33.5830  -13.6400 C.ar      1 CVQ         0.0968
      7 C12        17.7030  -34.2110  -12.6490 C.ar      1 CVQ        -0.0628
      8 C13        18.3910  -35.0460  -11.7680 C.ar      1 CVQ        -0.0718
      9 N1         16.5720  -31.9910  -16.3110 N.ar      1 CVQ        -0.2908
     10 C3         14.3600  -31.4640  -15.7990 C.ar      1 CVQ         0.1648
     11 C37        10.2330  -30.2410  -12.1090 C.3       1 CVQ         0.0588
     12 O36        11.4610  -30.8050  -12.5060 O.3       1 CVQ        -0.3175
     13 C31        12.4850  -31.0030  -11.6220 C.ar      1 CVQ         0.1418
     14 C32        12.3750  -30.9140  -10.2420 C.ar      1 CVQ         0.0266
     15 N33        13.4430  -31.1250   -9.4560 N.ar      1 CVQ        -0.3253
     16 C34        14.6180  -31.4900   -9.9710 C.ar      1 CVQ        -0.0133
     17 C35        14.7850  -31.6210  -11.3560 C.ar      1 CVQ        -0.0193
     18 C30        13.7000  -31.3420  -12.2020 C.ar      1 CVQ         0.1133
     19 N29        13.6600  -31.4530  -13.5580 N.pl3     1 CVQ        -0.2504
     20 N5         15.8900  -32.0400  -14.0840 N.ar      1 CVQ        -0.2565
     21 O38        13.0970  -31.0850  -16.1250 O.3       1 CVQ        -0.3121
     22 C39        12.8360  -30.6560  -17.5140 C.3       1 CVQ         0.0600
     23 C2         15.3620  -31.6240  -16.7480 C.ar      1 CVQ         0.0415
     24 N8         19.2670  -32.2150  -15.2070 N.2       1 CVQ        -0.1823
     25 C15        20.4890  -34.4110  -12.7640 C.ar      1 CVQ        -0.0336
     26 N9         20.2050  -32.7940  -14.6360 N.pl3     1 CVQ        -0.1851
     27 C16        21.6080  -32.6420  -14.9870 C.3       1 CVQ         0.0991
     28 C17        22.4030  -31.8810  -13.9260 C.ar      1 CVQ         0.0440
     29 C22        23.4800  -32.5060  -13.2950 C.ar      1 CVQ         0.1262
     30 C21        24.2600  -31.8270  -12.3560 C.ar      1 CVQ        -0.0102
     31 F23        23.8610  -33.7600  -13.6280 F         1 CVQ        -0.1928
     32 C18        22.0910  -30.5860  -13.5390 C.ar      1 CVQ         0.1262
     33 F28        21.0740  -29.9110  -14.1010 F         1 CVQ        -0.1928
     34 C19        22.8410  -29.9160  -12.5850 C.ar      1 CVQ        -0.0102
     35 C20        23.9440  -30.5310  -12.0010 C.ar      1 CVQ         0.0807
     36 O24        24.7230  -29.9460  -11.0540 O.3       1 CVQ        -0.3221
     37 C25        25.1740  -28.6090  -11.2480 C.3       1 CVQ         0.0918
     38 C26        24.6830  -27.9200  -10.0140 C.3       1 CVQ         0.0717
     39 O27        23.2800  -28.1340  -10.0220 O.3       1 CVQ        -0.3924
     40 H1         20.3046  -35.7708  -11.1145 H         1 CVQ         0.0581
     41 H2         16.6230  -34.1298  -12.6029 H         1 CVQ         0.0591
     42 H3         17.8401  -35.6300  -11.0396 H         1 CVQ         0.0535
     43 H4          9.5615  -30.1760  -12.9778 H         1 CVQ         0.0576
     44 H5         10.4064  -29.2333  -11.7034 H         1 CVQ         0.0576
     45 H6          9.7720  -30.8732  -11.3359 H         1 CVQ         0.0576
     46 H7         11.4180  -30.6719   -9.7941 H         1 CVQ         0.0697
     47 H8         15.4540  -31.6877   -9.3099 H         1 CVQ         0.0692
     48 H9         15.7378  -31.9331  -11.7681 H         1 CVQ         0.0590
     49 H10        12.7213  -31.3851  -13.9765 H         1 CVQ         0.2147
     50 H11        11.7759  -30.3823  -17.6201 H         1 CVQ         0.0578
     51 H12        13.0726  -31.4802  -18.2030 H         1 CVQ         0.0578
     52 H13        13.4650  -29.7859  -17.7534 H         1 CVQ         0.0578
     53 H14        15.1707  -31.4579  -17.8020 H         1 CVQ         0.0793
     54 H15        21.5686  -34.4921  -12.8181 H         1 CVQ         0.0563
     55 H16        21.6753  -32.0932  -15.9379 H         1 CVQ         0.0749
     56 H17        22.0506  -33.6417  -15.1084 H         1 CVQ         0.0749
     57 H18        25.1147  -32.3185  -11.9054 H         1 CVQ         0.0477
     58 H19        22.5670  -28.9087  -12.2927 H         1 CVQ         0.0477
     59 H20        24.7311  -28.1673  -12.1529 H         1 CVQ         0.0634
     60 H21        26.2709  -28.5655  -11.3178 H         1 CVQ         0.0634
     61 H22        24.9125  -26.8449  -10.0515 H         1 CVQ         0.0584
     62 H23        25.1384  -28.3610   -9.1151 H         1 CVQ         0.0584
     63 H24        23.1030  -29.0671  -10.0016 H         1 CVQ         0.2095
@<TRIPOS>BOND
     1    1   10 ar 
     2   19    1 1  
     3    1   20 ar 
     4    8    2 ar 
     5   25    2 ar 
     6    3    5 1  
     7    3    9 ar 
     8   20    3 ar 
     9    5    4 1  
    10    4    6 ar 
    11    4    7 ar 
    12    5   24 2  
    13    6   25 ar 
    14    6   26 1  
    15    7    8 ar 
    16   23    9 ar 
    17   10   21 1  
    18   10   23 ar 
    19   12   11 1  
    20   13   12 1  
    21   13   14 ar 
    22   18   13 ar 
    23   14   15 ar 
    24   16   15 ar 
    25   17   16 ar 
    26   18   17 ar 
    27   18   19 1  
    28   21   22 1  
    29   24   26 1  
    30   26   27 1  
    31   27   28 1  
    32   28   29 ar 
    33   28   32 ar 
    34   29   30 ar 
    35   29   31 1  
    36   30   35 ar 
    37   32   33 1  
    38   32   34 ar 
    39   34   35 ar 
    40   35   36 1  
    41   36   37 1  
    42   37   38 1  
    43   38   39 1  
    44    2   40 1  
    45    7   41 1  
    46    8   42 1  
    47   11   43 1  
    48   11   44 1  
    49   11   45 1  
    50   14   46 1  
    51   16   47 1  
    52   17   48 1  
    53   19   49 1  
    54   22   50 1  
    55   22   51 1  
    56   22   52 1  
    57   23   53 1  
    58   25   54 1  
    59   27   55 1  
    60   27   56 1  
    61   30   57 1  
    62   34   58 1  
    63   37   59 1  
    64   37   60 1  
    65   38   61 1  
    66   38   62 1  
    67   39   63 1  
@<TRIPOS>SUBSTRUCTURE
     1 CVQ         1

