### 
### Created by X-TOOL on Mon Aug  2 16:10:42 2021
### 

@<TRIPOS>MOLECULE
6f7c_ligand
   47    49     1     0     0
SMALL
GAST_HUCK


@<TRIPOS>ATOM
      1 C4         17.0230   63.4740   47.0070 C.ar      1 CVT        -0.0212
      2 C14        16.6520   67.1580   41.2260 C.ar      1 CVT        -0.0316
      3 C5         16.4620   62.5640   46.0720 C.ar      1 CVT        -0.0586
      4 C6         16.5890   62.7770   44.7240 C.ar      1 CVT        -0.0658
      5 C11        18.5830   65.9760   44.5750 C.2       1 CVT         0.0350
      6 C7         17.9440   65.7040   47.4610 C.ar      1 CVT        -0.0548
      7 C8         17.4960   65.6190   48.7610 C.ar      1 CVT        -0.0622
      8 C9         16.8110   64.4740   49.2180 C.ar      1 CVT        -0.0623
      9 C10        16.5840   63.4280   48.3610 C.ar      1 CVT        -0.0557
     10 C12        18.9960   67.9860   41.6370 C.2       1 CVT         0.2404
     11 C13        17.9150   67.5460   40.7450 C.ar      1 CVT         0.0311
     12 N1         18.5180   66.2830   43.3320 N.2       1 CVT        -0.1799
     13 N2         19.2540   67.3480   42.8850 N.am      1 CVT        -0.1643
     14 C3         17.7220   64.6220   46.5420 C.ar      1 CVT        -0.0131
     15 C1         17.2820   63.8970   44.2310 C.ar      1 CVT        -0.0585
     16 C15        15.6680   66.7620   40.3190 C.ar      1 CVT         0.1172
     17 C16        15.9450   66.7510   38.9520 C.ar      1 CVT         0.1527
     18 C17        17.2050   67.1320   38.4720 C.ar      1 CVT         0.1172
     19 C18        18.1880   67.5340   39.3760 C.ar      1 CVT        -0.0316
     20 C19        18.7270   66.7510   36.6040 C.3       1 CVT         0.0565
     21 C2         17.8440   64.8240   45.1020 C.ar      1 CVT        -0.0101
     22 C20        14.8950   64.9460   37.8030 C.3       1 CVT         0.0554
     23 C21        13.9560   66.5570   42.0750 C.3       1 CVT         0.0565
     24 O1         19.7050   68.9330   41.2650 O.2       1 CVT        -0.3726
     25 O2         14.4050   66.3670   40.7350 O.3       1 CVT        -0.3270
     26 O3         14.9850   66.3450   38.0600 O.3       1 CVT        -0.3259
     27 O4         17.4450   67.1090   37.1070 O.3       1 CVT        -0.3270
     28 H1         16.4448   67.1664   42.2900 H         1 CVT         0.0474
     29 H2         15.9273   61.6910   46.4285 H         1 CVT         0.0583
     30 H3         16.1490   62.0721   44.0279 H         1 CVT         0.0605
     31 H4         19.1937   66.5772   45.2470 H         1 CVT         0.0719
     32 H5         18.4676   66.5933   47.1291 H         1 CVT         0.0622
     33 H6         17.6724   66.4436   49.4421 H         1 CVT         0.0608
     34 H7         16.4649   64.4210   50.2439 H         1 CVT         0.0615
     35 H8         16.0606   62.5496   48.7208 H         1 CVT         0.0614
     36 H9         20.0003   67.6907   43.4556 H         1 CVT         0.2565
     37 H10        17.3791   64.0392   43.1608 H         1 CVT         0.0580
     38 H11        19.1643   67.8372   39.0155 H         1 CVT         0.0474
     39 H12        18.7143   66.7928   35.5049 H         1 CVT         0.0572
     40 H13        18.9766   65.7303   36.9292 H         1 CVT         0.0572
     41 H14        19.4811   67.4532   36.9889 H         1 CVT         0.0572
     42 H15        14.0915   64.7578   37.0757 H         1 CVT         0.0570
     43 H16        14.6731   64.4145   38.7402 H         1 CVT         0.0570
     44 H17        15.8508   64.5859   37.3947 H         1 CVT         0.0570
     45 H18        12.9310   66.1710   42.1764 H         1 CVT         0.0572
     46 H19        13.9694   67.6298   42.3176 H         1 CVT         0.0572
     47 H20        14.6212   66.0167   42.7647 H         1 CVT         0.0572
@<TRIPOS>BOND
     1    1    3 ar 
     2    1    9 ar 
     3   14    1 ar 
     4   11    2 ar 
     5    2   16 ar 
     6    3    4 ar 
     7    4   15 ar 
     8    5   12 2  
     9   21    5 1  
    10    6    7 ar 
    11   14    6 ar 
    12    7    8 ar 
    13    9    8 ar 
    14   10   11 1  
    15   13   10 am 
    16   10   24 2  
    17   11   19 ar 
    18   12   13 1  
    19   14   21 ar 
    20   15   21 ar 
    21   16   17 ar 
    22   16   25 1  
    23   17   18 ar 
    24   17   26 1  
    25   18   19 ar 
    26   18   27 1  
    27   27   20 1  
    28   26   22 1  
    29   25   23 1  
    30    2   28 1  
    31    3   29 1  
    32    4   30 1  
    33    5   31 1  
    34    6   32 1  
    35    7   33 1  
    36    8   34 1  
    37    9   35 1  
    38   13   36 1  
    39   15   37 1  
    40   19   38 1  
    41   20   39 1  
    42   20   40 1  
    43   20   41 1  
    44   22   42 1  
    45   22   43 1  
    46   22   44 1  
    47   23   45 1  
    48   23   46 1  
    49   23   47 1  
@<TRIPOS>SUBSTRUCTURE
     1 CVT         1

