### 
### Created by X-TOOL on Mon Aug  2 16:13:22 2021
### 

@<TRIPOS>MOLECULE
6f7i_ligand
   53    56     1     0     0
SMALL
GAST_HUCK


@<TRIPOS>ATOM
      1 C1          7.3060   -3.9580   22.5290 C.ar      1 CW5         0.1008
      2 C2          6.1770   -3.1540   22.8120 C.ar      1 CW5        -0.0025
      3 C3          4.9570   -3.4680   22.1990 C.ar      1 CW5         0.0743
      4 C12        11.0750   -2.1530   25.0580 C.2       1 CW5         0.1374
      5 C13        12.2050   -1.4730   24.6690 C.2       1 CW5         0.1772
      6 C15        10.5220   -1.9160   26.4330 C.2       1 CW5         0.0315
      7 C16        12.2950   -0.4330   26.7410 C.2       1 CW5         0.1457
      8 C19        14.0150    0.8480   26.4560 C.2       1 CW5         0.0743
      9 C20        12.9880    0.4710   27.4370 C.2       1 CW5        -0.0338
     10 C22        12.9020   -1.5760   23.2810 C.3       1 CW5         0.1319
     11 C24        12.0600   -0.8800   22.1640 C.3       1 CW5        -0.0228
     12 C26         9.0580   -2.8580   23.9050 C.2       1 CW5         0.3137
     13 C28        13.9280   -3.7990   23.6470 C.3       1 CW5         0.0402
     14 C29         2.5100   -4.9230   18.3700 C.3       1 CW5         0.0333
     15 C30         3.2400   -4.8830   16.9960 C.3       1 CW5        -0.0308
     16 C4          4.8930   -4.5820   21.3430 C.ar      1 CW5         0.1191
     17 N5          6.0010   -5.3040   21.0810 N.ar      1 CW5        -0.2918
     18 C6          7.1960   -5.0300   21.6330 C.ar      1 CW5         0.0376
     19 CL7         3.5390   -2.4970   22.4910 Cl        1 CW5        -0.0596
     20 C8          3.6890   -4.9430   20.5240 C.2       1 CW5         0.2145
     21 O9          2.8320   -5.6550   21.0420 O.2       1 CW5        -0.3864
     22 N10         3.6250   -4.5210   19.2270 N.am      1 CW5        -0.2728
     23 N11         8.5990   -3.8070   23.0750 N.am      1 CW5        -0.2056
     24 N14        11.1140   -1.1030   27.1990 N.2       1 CW5        -0.2852
     25 N17        12.7830   -0.6540   25.5360 N.pl3     1 CW5        -0.1426
     26 N18        13.8580    0.1530   25.4150 N.2       1 CW5        -0.2090
     27 CL2        15.3140    1.9540   26.7330 Cl        1 CW5        -0.0731
     28 O23        13.0920   -2.9500   22.8300 O.3       1 CW5        -0.3611
     29 N25        10.3780   -2.9460   24.2070 N.am      1 CW5        -0.2186
     30 O27         8.3130   -1.9960   24.3590 O.2       1 CW5        -0.3819
     31 C31         4.1580   -3.6390   17.1020 C.3       1 CW5        -0.0308
     32 C32         4.6470   -3.6880   18.5780 C.3       1 CW5         0.0333
     33 H1          6.2543   -2.3116   23.4898 H         1 CW5         0.0634
     34 H2          9.6249   -2.4362   26.7656 H         1 CW5         0.0912
     35 H3         12.8343    0.8306   28.4534 H         1 CW5         0.0187
     36 H4         13.8833   -1.0850   23.3585 H         1 CW5         0.0833
     37 H5         12.5819   -0.9725   21.2001 H         1 CW5         0.0283
     38 H6         11.9318    0.1842   22.4108 H         1 CW5         0.0283
     39 H7         11.0735   -1.3617   22.0945 H         1 CW5         0.0283
     40 H8         13.9859   -4.8004   23.1955 H         1 CW5         0.0526
     41 H9         13.4971   -3.8762   24.6561 H         1 CW5         0.0526
     42 H10        14.9375   -3.3669   23.7114 H         1 CW5         0.0526
     43 H11         2.1435   -5.9310   18.6142 H         1 CW5         0.0521
     44 H12         1.6751   -4.2082   18.4155 H         1 CW5         0.0521
     45 H13         2.5196   -4.7695   16.1725 H         1 CW5         0.0285
     46 H14         3.8335   -5.7960   16.8407 H         1 CW5         0.0285
     47 H15         8.0641   -5.6312   21.3879 H         1 CW5         0.0732
     48 H16         9.2645   -4.5033   22.8061 H         1 CW5         0.2310
     49 H17        10.8920   -3.6739   23.7532 H         1 CW5         0.2173
     50 H18         3.5957   -2.7148   16.9026 H         1 CW5         0.0285
     51 H19         5.0041   -3.7116   16.4029 H         1 CW5         0.0285
     52 H20         5.6420   -4.1511   18.6514 H         1 CW5         0.0521
     53 H21         4.6777   -2.6811   19.0197 H         1 CW5         0.0521
@<TRIPOS>BOND
     1    2    1 ar 
     2   18    1 ar 
     3    1   23 1  
     4    3    2 ar 
     5   16    3 ar 
     6    3   19 1  
     7    4    5 2  
     8    4    6 1  
     9   29    4 am 
    10    5   10 1  
    11    5   25 1  
    12    6   24 2  
    13    7    9 2  
    14   24    7 1  
    15   25    7 1  
    16    9    8 1  
    17    8   26 2  
    18    8   27 1  
    19   10   11 1  
    20   10   28 1  
    21   23   12 am 
    22   12   29 am 
    23   12   30 2  
    24   28   13 1  
    25   14   15 1  
    26   22   14 1  
    27   15   31 1  
    28   16   17 ar 
    29   20   16 1  
    30   17   18 ar 
    31   20   21 2  
    32   20   22 am 
    33   22   32 1  
    34   25   26 1  
    35   31   32 1  
    36    2   33 1  
    37    6   34 1  
    38    9   35 1  
    39   10   36 1  
    40   11   37 1  
    41   11   38 1  
    42   11   39 1  
    43   13   40 1  
    44   13   41 1  
    45   13   42 1  
    46   14   43 1  
    47   14   44 1  
    48   15   45 1  
    49   15   46 1  
    50   18   47 1  
    51   23   48 1  
    52   29   49 1  
    53   31   50 1  
    54   31   51 1  
    55   32   52 1  
    56   32   53 1  
@<TRIPOS>SUBSTRUCTURE
     1 CW5         1

