### 
### Created by X-TOOL on Wed Jan  1 15:39:36 2020
### 

@<TRIPOS>MOLECULE
6f7q_ligand
   73    77     1     0     0
SMALL
GAST_HUCK


@<TRIPOS>ATOM
      1 CAA       -39.8400   -8.5370   41.7800 C.3       1 CWQ        -0.0433
      2 CAC       -39.8930   -9.8670   39.8480 C.3       1 CWQ        -0.0116
      3 CAD       -39.8860  -11.3360   39.4430 C.3       1 CWQ         0.0735
      4 CAF       -41.3730  -10.8100   37.5540 C.3       1 CWQ         0.0415
      5 CAG       -40.9940  -11.2810   36.1370 C.3       1 CWQ         0.0197
      6 CAH       -40.0140  -12.4520   36.0690 C.3       1 CWQ        -0.0387
      7 CAI       -38.8820  -12.1640   35.0450 C.3       1 CWQ        -0.0120
      8 CAJ       -39.3740  -11.4830   33.7540 C.3       1 CWQ        -0.0313
      9 CAL       -39.6950   -9.0360   33.4260 C.3       1 CWQ        -0.0039
     10 CAM       -40.7970   -8.0550   33.2620 C.3       1 CWQ         0.0234
     11 CAN       -40.3060   -7.1990   32.2720 C.ar      1 CWQ        -0.0353
     12 CAO       -40.6020   -5.9230   31.9980 C.ar      1 CWQ        -0.0667
     13 CAP       -40.0150   -5.2480   30.9260 C.ar      1 CWQ        -0.0755
     14 CAQ       -39.0890   -5.9360   30.1580 C.ar      1 CWQ        -0.0755
     15 CAR       -38.8100   -7.2590   30.4970 C.ar      1 CWQ        -0.0667
     16 CAS       -39.4090   -7.8730   31.5230 C.ar      1 CWQ        -0.0353
     17 CAT       -39.2960   -9.1950   32.0050 C.3       1 CWQ         0.0234
     18 CAU       -40.4070  -10.0710   35.4550 C.3       1 CWQ        -0.0266
     19 CAV       -41.9630   -9.2410   40.9080 C.3       1 CWQ        -0.0433
     20 CAW       -42.0940  -12.5150   39.2420 C.2       1 CWQ         0.2272
     21 CAX       -41.8910  -13.1290   40.4850 C.ar      1 CWQ         0.1200
     22 CBA       -41.4720  -12.8980   42.7900 C.ar      1 CWQ         0.0887
     23 CBB       -41.6320  -14.2610   42.9900 C.ar      1 CWQ         0.0018
     24 CBC       -41.9360  -15.0720   41.9020 C.ar      1 CWQ        -0.0361
     25 CBD       -42.0830  -14.4920   40.6430 C.ar      1 CWQ        -0.0165
     26 CBE       -41.1650  -12.0780   43.8650 C.ar      1 CWQ         0.1182
     27 CBF       -41.0180  -12.6200   45.1400 C.ar      1 CWQ        -0.0273
     28 CBG       -41.1870  -13.9880   45.3460 C.ar      1 CWQ        -0.0680
     29 CBH       -41.4850  -14.8040   44.2650 C.ar      1 CWQ        -0.0590
     30 NAB       -40.5630   -9.6440   41.1400 N.4       1 CWQ         0.2323
     31 NAE       -41.1470  -11.6440   38.7560 N.am      1 CWQ        -0.2646
     32 NAK       -40.1970  -10.2830   34.0210 N.4       1 CWQ         0.2403
     33 NAZ       -41.6200  -12.3780   41.5710 N.ar      1 CWQ        -0.2719
     34 OAY       -43.1850  -12.7140   38.6910 O.2       1 CWQ        -0.3778
     35 OBI       -41.0280  -10.7350   43.6060 O.3       1 CWQ        -0.3251
     36 H1        -40.2946   -8.3188   42.7576 H         1 CWQ         0.0777
     37 H2        -39.8977   -7.6434   41.1412 H         1 CWQ         0.0777
     38 H3        -38.7863   -8.8198   41.9206 H         1 CWQ         0.0777
     39 H4        -40.4186   -9.2895   39.0733 H         1 CWQ         0.0834
     40 H5        -38.8531   -9.5167   39.9243 H         1 CWQ         0.0834
     41 H6        -39.7901  -11.9661   40.3395 H         1 CWQ         0.0575
     42 H7        -39.0401  -11.5290   38.7669 H         1 CWQ         0.0575
     43 H8        -42.4522  -10.5986   37.5273 H         1 CWQ         0.0527
     44 H9        -40.8201   -9.8742   37.7231 H         1 CWQ         0.0527
     45 H10       -41.9127  -11.5876   35.6155 H         1 CWQ         0.0372
     46 H11       -40.5559  -13.3587   35.7621 H         1 CWQ         0.0272
     47 H12       -39.5699  -12.6090   37.0630 H         1 CWQ         0.0272
     48 H13       -38.4069  -13.1186   34.7748 H         1 CWQ         0.0317
     49 H14       -38.1400  -11.5075   35.5229 H         1 CWQ         0.0317
     50 H15       -39.9777  -12.2042   33.1835 H         1 CWQ         0.0814
     51 H16       -38.4991  -11.1844   33.1579 H         1 CWQ         0.0814
     52 H17       -38.8721   -8.6397   34.0390 H         1 CWQ         0.0895
     53 H18       -40.9850   -7.5102   34.1989 H         1 CWQ         0.0468
     54 H19       -41.7227   -8.5504   32.9337 H         1 CWQ         0.0468
     55 H20       -41.3157   -5.4001   32.6243 H         1 CWQ         0.0537
     56 H21       -40.2750   -4.2198   30.7018 H         1 CWQ         0.0541
     57 H22       -38.5962   -5.4593   29.3184 H         1 CWQ         0.0541
     58 H23       -38.0834   -7.8084   29.9095 H         1 CWQ         0.0537
     59 H24       -39.9765   -9.8751   31.4717 H         1 CWQ         0.0468
     60 H25       -38.2641   -9.5660   31.9179 H         1 CWQ         0.0468
     61 H26       -39.4392   -9.8372   35.9226 H         1 CWQ         0.0818
     62 H27       -41.0938   -9.2223   35.5894 H         1 CWQ         0.0818
     63 H28       -42.4617   -9.0749   41.8743 H         1 CWQ         0.0777
     64 H29       -42.4869  -10.0359   40.3569 H         1 CWQ         0.0777
     65 H30       -41.9844   -8.3117   40.3199 H         1 CWQ         0.0777
     66 H31       -42.0571  -16.1414   42.0313 H         1 CWQ         0.0748
     67 H32       -42.3469  -15.1060   39.7895 H         1 CWQ         0.0724
     68 H33       -40.7711  -11.9749   45.9754 H         1 CWQ         0.0536
     69 H34       -41.0867  -14.4093   46.3397 H         1 CWQ         0.0615
     70 H35       -41.6044  -15.8712   44.4128 H         1 CWQ         0.0525
     71 H36       -40.5296  -10.4744   41.7105 H         1 CWQ         0.2028
     72 H37       -41.0983  -10.4618   33.6065 H         1 CWQ         0.2039
     73 H38       -41.1667  -10.5765   42.6796 H         1 CWQ         0.2524
@<TRIPOS>BOND
     1   30    1 1  
     2    3    2 1  
     3    2   30 1  
     4   31    3 1  
     5    4    5 1  
     6   31    4 1  
     7    5    6 1  
     8    5   18 1  
     9    6    7 1  
    10    7    8 1  
    11   32    8 1  
    12    9   10 1  
    13    9   17 1  
    14   32    9 1  
    15   10   11 1  
    16   11   12 ar 
    17   16   11 ar 
    18   12   13 ar 
    19   14   13 ar 
    20   15   14 ar 
    21   16   15 ar 
    22   17   16 1  
    23   18   32 1  
    24   30   19 1  
    25   21   20 1  
    26   20   31 am 
    27   20   34 2  
    28   21   25 ar 
    29   33   21 ar 
    30   22   23 ar 
    31   22   26 ar 
    32   22   33 ar 
    33   23   24 ar 
    34   23   29 ar 
    35   24   25 ar 
    36   26   27 ar 
    37   26   35 1  
    38   27   28 ar 
    39   28   29 ar 
    40    1   36 1  
    41    1   37 1  
    42    1   38 1  
    43    2   39 1  
    44    2   40 1  
    45    3   41 1  
    46    3   42 1  
    47    4   43 1  
    48    4   44 1  
    49    5   45 1  
    50    6   46 1  
    51    6   47 1  
    52    7   48 1  
    53    7   49 1  
    54    8   50 1  
    55    8   51 1  
    56    9   52 1  
    57   10   53 1  
    58   10   54 1  
    59   12   55 1  
    60   13   56 1  
    61   14   57 1  
    62   15   58 1  
    63   17   59 1  
    64   17   60 1  
    65   18   61 1  
    66   18   62 1  
    67   19   63 1  
    68   19   64 1  
    69   19   65 1  
    70   24   66 1  
    71   25   67 1  
    72   27   68 1  
    73   28   69 1  
    74   29   70 1  
    75   30   71 1  
    76   32   72 1  
    77   35   73 1  
@<TRIPOS>SUBSTRUCTURE
     1 CWQ         1

