### 
### Created by X-TOOL on Mon Aug  2 16:13:22 2021
### 

@<TRIPOS>MOLECULE
6f86_ligand
   43    45     1     0     0
SMALL
GAST_HUCK


@<TRIPOS>ATOM
      1 CAW        60.7620   26.2070   62.3400 C.2       1 CWW         0.0808
      2 CAV        60.8010   24.9390   62.7370 C.2       1 CWW         0.0292
      3 BR         60.1920   23.4340   61.7580 Br        1 CWW        -0.0771
      4 CAU        61.3300   24.8170   63.9390 C.2       1 CWW         0.0059
      5 NAT        61.6440   26.0410   64.3120 N.2       1 CWW        -0.1999
      6 NAS        61.2780   26.9210   63.3380 N.pl3     1 CWW        -0.1521
      7 CAR        61.5140   28.2230   63.5090 C.ar      1 CWW         0.1390
      8 CAQ        62.0830   28.9720   62.4600 C.ar      1 CWW         0.0269
      9 CAP        62.3940   30.3410   62.6380 C.ar      1 CWW         0.1382
     10 NAY        62.9180   31.2210   61.7630 N.am      1 CWW        -0.2025
     11 CAZ        63.5490   30.9040   60.6050 C.2       1 CWW         0.2930
     12 OBB        63.6950   29.7550   60.2030 O.2       1 CWW        -0.3880
     13 NBA        64.0520   31.9500   59.9220 N.am      1 CWW        -0.2671
     14 CBC        64.7980   31.8270   58.6590 C.3       1 CWW         0.0291
     15 CBD        65.8850   32.9050   58.6290 C.3       1 CWW        -0.0450
     16 NAO        62.1440   30.8970   63.8400 N.ar      1 CWW        -0.2870
     17 CAN        61.5900   30.1630   64.8990 C.ar      1 CWW         0.0099
     18 CAM        61.2820   28.8190   64.7780 C.ar      1 CWW         0.1033
     19 CAK        60.6820   28.1440   65.8900 C.2       1 CWW         0.2293
     20 OAL        59.5950   27.6120   65.7140 O.2       1 CWW        -0.3798
     21 NAH        61.2730   28.2230   67.1010 N.am      1 CWW        -0.2284
     22 CAE        60.7640   27.6680   68.2340 C.ar      1 CWW         0.0936
     23 CAF        59.3950   27.5900   68.5610 C.ar      1 CWW        -0.0216
     24 CAA        58.9500   27.0220   69.7630 C.ar      1 CWW        -0.0480
     25 CAB        59.8690   26.5410   70.6790 C.ar      1 CWW        -0.0050
     26 NAC        61.2470   26.6140   70.3950 N.ar      1 CWW        -0.3128
     27 CAD        61.6810   27.1830   69.1680 C.ar      1 CWW         0.0312
     28 H1         60.3846   26.5850   61.3910 H         1 CWW         0.1066
     29 H2         61.4765   23.8978   64.5043 H         1 CWW         0.0683
     30 H3         62.2844   28.4951   61.5076 H         1 CWW         0.0566
     31 H4         62.8345   32.1921   61.9866 H         1 CWW         0.2328
     32 H5         63.9100   32.8666   60.2958 H         1 CWW         0.1854
     33 H6         64.1139   31.9664   57.8090 H         1 CWW         0.0515
     34 H7         65.2614   30.8313   58.5973 H         1 CWW         0.0515
     35 H8         66.4529   32.8270   57.6901 H         1 CWW         0.0249
     36 H9         66.5653   32.7636   59.4818 H         1 CWW         0.0249
     37 H10        65.4178   33.8988   58.6934 H         1 CWW         0.0249
     38 H11        61.3972   30.6635   65.8410 H         1 CWW         0.0813
     39 H12        62.1381   28.7200   67.1695 H         1 CWW         0.2274
     40 H13        58.6644   27.9809   67.8621 H         1 CWW         0.0621
     41 H14        57.8886   26.9598   69.9743 H         1 CWW         0.0667
     42 H15        59.5293   26.1089   71.6133 H         1 CWW         0.0690
     43 H16        62.7419   27.2416   68.9534 H         1 CWW         0.0711
@<TRIPOS>BOND
     1    1    2 2  
     2    1    6 1  
     3    2    3 1  
     4    2    4 1  
     5    4    5 2  
     6    5    6 1  
     7    6    7 1  
     8    7    8 ar 
     9    7   18 ar 
    10    8    9 ar 
    11    9   10 1  
    12    9   16 ar 
    13   10   11 am 
    14   11   12 2  
    15   11   13 am 
    16   13   14 1  
    17   14   15 1  
    18   16   17 ar 
    19   17   18 ar 
    20   18   19 1  
    21   19   20 2  
    22   19   21 am 
    23   21   22 1  
    24   22   23 ar 
    25   22   27 ar 
    26   23   24 ar 
    27   24   25 ar 
    28   25   26 ar 
    29   26   27 ar 
    30    1   28 1  
    31    4   29 1  
    32    8   30 1  
    33   10   31 1  
    34   13   32 1  
    35   14   33 1  
    36   14   34 1  
    37   15   35 1  
    38   15   36 1  
    39   15   37 1  
    40   17   38 1  
    41   21   39 1  
    42   23   40 1  
    43   24   41 1  
    44   25   42 1  
    45   27   43 1  
@<TRIPOS>SUBSTRUCTURE
     1 CWW         1

