### 
### Created by X-TOOL on Mon Aug  2 16:13:22 2021
### 

@<TRIPOS>MOLECULE
6f8j_ligand
   43    45     1     0     0
SMALL
GAST_HUCK


@<TRIPOS>ATOM
      1 CAF        59.5810   27.7790   68.3670 C.ar      1 CZ5        -0.0216
      2 CAA        59.1420   27.2420   69.5780 C.ar      1 CZ5        -0.0480
      3 CAB        60.0510   26.8010   70.5240 C.ar      1 CZ5        -0.0050
      4 NAC        61.4280   26.9030   70.2520 N.ar      1 CZ5        -0.3128
      5 CAD        61.8630   27.4580   69.0290 C.ar      1 CZ5         0.0312
      6 CAE        60.9530   27.8880   68.0580 C.ar      1 CZ5         0.0936
      7 NAH        61.4630   28.4330   66.9220 N.am      1 CZ5        -0.2284
      8 CAK        60.8500   28.3980   65.7120 C.2       1 CZ5         0.2292
      9 OAL        59.7420   27.9060   65.5020 O.2       1 CZ5        -0.3798
     10 CAM        61.4560   29.1030   64.6350 C.ar      1 CZ5         0.1030
     11 CAN        61.7380   30.4640   64.8250 C.ar      1 CZ5         0.0098
     12 NAO        62.2830   31.2600   63.8040 N.ar      1 CZ5        -0.2872
     13 CAP        62.5510   30.7410   62.5890 C.ar      1 CZ5         0.1381
     14 NAX        63.0620   31.6490   61.7280 N.am      1 CZ5        -0.2025
     15 CAY        63.6940   31.3750   60.5620 C.2       1 CZ5         0.2930
     16 OBA        63.9020   30.2410   60.1330 O.2       1 CZ5        -0.3880
     17 NAZ        64.1560   32.4570   59.9090 N.am      1 CZ5        -0.2671
     18 CBB        64.9290   32.3790   58.6610 C.3       1 CZ5         0.0291
     19 CBC        65.9460   33.5210   58.5900 C.3       1 CZ5        -0.0450
     20 CAQ        62.2580   29.3730   62.3600 C.ar      1 CZ5         0.0265
     21 CAR        61.6990   28.5480   63.3560 C.ar      1 CZ5         0.1374
     22 NAS        61.4940   27.2350   63.0720 N.pl3     1 CZ5        -0.1561
     23 NAT        61.7210   26.2190   63.9310 N.2       1 CZ5        -0.2024
     24 CAU        61.4560   25.0600   63.3160 C.2       1 CZ5        -0.0033
     25 CAV        61.0950   25.3370   62.0660 C.2       1 CZ5        -0.0449
     26 CAW        61.1240   26.6640   61.9110 C.2       1 CZ5         0.0683
     27 H1         58.8485   28.1213   67.6450 H         1 CZ5         0.0621
     28 H2         58.0794   27.1696   69.7796 H         1 CZ5         0.0667
     29 H3         59.7066   26.3823   71.4627 H         1 CZ5         0.0690
     30 H4         62.9259   27.5530   68.8383 H         1 CZ5         0.0711
     31 H5         62.3501   28.8907   66.9821 H         1 CZ5         0.2274
     32 H6         61.5291   30.9148   65.7884 H         1 CZ5         0.0813
     33 H7         62.9643   32.6131   61.9750 H         1 CZ5         0.2328
     34 H8         63.9637   33.3604   60.2923 H         1 CZ5         0.1854
     35 H9         64.2426   32.4514   57.8045 H         1 CZ5         0.0515
     36 H10        65.4613   31.4171   58.6240 H         1 CZ5         0.0515
     37 H11        66.5148   33.4475   57.6514 H         1 CZ5         0.0249
     38 H12        66.6363   33.4508   59.4435 H         1 CZ5         0.0249
     39 H13        65.4176   34.4852   58.6240 H         1 CZ5         0.0249
     40 H14        62.4712   28.9475   61.3861 H         1 CZ5         0.0564
     41 H15        61.5238   24.0678   63.7596 H         1 CZ5         0.0669
     42 H16        60.8233   24.6096   61.3025 H         1 CZ5         0.0355
     43 H17        60.8862   27.1979   60.9921 H         1 CZ5         0.1009
@<TRIPOS>BOND
     1    1    2 ar 
     2    1    6 ar 
     3    2    3 ar 
     4    3    4 ar 
     5    4    5 ar 
     6    5    6 ar 
     7    6    7 1  
     8    7    8 am 
     9    8    9 2  
    10    8   10 1  
    11   10   11 ar 
    12   10   21 ar 
    13   11   12 ar 
    14   12   13 ar 
    15   13   14 1  
    16   13   20 ar 
    17   14   15 am 
    18   15   16 2  
    19   15   17 am 
    20   17   18 1  
    21   18   19 1  
    22   20   21 ar 
    23   21   22 1  
    24   22   23 1  
    25   22   26 1  
    26   23   24 2  
    27   24   25 1  
    28   25   26 2  
    29    1   27 1  
    30    2   28 1  
    31    3   29 1  
    32    5   30 1  
    33    7   31 1  
    34   11   32 1  
    35   14   33 1  
    36   17   34 1  
    37   18   35 1  
    38   18   36 1  
    39   19   37 1  
    40   19   38 1  
    41   19   39 1  
    42   20   40 1  
    43   24   41 1  
    44   25   42 1  
    45   26   43 1  
@<TRIPOS>SUBSTRUCTURE
     1 CZ5         1

