### 
### Created by X-TOOL on Wed Jan  1 15:39:36 2020
### 

@<TRIPOS>MOLECULE
6f8r_ligand
   61    64     1     0     0
SMALL
GAST_HUCK


@<TRIPOS>ATOM
      1 C10        30.1740  228.8170  146.9410 C.ar      1 CZK        -0.0338
      2 C13        28.9670  228.0770  147.2210 C.2       1 CZK         0.0263
      3 C15        25.6810  227.9460  149.9790 C.3       1 CZK         0.1242
      4 C17        25.7940  227.6120  153.7210 C.3       1 CZK        -0.0077
      5 C20        25.2780  229.7680  152.6990 C.3       1 CZK        -0.0077
      6 C21        27.0120  227.0370  147.0060 C.2       1 CZK         0.0500
      7 C22        28.0180  227.5920  146.2870 C.2       1 CZK        -0.0432
      8 C01        33.6870  231.6690  144.7300 C.3       1 CZK         0.0573
      9 O01        33.5260  231.0790  145.9690 O.3       1 CZK        -0.3241
     10 C02        32.4290  230.3390  146.2270 C.ar      1 CZK         0.1206
     11 C03        32.0780  230.2110  147.5690 C.ar      1 CZK         0.1208
     12 O02        32.6530  230.7070  148.6930 O.3       1 CZK        -0.3185
     13 C04        32.0440  231.0550  149.9150 C.3       1 CZK         0.0788
     14 C05        32.6080  232.3650  150.4280 C.3       1 CZK        -0.0226
     15 C06        33.5180  231.9730  151.5070 C.3       1 CZK        -0.0503
     16 C07        33.7260  230.5000  151.3390 C.3       1 CZK        -0.0503
     17 C08        32.3890  230.0240  150.8570 C.3       1 CZK        -0.0226
     18 C09        30.9360  229.4420  147.9350 C.ar      1 CZK        -0.0340
     19 C11        30.5460  228.9920  145.6160 C.ar      1 CZK        -0.0736
     20 C12        31.6660  229.7350  145.2770 C.ar      1 CZK        -0.0399
     21 N01        28.5060  227.8510  148.4270 N.2       1 CZK        -0.2156
     22 N02        27.3470  227.2050  148.2830 N.pl3     1 CZK        -0.2063
     23 C14        26.5480  226.7980  149.4210 C.3       1 CZK         0.1016
     24 O03        24.6390  228.2570  149.0070 O.3       1 CZK        -0.3835
     25 C16        25.0650  227.6540  151.3750 C.3       1 CZK        -0.0023
     26 N03        25.7820  228.3850  152.4640 N.4       1 CZK         0.2404
     27 C18        26.4790  228.3600  154.8890 C.3       1 CZK         0.0878
     28 O04        26.7360  229.7600  154.6780 O.3       1 CZK        -0.3693
     29 C19        25.6250  230.4000  154.0630 C.3       1 CZK         0.0878
     30 H1         26.3272  228.8296  150.0869 H         1 CZK         0.0677
     31 H2         26.3321  226.6687  153.5464 H         1 CZK         0.0837
     32 H3         24.7546  227.3937  154.0073 H         1 CZK         0.0837
     33 H4         24.1819  229.7449  152.6097 H         1 CZK         0.0837
     34 H5         25.6963  230.4150  151.9139 H         1 CZK         0.0837
     35 H6         26.1159  226.5540  146.6192 H         1 CZK         0.0989
     36 H7         28.0842  227.6533  145.2017 H         1 CZK         0.0344
     37 H8         34.6348  232.2270  144.7100 H         1 CZK         0.0574
     38 H9         32.8513  232.3589  144.5410 H         1 CZK         0.0574
     39 H10        33.7032  230.8909  143.9526 H         1 CZK         0.0574
     40 H11        30.9532  231.1304  149.7949 H         1 CZK         0.0645
     41 H12        31.8046  233.0108  150.8120 H         1 CZK         0.0294
     42 H13        33.1533  232.8924  149.6315 H         1 CZK         0.0294
     43 H14        33.0676  232.1883  152.4872 H         1 CZK         0.0266
     44 H15        34.4744  232.5090  151.4172 H         1 CZK         0.0266
     45 H16        33.9929  230.0267  152.2954 H         1 CZK         0.0266
     46 H17        34.5105  230.2936  150.5961 H         1 CZK         0.0266
     47 H18        32.4639  229.0412  150.3686 H         1 CZK         0.0294
     48 H19        31.6606  229.9702  151.6795 H         1 CZK         0.0294
     49 H20        30.6585  229.3414  148.9780 H         1 CZK         0.0507
     50 H21        29.9501  228.5395  144.8317 H         1 CZK         0.0502
     51 H22        31.9394  229.8367  144.2330 H         1 CZK         0.0514
     52 H23        25.8865  225.9757  149.1108 H         1 CZK         0.0669
     53 H24        27.2215  226.4466  150.2165 H         1 CZK         0.0669
     54 H25        24.1023  227.4866  148.8624 H         1 CZK         0.2102
     55 H26        25.1261  226.5735  151.5719 H         1 CZK         0.0841
     56 H27        24.0105  227.9669  151.3710 H         1 CZK         0.0841
     57 H28        26.7399  228.4752  152.1635 H         1 CZK         0.2036
     58 H29        27.4425  227.8670  155.0852 H         1 CZK         0.0613
     59 H30        25.8323  228.2664  155.7738 H         1 CZK         0.0613
     60 H31        24.7525  230.3132  154.7272 H         1 CZK         0.0613
     61 H32        25.8662  231.4625  153.9114 H         1 CZK         0.0613
@<TRIPOS>BOND
     1    2    1 1  
     2    1   18 ar 
     3    1   19 ar 
     4    2    7 1  
     5   21    2 2  
     6    3   23 1  
     7    3   24 1  
     8   25    3 1  
     9   26    4 1  
    10    4   27 1  
    11   26    5 1  
    12    5   29 1  
    13    6    7 2  
    14   22    6 1  
    15    9    8 1  
    16   10    9 1  
    17   11   10 ar 
    18   20   10 ar 
    19   11   12 1  
    20   18   11 ar 
    21   12   13 1  
    22   13   14 1  
    23   13   17 1  
    24   14   15 1  
    25   16   15 1  
    26   17   16 1  
    27   19   20 ar 
    28   22   21 1  
    29   23   22 1  
    30   25   26 1  
    31   27   28 1  
    32   28   29 1  
    33    3   30 1  
    34    4   31 1  
    35    4   32 1  
    36    5   33 1  
    37    5   34 1  
    38    6   35 1  
    39    7   36 1  
    40    8   37 1  
    41    8   38 1  
    42    8   39 1  
    43   13   40 1  
    44   14   41 1  
    45   14   42 1  
    46   15   43 1  
    47   15   44 1  
    48   16   45 1  
    49   16   46 1  
    50   17   47 1  
    51   17   48 1  
    52   18   49 1  
    53   19   50 1  
    54   20   51 1  
    55   23   52 1  
    56   23   53 1  
    57   24   54 1  
    58   25   55 1  
    59   25   56 1  
    60   26   57 1  
    61   27   58 1  
    62   27   59 1  
    63   29   60 1  
    64   29   61 1  
@<TRIPOS>SUBSTRUCTURE
     1 CZK         1

