### 
### Created by X-TOOL on Wed Jan  1 15:39:35 2020
### 

@<TRIPOS>MOLECULE
6f8t_ligand
   64    66     1     0     0
SMALL
GAST_HUCK


@<TRIPOS>ATOM
      1 C10        32.1970  231.3920  149.3320 C.3       1 CZT         0.0788
      2 C13        32.7790  233.1550  150.3090 C.3       1 CZT        -0.0503
      3 C15        32.5190  231.3540  145.6670 C.ar      1 CZT         0.1210
      4 C17        31.9130  230.7810  144.6600 C.ar      1 CZT        -0.0396
      5 C20        26.6920  228.3920  153.7540 C.3       1 CZT         0.0961
      6 C21        26.2310  227.5310  154.9200 C.3       1 CZT        -0.0337
      7 C22        24.8800  228.2760  150.3640 C.3       1 CZT        -0.0023
      8 C01        25.9850  232.0350  153.3560 C.3       1 CZT        -0.0337
      9 C02        26.3820  230.6250  152.9520 C.3       1 CZT         0.0961
     10 C03        25.5690  230.1170  151.7620 C.3       1 CZT        -0.0051
     11 N01        25.9430  228.7590  151.2760 N.4       1 CZT         0.2408
     12 C04        25.0560  228.2060  148.8000 C.3       1 CZT         0.1252
     13 C05        26.5690  228.1300  148.5280 C.3       1 CZT         0.1245
     14 O01        27.1350  228.0780  147.1540 O.3       1 CZT        -0.2351
     15 N02        28.2490  228.8760  147.0540 N.2       1 CZT        -0.1589
     16 C06        29.1050  228.8450  146.1000 C.2       1 CZT         0.0335
     17 C07        30.3220  229.7420  145.9970 C.ar      1 CZT        -0.0312
     18 C08        30.8910  230.2820  147.0360 C.ar      1 CZT        -0.0340
     19 C09        32.0100  231.1170  146.9570 C.ar      1 CZT         0.1209
     20 O02        32.6440  231.7260  148.0590 O.3       1 CZT        -0.3185
     21 C11        33.1700  230.9490  150.5120 C.3       1 CZT        -0.0226
     22 C12        33.7960  232.0710  150.6000 C.3       1 CZT        -0.0503
     23 C14        31.6600  232.3750  149.7910 C.3       1 CZT        -0.0226
     24 O03        33.5990  232.1420  145.4750 O.3       1 CZT        -0.3237
     25 C16        33.9800  232.7180  144.4320 C.3       1 CZT         0.0574
     26 C18        30.8250  229.9810  144.8230 C.ar      1 CZT        -0.0732
     27 O04        24.4480  229.3690  148.2160 O.3       1 CZT        -0.3836
     28 C19        26.1320  227.8240  152.4250 C.3       1 CZT        -0.0051
     29 O05        26.2750  229.7320  154.0640 O.3       1 CZT        -0.3634
     30 H1         31.4647  230.5824  149.1972 H         1 CZT         0.0645
     31 H2         33.1540  233.8664  149.5585 H         1 CZT         0.0266
     32 H3         32.4998  233.6995  151.2231 H         1 CZT         0.0266
     33 H4         32.2916  230.9497  143.6584 H         1 CZT         0.0516
     34 H5         27.7901  228.3723  153.6921 H         1 CZT         0.0647
     35 H6         26.5225  226.4855  154.7415 H         1 CZT         0.0256
     36 H7         25.1369  227.5957  155.0135 H         1 CZT         0.0256
     37 H8         26.7002  227.8891  155.8482 H         1 CZT         0.0256
     38 H9         24.0102  228.9254  150.5420 H         1 CZT         0.0841
     39 H10        24.6452  227.2515  150.6884 H         1 CZT         0.0841
     40 H11        26.0744  232.7041  152.4875 H         1 CZT         0.0256
     41 H12        26.6486  232.3867  154.1597 H         1 CZT         0.0256
     42 H13        24.9446  232.0349  153.7132 H         1 CZT         0.0256
     43 H14        27.4376  230.6528  152.6438 H         1 CZT         0.0647
     44 H15        25.7021  230.8252  150.9309 H         1 CZT         0.0840
     45 H16        24.5098  230.0935  152.0578 H         1 CZT         0.0840
     46 H17        26.8101  228.8192  150.7655 H         1 CZT         0.2036
     47 H18        24.5661  227.3055  148.4013 H         1 CZT         0.0676
     48 H19        26.9255  227.2235  149.0390 H         1 CZT         0.0676
     49 H20        27.0096  229.0175  149.0057 H         1 CZT         0.0676
     50 H21        28.9455  228.1194  145.3038 H         1 CZT         0.0755
     51 H22        30.4750  230.0731  148.0150 H         1 CZT         0.0503
     52 H23        33.8297  230.1157  150.2284 H         1 CZT         0.0294
     53 H24        32.6291  230.6910  151.4344 H         1 CZT         0.0294
     54 H25        34.2077  232.1980  151.6121 H         1 CZT         0.0266
     55 H26        34.6129  232.1090  149.8644 H         1 CZT         0.0266
     56 H27        30.9622  232.1033  150.5967 H         1 CZT         0.0294
     57 H28        31.1201  232.9305  149.0100 H         1 CZT         0.0294
     58 H29        34.9036  233.2784  144.6392 H         1 CZT         0.0574
     59 H30        33.1985  233.4126  144.0903 H         1 CZT         0.0574
     60 H31        34.1730  231.9695  143.6494 H         1 CZT         0.0574
     61 H32        30.3654  229.5310  143.9504 H         1 CZT         0.0503
     62 H33        23.5182  229.3705  148.4108 H         1 CZT         0.2102
     63 H34        25.1502  227.3814  152.6487 H         1 CZT         0.0840
     64 H35        26.8226  227.0352  152.0920 H         1 CZT         0.0840
@<TRIPOS>BOND
     1   20    1 1  
     2    1   21 1  
     3    1   23 1  
     4    2   22 1  
     5   23    2 1  
     6    3    4 ar 
     7   19    3 ar 
     8    3   24 1  
     9    4   26 ar 
    10    5    6 1  
    11   28    5 1  
    12    5   29 1  
    13    7   11 1  
    14   12    7 1  
    15    9    8 1  
    16   10    9 1  
    17    9   29 1  
    18   11   10 1  
    19   11   28 1  
    20   13   12 1  
    21   12   27 1  
    22   14   13 1  
    23   15   14 1  
    24   16   15 2  
    25   17   16 1  
    26   18   17 ar 
    27   17   26 ar 
    28   19   18 ar 
    29   19   20 1  
    30   21   22 1  
    31   24   25 1  
    32    1   30 1  
    33    2   31 1  
    34    2   32 1  
    35    4   33 1  
    36    5   34 1  
    37    6   35 1  
    38    6   36 1  
    39    6   37 1  
    40    7   38 1  
    41    7   39 1  
    42    8   40 1  
    43    8   41 1  
    44    8   42 1  
    45    9   43 1  
    46   10   44 1  
    47   10   45 1  
    48   11   46 1  
    49   12   47 1  
    50   13   48 1  
    51   13   49 1  
    52   16   50 1  
    53   18   51 1  
    54   21   52 1  
    55   21   53 1  
    56   22   54 1  
    57   22   55 1  
    58   23   56 1  
    59   23   57 1  
    60   25   58 1  
    61   25   59 1  
    62   25   60 1  
    63   26   61 1  
    64   27   62 1  
    65   28   63 1  
    66   28   64 1  
@<TRIPOS>SUBSTRUCTURE
     1 CZT         1

