### 
### Created by X-TOOL on Wed Jan  1 15:39:35 2020
### 

@<TRIPOS>MOLECULE
6f8u_ligand
   58    60     1     0     0
SMALL
GAST_HUCK


@<TRIPOS>ATOM
      1 C10        27.4420  229.0840  152.8240 C.3       1 CZQ         0.0600
      2 C13        33.7450  232.6310  150.8330 C.3       1 CZQ        -0.0503
      3 C15        31.6770  231.8790  150.0400 C.3       1 CZQ        -0.0226
      4 C17        34.1220  232.6240  144.3200 C.3       1 CZQ         0.3649
      5 C20        24.3430  231.7730  152.0100 C.3       1 CZQ        -0.0368
      6 C21        27.2500  230.9230  154.6060 C.3       1 CZQ        -0.0368
      7 C01        27.4980  228.1110  150.3590 C.2       1 CZQ         0.2128
      8 N01        26.8260  228.9690  151.4790 N.am      1 CZQ        -0.2659
      9 O01        27.9260  227.5500  148.0700 O.3       1 CZQ        -0.2169
     10 C02        26.8840  227.9720  148.9670 C.3       1 CZQ         0.1821
     11 N02        28.8640  228.3080  147.5840 N.2       1 CZQ        -0.1562
     12 O02        32.7360  231.9120  148.1720 O.3       1 CZQ        -0.3185
     13 C03        25.5980  229.7110  151.2440 C.3       1 CZQ         0.0600
     14 O03        33.6370  232.3220  145.6040 O.3       1 CZQ        -0.2595
     15 C04        29.3800  228.5200  146.4670 C.2       1 CZQ         0.0337
     16 O04        25.3910  230.3590  153.4730 O.3       1 CZQ        -0.3699
     17 C05        25.5510  230.8840  152.1910 C.3       1 CZQ         0.0765
     18 O05        28.5020  227.5070  150.5320 O.2       1 CZQ        -0.3937
     19 C06        30.5050  229.5260  146.2950 C.ar      1 CZQ        -0.0312
     20 C07        31.0660  230.2260  147.3080 C.ar      1 CZQ        -0.0340
     21 C08        26.5740  229.7660  153.9120 C.3       1 CZQ         0.0765
     22 C09        32.1170  231.1650  147.1010 C.ar      1 CZQ         0.1211
     23 C11        32.6030  231.2740  149.4350 C.3       1 CZQ         0.0788
     24 C12        33.8050  231.4090  150.4640 C.3       1 CZQ        -0.0226
     25 C14        32.3120  233.1480  150.6450 C.3       1 CZQ        -0.0503
     26 C16        32.5910  231.3770  145.7800 C.ar      1 CZQ         0.1276
     27 C18        32.0000  230.6530  144.7800 C.ar      1 CZQ        -0.0394
     28 C19        30.9630  229.7490  145.0570 C.ar      1 CZQ        -0.0732
     29 F01        34.7360  231.5130  143.8680 F         1 CZQ        -0.1740
     30 F02        33.3860  232.9270  143.7180 F         1 CZQ        -0.1740
     31 H1         28.3702  229.6652  152.7207 H         1 CZQ         0.0548
     32 H2         27.6820  228.0686  153.1724 H         1 CZQ         0.0548
     33 H3         34.4356  233.2330  150.2242 H         1 CZQ         0.0266
     34 H4         34.0276  232.7090  151.8932 H         1 CZQ         0.0266
     35 H5         31.2635  231.2432  150.8367 H         1 CZQ         0.0294
     36 H6         30.8769  232.1520  149.3362 H         1 CZQ         0.0294
     37 H7         34.8601  233.4364  144.3926 H         1 CZQ         0.1417
     38 H8         24.3774  232.2401  151.0147 H         1 CZQ         0.0255
     39 H9         24.3448  232.5559  152.7827 H         1 CZQ         0.0255
     40 H10        23.4273  231.1703  152.1007 H         1 CZQ         0.0255
     41 H11        26.5692  231.3475  155.3586 H         1 CZQ         0.0255
     42 H12        27.5061  231.6955  153.8660 H         1 CZQ         0.0255
     43 H13        28.1673  230.5694  155.0994 H         1 CZQ         0.0255
     44 H14        26.4763  228.9396  148.6389 H         1 CZQ         0.0895
     45 H15        26.0793  227.2223  148.9856 H         1 CZQ         0.0895
     46 H16        24.7312  229.0574  151.4215 H         1 CZQ         0.0548
     47 H17        25.5776  230.0731  150.2055 H         1 CZQ         0.0548
     48 H18        29.0162  227.9727  145.5986 H         1 CZQ         0.0755
     49 H19        26.4760  231.4725  152.1016 H         1 CZQ         0.0613
     50 H20        30.7015  230.0660  148.3163 H         1 CZQ         0.0503
     51 H21        26.3309  228.9886  154.6513 H         1 CZQ         0.0613
     52 H22        32.3693  230.2112  149.2744 H         1 CZQ         0.0645
     53 H23        33.6675  230.7323  151.3203 H         1 CZQ         0.0294
     54 H24        34.7667  231.1922  149.9760 H         1 CZQ         0.0294
     55 H25        32.2687  234.0015  149.9525 H         1 CZQ         0.0266
     56 H26        31.8453  233.4274  151.6011 H         1 CZQ         0.0266
     57 H27        32.3383  230.7799  143.7580 H         1 CZQ         0.0516
     58 H28        30.5132  229.2077  144.2326 H         1 CZQ         0.0503
@<TRIPOS>BOND
     1    8    1 1  
     2    1   21 1  
     3    2   24 1  
     4   25    2 1  
     5   23    3 1  
     6    3   25 1  
     7   14    4 1  
     8    4   29 1  
     9    4   30 1  
    10   17    5 1  
    11   21    6 1  
    12    7    8 am 
    13   10    7 1  
    14    7   18 2  
    15    8   13 1  
    16    9   10 1  
    17   11    9 1  
    18   15   11 2  
    19   22   12 1  
    20   12   23 1  
    21   13   17 1  
    22   26   14 1  
    23   19   15 1  
    24   17   16 1  
    25   21   16 1  
    26   20   19 ar 
    27   19   28 ar 
    28   22   20 ar 
    29   22   26 ar 
    30   23   24 1  
    31   26   27 ar 
    32   27   28 ar 
    33    1   31 1  
    34    1   32 1  
    35    2   33 1  
    36    2   34 1  
    37    3   35 1  
    38    3   36 1  
    39    4   37 1  
    40    5   38 1  
    41    5   39 1  
    42    5   40 1  
    43    6   41 1  
    44    6   42 1  
    45    6   43 1  
    46   10   44 1  
    47   10   45 1  
    48   13   46 1  
    49   13   47 1  
    50   15   48 1  
    51   17   49 1  
    52   20   50 1  
    53   21   51 1  
    54   23   52 1  
    55   24   53 1  
    56   24   54 1  
    57   25   55 1  
    58   25   56 1  
    59   27   57 1  
    60   28   58 1  
@<TRIPOS>SUBSTRUCTURE
     1 CZQ         1

