### 
### Created by X-TOOL on Wed Jan  1 15:39:37 2020
### 

@<TRIPOS>MOLECULE
6f8v_ligand
   64    67     1     0     0
SMALL
GAST_HUCK


@<TRIPOS>ATOM
      1 C10        30.9880  228.0360  146.7970 C.ar      1 D0B        -0.0338
      2 C13        30.3210  226.8080  147.1570 C.2       1 D0B         0.0263
      3 C15        27.0210  224.1110  146.0750 C.3       1 D0B         0.0672
      4 C17        26.3780  226.7360  147.4640 C.3       1 D0B         0.0599
      5 C20        25.4940  225.3820  149.3710 C.3       1 D0B         0.0599
      6 C21        29.6850  224.9640  148.1680 C.2       1 D0B         0.0501
      7 C22        30.3810  226.0810  148.3730 C.2       1 D0B        -0.0432
      8 C24        26.3460  226.2830  151.5760 C.3       1 D0B        -0.0368
      9 C01        33.6290  231.7630  144.6620 C.3       1 D0B         0.0573
     10 O01        33.1500  231.3660  145.8700 O.3       1 D0B        -0.3241
     11 C02        32.4470  230.2690  146.0910 C.ar      1 D0B         0.1206
     12 C03        32.2820  230.0320  147.4170 C.ar      1 D0B         0.1208
     13 O02        32.7370  230.7200  148.4810 O.3       1 D0B        -0.3185
     14 C04        32.5120  230.4530  149.8450 C.3       1 D0B         0.0788
     15 C05        31.1870  230.9740  150.3470 C.3       1 D0B        -0.0226
     16 C06        31.5610  232.1900  151.0500 C.3       1 D0B        -0.0503
     17 C07        32.9580  232.4480  150.6510 C.3       1 D0B        -0.0503
     18 C08        33.5480  231.0860  150.5610 C.3       1 D0B        -0.0226
     19 C09        31.5540  228.8800  147.7600 C.ar      1 D0B        -0.0340
     20 C11        31.2090  228.3180  145.5080 C.ar      1 D0B        -0.0736
     21 C12        31.9120  229.4300  145.1730 C.ar      1 D0B        -0.0399
     22 N01        29.7000  226.0830  146.3270 N.2       1 D0B        -0.2155
     23 N02        29.3040  225.0330  146.9150 N.pl3     1 D0B        -0.2068
     24 C14        28.5230  223.9210  146.3370 C.3       1 D0B         0.0874
     25 C16        26.3710  224.1790  147.4340 C.2       1 D0B         0.1815
     26 N03        26.1060  225.4060  148.0290 N.am      1 D0B        -0.2682
     27 C18        27.1910  227.5120  148.4890 C.3       1 D0B         0.0765
     28 O03        26.4310  227.7460  149.6840 O.3       1 D0B        -0.3699
     29 C19        25.6880  226.6430  150.2460 C.3       1 D0B         0.0765
     30 O04        26.0970  223.1100  147.9830 O.2       1 D0B        -0.3968
     31 C23        27.6890  228.8200  147.8960 C.3       1 D0B        -0.0368
     32 H1         26.6218  223.2612  145.5019 H         1 D0B         0.0532
     33 H2         26.8443  225.0436  145.5191 H         1 D0B         0.0532
     34 H3         25.4315  227.2588  147.2620 H         1 D0B         0.0548
     35 H4         26.9490  226.6370  146.5291 H         1 D0B         0.0548
     36 H5         25.9218  224.5284  149.9172 H         1 D0B         0.0548
     37 H6         24.4124  225.2295  149.2414 H         1 D0B         0.0548
     38 H7         29.4780  224.1690  148.8829 H         1 D0B         0.0989
     39 H8         30.8921  226.3759  149.2883 H         1 D0B         0.0344
     40 H9         26.4736  227.1933  152.1802 H         1 D0B         0.0255
     41 H10        27.3292  225.8274  151.3872 H         1 D0B         0.0255
     42 H11        25.7092  225.5690  152.1188 H         1 D0B         0.0255
     43 H12        34.1753  232.7107  144.7777 H         1 D0B         0.0574
     44 H13        32.7908  231.9058  143.9641 H         1 D0B         0.0574
     45 H14        34.3087  230.9940  144.2663 H         1 D0B         0.0574
     46 H15        32.5494  229.3661  150.0099 H         1 D0B         0.0645
     47 H16        30.7111  230.2535  151.0284 H         1 D0B         0.0294
     48 H17        30.5060  231.1936  149.5116 H         1 D0B         0.0294
     49 H18        31.4904  232.0448  152.1381 H         1 D0B         0.0266
     50 H19        30.9124  233.0257  150.7487 H         1 D0B         0.0266
     51 H20        33.4783  233.0530  151.4081 H         1 D0B         0.0266
     52 H21        33.0014  232.9607  149.6788 H         1 D0B         0.0266
     53 H22        34.4974  231.0821  150.0055 H         1 D0B         0.0294
     54 H23        33.7014  230.6351  151.5525 H         1 D0B         0.0294
     55 H24        31.4260  228.6360  148.8084 H         1 D0B         0.0507
     56 H25        30.8283  227.6612  144.7342 H         1 D0B         0.0502
     57 H26        32.0514  229.6566  144.1221 H         1 D0B         0.0514
     58 H27        28.9876  223.6708  145.3718 H         1 D0B         0.0667
     59 H28        28.6231  223.0680  147.0242 H         1 D0B         0.0667
     60 H29        28.0675  226.9045  148.7586 H         1 D0B         0.0613
     61 H30        24.6772  227.0214  150.4581 H         1 D0B         0.0613
     62 H31        28.2737  229.3658  148.6511 H         1 D0B         0.0255
     63 H32        26.8297  229.4322  147.5848 H         1 D0B         0.0255
     64 H33        28.3240  228.6086  147.0231 H         1 D0B         0.0255
@<TRIPOS>BOND
     1    2    1 1  
     2    1   19 ar 
     3    1   20 ar 
     4    2    7 1  
     5   22    2 2  
     6    3   24 1  
     7   25    3 1  
     8   26    4 1  
     9    4   27 1  
    10   26    5 1  
    11    5   29 1  
    12    6    7 2  
    13   23    6 1  
    14   29    8 1  
    15   10    9 1  
    16   11   10 1  
    17   12   11 ar 
    18   21   11 ar 
    19   12   13 1  
    20   19   12 ar 
    21   13   14 1  
    22   14   15 1  
    23   14   18 1  
    24   15   16 1  
    25   17   16 1  
    26   18   17 1  
    27   20   21 ar 
    28   23   22 1  
    29   24   23 1  
    30   25   26 am 
    31   25   30 2  
    32   27   28 1  
    33   27   31 1  
    34   28   29 1  
    35    3   32 1  
    36    3   33 1  
    37    4   34 1  
    38    4   35 1  
    39    5   36 1  
    40    5   37 1  
    41    6   38 1  
    42    7   39 1  
    43    8   40 1  
    44    8   41 1  
    45    8   42 1  
    46    9   43 1  
    47    9   44 1  
    48    9   45 1  
    49   14   46 1  
    50   15   47 1  
    51   15   48 1  
    52   16   49 1  
    53   16   50 1  
    54   17   51 1  
    55   17   52 1  
    56   18   53 1  
    57   18   54 1  
    58   19   55 1  
    59   20   56 1  
    60   21   57 1  
    61   24   58 1  
    62   24   59 1  
    63   27   60 1  
    64   29   61 1  
    65   31   62 1  
    66   31   63 1  
    67   31   64 1  
@<TRIPOS>SUBSTRUCTURE
     1 D0B         1

