### 
### Created by X-TOOL on Wed Jan  1 15:39:36 2020
### 

@<TRIPOS>MOLECULE
6f8w_ligand
   58    61     1     0     0
SMALL
GAST_HUCK


@<TRIPOS>ATOM
      1 C10       -31.7550   -1.3610  -25.7490 C.ar      1 D0E        -0.0338
      2 C13       -30.5790   -0.5560  -25.9530 C.2       1 D0E         0.0263
      3 C15       -28.9070    3.4510  -25.5860 C.3       1 D0E         0.0672
      4 C17       -30.5960    2.5240  -28.0340 C.3       1 D0E         0.0573
      5 C20       -28.7120    3.2800  -29.4730 C.3       1 D0E         0.0573
      6 C21       -28.6150    0.1930  -26.5710 C.2       1 D0E         0.0501
      7 C22       -29.4820   -0.8000  -26.8020 C.2       1 D0E        -0.0432
      8 C01       -35.7060   -4.0550  -24.1850 C.3       1 D0E         0.0573
      9 O01       -34.8650   -3.9710  -25.2410 O.3       1 D0E        -0.3241
     10 C02       -33.8910   -3.0600  -25.3200 C.ar      1 D0E         0.1206
     11 C03       -33.0640   -3.3450  -26.3390 C.ar      1 D0E         0.1208
     12 O02       -33.1160   -4.3510  -27.2100 O.3       1 D0E        -0.3185
     13 C04       -32.9430   -4.1810  -28.5900 C.3       1 D0E         0.0788
     14 C05       -34.0790   -4.6400  -29.4950 C.3       1 D0E        -0.0226
     15 C06       -33.5080   -5.8250  -30.0770 C.3       1 D0E        -0.0503
     16 C07       -32.5320   -6.2420  -29.0480 C.3       1 D0E        -0.0503
     17 C08       -31.8090   -4.9730  -28.7970 C.3       1 D0E        -0.0226
     18 C09       -31.9730   -2.4880  -26.5400 C.ar      1 D0E        -0.0340
     19 C11       -32.6070   -1.1420  -24.7360 C.ar      1 D0E        -0.0736
     20 C12       -33.6580   -1.9810  -24.5470 C.ar      1 D0E        -0.0399
     21 N01       -30.2980    0.4660  -25.2610 N.2       1 D0E        -0.2155
     22 N02       -29.1280    0.9400  -25.6310 N.pl3     1 D0E        -0.2068
     23 C14       -28.4770    2.0850  -25.0850 C.3       1 D0E         0.0874
     24 C16       -28.4880    3.5680  -27.0550 C.2       1 D0E         0.1814
     25 N03       -29.2520    3.1130  -28.1120 N.am      1 D0E        -0.2687
     26 C18       -30.9120    1.4320  -29.0580 C.3       1 D0E         0.0681
     27 O03       -30.4810    1.7970  -30.3680 O.3       1 D0E        -0.3758
     28 C19       -29.0940    2.1270  -30.4110 C.3       1 D0E         0.0681
     29 O04       -27.3860    4.0800  -27.2700 O.2       1 D0E        -0.3968
     30 H1        -28.4165    4.2376  -24.9938 H         1 D0E         0.0532
     31 H2        -29.9987    3.5540  -25.4996 H         1 D0E         0.0532
     32 H3        -31.3268    3.3347  -28.1707 H         1 D0E         0.0545
     33 H4        -30.7146    2.0886  -27.0308 H         1 D0E         0.0545
     34 H5        -27.6151    3.3341  -29.4115 H         1 D0E         0.0545
     35 H6        -29.1024    4.2186  -29.8931 H         1 D0E         0.0545
     36 H7        -27.6611    0.3487  -27.0727 H         1 D0E         0.0989
     37 H8        -29.3637   -1.6260  -27.5018 H         1 D0E         0.0344
     38 H9        -36.4179   -4.8777  -24.3478 H         1 D0E         0.0574
     39 H10       -36.2571   -3.1089  -24.0789 H         1 D0E         0.0574
     40 H11       -35.1271   -4.2468  -23.2695 H         1 D0E         0.0574
     41 H12       -32.7382   -3.1235  -28.8131 H         1 D0E         0.0645
     42 H13       -34.3137   -3.8868  -30.2616 H         1 D0E         0.0294
     43 H14       -34.9865   -4.8710  -28.9179 H         1 D0E         0.0294
     44 H15       -33.0092   -5.5997  -31.0311 H         1 D0E         0.0266
     45 H16       -34.2733   -6.5988  -30.2371 H         1 D0E         0.0266
     46 H17       -31.8555   -7.0217  -29.4280 H         1 D0E         0.0266
     47 H18       -33.0355   -6.6042  -28.1396 H         1 D0E         0.0266
     48 H19       -31.1614   -5.0241  -27.9093 H         1 D0E         0.0294
     49 H20       -31.2171   -4.6452  -29.6643 H         1 D0E         0.0294
     50 H21       -31.2743   -2.7095  -27.3386 H         1 D0E         0.0507
     51 H22       -32.4571   -0.2990  -24.0713 H         1 D0E         0.0502
     52 H23       -34.3437   -1.7724  -23.7338 H         1 D0E         0.0514
     53 H24       -28.6414    2.0680  -23.9975 H         1 D0E         0.0667
     54 H25       -27.4022    1.9822  -25.2951 H         1 D0E         0.0667
     55 H26       -31.9987    1.2624  -29.0746 H         1 D0E         0.0580
     56 H27       -30.4007    0.5048  -28.7599 H         1 D0E         0.0580
     57 H28       -28.5149    1.2371  -30.1233 H         1 D0E         0.0580
     58 H29       -28.8361    2.4153  -31.4407 H         1 D0E         0.0580
@<TRIPOS>BOND
     1    2    1 1  
     2    1   18 ar 
     3    1   19 ar 
     4    2    7 1  
     5   21    2 2  
     6    3   23 1  
     7   24    3 1  
     8   25    4 1  
     9    4   26 1  
    10   25    5 1  
    11    5   28 1  
    12    6    7 2  
    13   22    6 1  
    14    9    8 1  
    15   10    9 1  
    16   11   10 ar 
    17   20   10 ar 
    18   11   12 1  
    19   18   11 ar 
    20   12   13 1  
    21   13   14 1  
    22   13   17 1  
    23   14   15 1  
    24   16   15 1  
    25   17   16 1  
    26   19   20 ar 
    27   22   21 1  
    28   23   22 1  
    29   24   25 am 
    30   24   29 2  
    31   26   27 1  
    32   27   28 1  
    33    3   30 1  
    34    3   31 1  
    35    4   32 1  
    36    4   33 1  
    37    5   34 1  
    38    5   35 1  
    39    6   36 1  
    40    7   37 1  
    41    8   38 1  
    42    8   39 1  
    43    8   40 1  
    44   13   41 1  
    45   14   42 1  
    46   14   43 1  
    47   15   44 1  
    48   15   45 1  
    49   16   46 1  
    50   16   47 1  
    51   17   48 1  
    52   17   49 1  
    53   18   50 1  
    54   19   51 1  
    55   20   52 1  
    56   23   53 1  
    57   23   54 1  
    58   26   55 1  
    59   26   56 1  
    60   28   57 1  
    61   28   58 1  
@<TRIPOS>SUBSTRUCTURE
     1 D0E         1

