### 
### Created by X-TOOL on Wed Jan  1 15:39:35 2020
### 

@<TRIPOS>MOLECULE
6f8x_ligand
   59    61     1     0     0
SMALL
GAST_HUCK


@<TRIPOS>ATOM
      1 C10        32.0000  -26.6950  -30.4980 C.ar      1 D08        -0.0238
      2 C13        30.9840  -27.1320  -29.5430 C.2       1 D08         0.0477
      3 C15        29.5890  -27.3020  -27.7500 C.3       1 D08         0.1250
      4 C17        29.4620  -28.6830  -25.7110 C.2       1 D08         0.1817
      5 C20        28.7620  -30.2220  -23.0380 C.3       1 D08         0.0645
      6 C21        32.2920  -29.8350  -24.4260 C.3       1 D08         0.0645
      7 C01        35.3530  -24.4100  -33.5630 C.3       1 D08         0.0575
      8 O01        34.9500  -25.7500  -33.3250 O.3       1 D08        -0.3234
      9 C02        33.9710  -25.9820  -32.3910 C.ar      1 D08         0.1215
     10 C03        33.7040  -27.3250  -32.1020 C.ar      1 D08         0.1215
     11 O02        34.4450  -28.2620  -32.7480 O.3       1 D08        -0.3183
     12 C04        34.6600  -29.4480  -31.9960 C.3       1 D08         0.0788
     13 C05        36.1220  -29.8640  -32.2220 C.3       1 D08        -0.0226
     14 C06        36.0360  -31.2150  -32.8950 C.3       1 D08        -0.0503
     15 C07        34.7020  -31.1450  -33.6250 C.3       1 D08        -0.0503
     16 C08        33.7990  -30.5790  -32.5470 C.3       1 D08        -0.0226
     17 C09        32.7320  -27.6670  -31.1650 C.ar      1 D08        -0.0323
     18 C11        32.2550  -25.3560  -30.7900 C.ar      1 D08        -0.0715
     19 C12        33.2370  -25.0000  -31.7220 C.ar      1 D08        -0.0390
     20 C14        30.3240  -26.2590  -28.5650 C.3       1 D08         0.0275
     21 C16        30.3490  -27.7680  -26.5190 C.3       1 D08         0.0719
     22 O03        28.2960  -28.3120  -25.4780 O.2       1 D08        -0.3968
     23 N01        29.9340  -29.8990  -25.2440 N.am      1 D08        -0.2687
     24 O04        29.4790  -28.4670  -28.5770 O.3       1 D08        -0.2470
     25 N02        30.6050  -28.4110  -29.4440 N.2       1 D08        -0.1772
     26 C18        31.3070  -30.3930  -25.4600 C.3       1 D08         0.0571
     27 C19        29.0420  -30.7510  -24.4500 C.3       1 D08         0.0571
     28 O05        28.8250  -31.2420  -22.0690 O.3       1 D08        -0.3930
     29 O06        32.1950  -28.4150  -24.2870 O.3       1 D08        -0.3930
     30 H1         28.6001  -26.9174  -27.4600 H         1 D08         0.0722
     31 H2         27.7566  -29.7761  -23.0190 H         1 D08         0.0577
     32 H3         29.5090  -29.4528  -22.7926 H         1 D08         0.0577
     33 H4         33.3150  -30.0895  -24.7402 H         1 D08         0.0577
     34 H5         32.0814  -30.2999  -23.4516 H         1 D08         0.0577
     35 H6         36.1387  -24.3947  -34.3327 H         1 D08         0.0574
     36 H7         35.7434  -23.9736  -32.6318 H         1 D08         0.0574
     37 H8         34.4893  -23.8233  -33.9090 H         1 D08         0.0574
     38 H9         34.4490  -29.2780  -30.9299 H         1 D08         0.0645
     39 H10        36.6561  -29.9413  -31.2635 H         1 D08         0.0294
     40 H11        36.6358  -29.1394  -32.8707 H         1 D08         0.0294
     41 H12        36.0396  -32.0277  -32.1537 H         1 D08         0.0266
     42 H13        36.8668  -31.3592  -33.6013 H         1 D08         0.0266
     43 H14        34.3672  -32.1420  -33.9474 H         1 D08         0.0266
     44 H15        34.7553  -30.4764  -34.4968 H         1 D08         0.0266
     45 H16        32.8575  -30.1985  -32.9698 H         1 D08         0.0294
     46 H17        33.5770  -31.3290  -31.7736 H         1 D08         0.0294
     47 H18        32.5436  -28.7132  -30.9526 H         1 D08         0.0510
     48 H19        31.6860  -24.5810  -30.2893 H         1 D08         0.0509
     49 H20        33.4294  -23.9529  -31.9263 H         1 D08         0.0517
     50 H21        29.6317  -25.5531  -29.0472 H         1 D08         0.0461
     51 H22        31.0514  -25.7015  -27.9567 H         1 D08         0.0461
     52 H23        30.6333  -26.8975  -25.9096 H         1 D08         0.0535
     53 H24        31.2545  -28.3107  -26.8281 H         1 D08         0.0535
     54 H25        31.3037  -31.4907  -25.3899 H         1 D08         0.0545
     55 H26        31.6384  -30.0907  -26.4644 H         1 D08         0.0545
     56 H27        28.0834  -30.8380  -24.9825 H         1 D08         0.0545
     57 H28        29.5035  -31.7455  -24.3609 H         1 D08         0.0545
     58 H29        28.1785  -31.9084  -22.2698 H         1 D08         0.2095
     59 H30        32.8221  -28.1179  -23.6381 H         1 D08         0.2095
@<TRIPOS>BOND
     1    2    1 1  
     2    1   17 ar 
     3    1   18 ar 
     4   20    2 1  
     5    2   25 2  
     6    3   20 1  
     7   21    3 1  
     8    3   24 1  
     9    4   21 1  
    10    4   22 2  
    11   23    4 am 
    12   27    5 1  
    13    5   28 1  
    14   26    6 1  
    15    6   29 1  
    16    8    7 1  
    17    9    8 1  
    18   10    9 ar 
    19   19    9 ar 
    20   10   11 1  
    21   17   10 ar 
    22   11   12 1  
    23   12   13 1  
    24   12   16 1  
    25   13   14 1  
    26   15   14 1  
    27   16   15 1  
    28   18   19 ar 
    29   23   26 1  
    30   23   27 1  
    31   24   25 1  
    32    3   30 1  
    33    5   31 1  
    34    5   32 1  
    35    6   33 1  
    36    6   34 1  
    37    7   35 1  
    38    7   36 1  
    39    7   37 1  
    40   12   38 1  
    41   13   39 1  
    42   13   40 1  
    43   14   41 1  
    44   14   42 1  
    45   15   43 1  
    46   15   44 1  
    47   16   45 1  
    48   16   46 1  
    49   17   47 1  
    50   18   48 1  
    51   19   49 1  
    52   20   50 1  
    53   20   51 1  
    54   21   52 1  
    55   21   53 1  
    56   26   54 1  
    57   26   55 1  
    58   27   56 1  
    59   27   57 1  
    60   28   58 1  
    61   29   59 1  
@<TRIPOS>SUBSTRUCTURE
     1 D08         1

