### 
### Created by X-TOOL on Wed Jan  1 15:39:37 2020
### 

@<TRIPOS>MOLECULE
6f90_ligand
   26    27     1     0     0
SMALL
GAST_HUCK


@<TRIPOS>ATOM
      1 C1         22.0760  125.0960   -9.4950 C.2       1 MVL         0.1465
      2 N10        21.1490  124.3490   -8.8670 N.pl3     1 MVL        -0.2404
      3 C3         22.9560  123.1250  -10.7660 C.3       1 MVL         0.1253
      4 C4         22.1330  122.3130   -9.7610 C.3       1 MVL         0.1183
      5 C5         20.8400  122.9670   -9.2730 C.3       1 MVL         0.1196
      6 C6         20.2320  122.1880   -8.1210 C.3       1 MVL         0.0773
      7 C7         21.2240  126.3050   -7.8950 C.2       1 MVL        -0.0364
      8 C8         20.6110  125.0700   -7.8730 C.2       1 MVL         0.0285
      9 N1         22.1260  126.2950   -8.9080 N.2       1 MVL        -0.3367
     10 O3         24.3290  122.7420  -10.6080 O.3       1 MVL        -0.3839
     11 O2         24.1970  125.2290  -10.6750 O.3       1 MVL        -0.3699
     12 O4         21.7800  121.0830  -10.3990 O.3       1 MVL        -0.3858
     13 C2         22.8780  124.6550  -10.6710 C.3       1 MVL         0.1586
     14 O6         21.0230  122.3170   -6.9380 O.3       1 MVL        -0.3918
     15 H1         22.6144  122.8431  -11.7729 H         1 MVL         0.0675
     16 H2         22.7655  122.1108   -8.8841 H         1 MVL         0.0654
     17 H3         20.1151  122.9888  -10.1001 H         1 MVL         0.0704
     18 H4         20.1714  121.1253   -8.3984 H         1 MVL         0.0589
     19 H5         19.2212  122.5730   -7.9209 H         1 MVL         0.0589
     20 H6         21.0210  127.1366   -7.2219 H         1 MVL         0.0408
     21 H7         19.8372  124.7427   -7.1801 H         1 MVL         0.0796
     22 H8         24.6089  122.9302   -9.7199 H         1 MVL         0.2103
     23 H9         24.6874  124.8981   -9.9317 H         1 MVL         0.2138
     24 H10        22.5668  120.6534  -10.7133 H         1 MVL         0.2100
     25 H11        22.3594  125.0160  -11.5714 H         1 MVL         0.0858
     26 H12        21.8964  121.9822   -7.1043 H         1 MVL         0.2095
@<TRIPOS>BOND
     1    1    2 1  
     2    1    9 2  
     3   13    1 1  
     4    2    5 1  
     5    2    8 1  
     6    3    4 1  
     7    3   10 1  
     8    3   13 1  
     9    4    5 1  
    10    4   12 1  
    11    5    6 1  
    12    6   14 1  
    13    8    7 2  
    14    7    9 1  
    15   13   11 1  
    16    3   15 1  
    17    4   16 1  
    18    5   17 1  
    19    6   18 1  
    20    6   19 1  
    21    7   20 1  
    22    8   21 1  
    23   10   22 1  
    24   11   23 1  
    25   12   24 1  
    26   13   25 1  
    27   14   26 1  
@<TRIPOS>SUBSTRUCTURE
     1 MVL         1

