### 
### Created by X-TOOL on Mon Aug  2 16:13:22 2021
### 

@<TRIPOS>MOLECULE
6f94_ligand
   55    57     1     0     0
SMALL
GAST_HUCK


@<TRIPOS>ATOM
      1 CBD        59.2820   22.8480   61.4970 C.3       1 D0H        -0.0338
      2 CAZ        60.1280   23.9440   61.2950 C.ar      1 D0H        -0.0561
      3 CAY        60.2770   24.9090   62.2940 C.ar      1 D0H        -0.0382
      4 CBA        60.8280   24.0850   60.0980 C.ar      1 D0H        -0.0723
      5 CBB        61.6690   25.1850   59.9170 C.ar      1 D0H        -0.0782
      6 CBC        61.8230   26.1440   60.9240 C.ar      1 D0H        -0.0457
      7 CAX        61.1030   26.0410   62.1320 C.ar      1 D0H         0.0548
      8 NAK        61.1520   26.8590   63.2170 N.pl3     1 D0H        -0.2683
      9 CAJ        61.4860   28.1850   63.2960 C.ar      1 D0H         0.0837
     10 CAI        61.9350   29.0170   62.2480 C.ar      1 D0H         0.0107
     11 CAH        62.2600   30.3710   62.4610 C.ar      1 D0H         0.1299
     12 NAL        62.7020   31.2710   61.5620 N.am      1 D0H        -0.2041
     13 CAM        63.4270   30.9490   60.4620 C.2       1 D0H         0.2927
     14 OAO        63.6590   29.7930   60.1170 O.2       1 D0H        -0.3881
     15 NAN        63.8630   31.9990   59.7340 N.am      1 D0H        -0.2671
     16 CAP        64.6500   31.8780   58.4930 C.3       1 D0H         0.0291
     17 CAQ        65.7730   32.9190   58.5040 C.3       1 D0H        -0.0450
     18 NAG        62.1510   30.8760   63.6940 N.ar      1 D0H        -0.2942
     19 CAF        61.7210   30.1070   64.7610 C.ar      1 D0H         0.0030
     20 CAE        61.3970   28.7530   64.6070 C.ar      1 D0H         0.0882
     21 CAC        60.9340   28.0440   65.7380 C.2       1 D0H         0.2225
     22 OAD        60.0710   27.1820   65.5840 O.2       1 D0H        -0.3834
     23 NAB        61.3930   28.4030   66.9660 N.am      1 D0H        -0.2377
     24 CAA        60.9090   27.7900   68.0550 C.ar      1 D0H         0.0585
     25 CAV        61.7700   27.1080   68.9090 C.ar      1 D0H        -0.0409
     26 CAU        61.2540   26.4880   70.0480 C.ar      1 D0H        -0.0599
     27 CAW        62.0980   25.7790   70.8950 C.3       1 D0H        -0.0346
     28 CAT        59.8850   26.5530   70.3450 C.ar      1 D0H        -0.0759
     29 CAS        59.0210   27.2420   69.4990 C.ar      1 D0H        -0.0819
     30 CAR        59.5430   27.8650   68.3640 C.ar      1 D0H        -0.0482
     31 H1         58.8248   22.9168   62.4951 H         1 D0H         0.0389
     32 H2         59.8637   21.9173   61.4236 H         1 D0H         0.0389
     33 H3         58.4923   22.8483   60.7312 H         1 D0H         0.0389
     34 H4         59.7389   24.7835   63.2266 H         1 D0H         0.0469
     35 H5         60.7203   23.3456   59.3127 H         1 D0H         0.0459
     36 H6         62.2096   25.2973   58.9841 H         1 D0H         0.0570
     37 H7         62.5029   26.9748   60.7740 H         1 D0H         0.0478
     38 H8         60.9007   26.4158   64.1122 H         1 D0H         0.2133
     39 H9         62.0325   28.6024   61.2512 H         1 D0H         0.0497
     40 H10        62.4825   32.2346   61.7147 H         1 D0H         0.2324
     41 H11        63.6377   32.9181   60.0573 H         1 D0H         0.1854
     42 H12        63.9968   32.0510   57.6250 H         1 D0H         0.0515
     43 H13        65.0843   30.8694   58.4299 H         1 D0H         0.0515
     44 H14        66.3627   32.8320   57.5795 H         1 D0H         0.0249
     45 H15        66.4253   32.7456   59.3726 H         1 D0H         0.0249
     46 H16        65.3378   33.9272   58.5677 H         1 D0H         0.0249
     47 H17        61.6327   30.5637   65.7401 H         1 D0H         0.0797
     48 H18        62.0859   29.1184   67.0561 H         1 D0H         0.2245
     49 H19        62.8309   27.0587   68.6919 H         1 D0H         0.0437
     50 H20        61.5152   25.3651   71.7311 H         1 D0H         0.0388
     51 H21        62.8742   26.4526   71.2872 H         1 D0H         0.0388
     52 H22        62.5724   24.9583   70.3371 H         1 D0H         0.0388
     53 H23        59.4996   26.0665   71.2337 H         1 D0H         0.0430
     54 H24        57.9606   27.2940   69.7177 H         1 D0H         0.0561
     55 H25        58.8795   28.4176   67.7086 H         1 D0H         0.0447
@<TRIPOS>BOND
     1    1    2 1  
     2    2    3 ar 
     3    2    4 ar 
     4    3    7 ar 
     5    4    5 ar 
     6    5    6 ar 
     7    6    7 ar 
     8    7    8 1  
     9    8    9 1  
    10    9   10 ar 
    11    9   20 ar 
    12   10   11 ar 
    13   11   12 1  
    14   11   18 ar 
    15   12   13 am 
    16   13   14 2  
    17   13   15 am 
    18   15   16 1  
    19   16   17 1  
    20   18   19 ar 
    21   19   20 ar 
    22   20   21 1  
    23   21   22 2  
    24   21   23 am 
    25   23   24 1  
    26   24   25 ar 
    27   24   30 ar 
    28   25   26 ar 
    29   26   27 1  
    30   26   28 ar 
    31   28   29 ar 
    32   29   30 ar 
    33    1   31 1  
    34    1   32 1  
    35    1   33 1  
    36    3   34 1  
    37    4   35 1  
    38    5   36 1  
    39    6   37 1  
    40    8   38 1  
    41   10   39 1  
    42   12   40 1  
    43   15   41 1  
    44   16   42 1  
    45   16   43 1  
    46   17   44 1  
    47   17   45 1  
    48   17   46 1  
    49   19   47 1  
    50   23   48 1  
    51   25   49 1  
    52   27   50 1  
    53   27   51 1  
    54   27   52 1  
    55   28   53 1  
    56   29   54 1  
    57   30   55 1  
@<TRIPOS>SUBSTRUCTURE
     1 D0H         1

