### 
### Created by X-TOOL on Mon Aug  2 16:13:22 2021
### 

@<TRIPOS>MOLECULE
6f96_ligand
   52    54     1     0     0
SMALL
GAST_HUCK


@<TRIPOS>ATOM
      1 CBD        59.6020   24.8950   57.7630 C.3       1 D0K         0.0569
      2 OBC        60.8390   24.6830   58.4760 O.3       1 D0K        -0.3286
      3 CAZ        61.0020   25.3640   59.6530 C.ar      1 D0K         0.0791
      4 CBA        59.9410   25.5780   60.5420 C.ar      1 D0K        -0.0422
      5 CBB        60.1460   26.2730   61.7350 C.ar      1 D0K        -0.0467
      6 CAY        62.2710   25.8490   59.9880 C.ar      1 D0K        -0.0422
      7 CAX        62.4740   26.5390   61.1910 C.ar      1 D0K        -0.0467
      8 CAW        61.4010   26.7810   62.0580 C.ar      1 D0K         0.0513
      9 NAK        61.5280   27.4000   63.2390 N.pl3     1 D0K        -0.2728
     10 CAJ        61.9100   28.6970   63.4200 C.ar      1 D0K         0.0816
     11 CAI        62.3950   29.5480   62.3960 C.ar      1 D0K         0.0100
     12 CAH        62.7860   30.8760   62.6740 C.ar      1 D0K         0.1295
     13 NAL        63.2500   31.7940   61.8040 N.am      1 D0K        -0.2042
     14 CAM        63.9700   31.5010   60.6900 C.2       1 D0K         0.2927
     15 OAO        64.2210   30.3560   60.3120 O.2       1 D0K        -0.3881
     16 NAN        64.3910   32.5640   59.9850 N.am      1 D0K        -0.2671
     17 CAP        65.1650   32.4540   58.7400 C.3       1 D0K         0.0291
     18 CAQ        66.2220   33.5540   58.6780 C.3       1 D0K        -0.0450
     19 NAG        62.6890   31.3300   63.9320 N.ar      1 D0K        -0.2946
     20 CAF        62.2230   30.5270   64.9700 C.ar      1 D0K         0.0027
     21 CAE        61.8350   29.1880   64.7590 C.ar      1 D0K         0.0879
     22 CAC        61.3500   28.4180   65.8570 C.2       1 D0K         0.2244
     23 OAD        60.4910   27.5680   65.6560 O.2       1 D0K        -0.3825
     24 NAB        61.8590   28.6780   67.0940 N.am      1 D0K        -0.2292
     25 CAA        61.4260   28.0680   68.2110 C.ar      1 D0K         0.0935
     26 CAR        60.0650   27.9390   68.5210 C.ar      1 D0K        -0.0217
     27 CAS        59.6470   27.3410   69.7060 C.ar      1 D0K        -0.0480
     28 CAT        60.5890   26.8820   70.6180 C.ar      1 D0K        -0.0050
     29 NAU        61.9530   27.0230   70.3360 N.ar      1 D0K        -0.3128
     30 CAV        62.3680   27.6270   69.1430 C.ar      1 D0K         0.0312
     31 H1         59.6015   24.2927   56.8425 H         1 D0K         0.0573
     32 H2         59.5056   25.9598   57.5045 H         1 D0K         0.0573
     33 H3         58.7562   24.5939   58.3986 H         1 D0K         0.0573
     34 H4         58.9534   25.2011   60.3018 H         1 D0K         0.0515
     35 H5         59.3174   26.4190   62.4185 H         1 D0K         0.0509
     36 H6         63.1034   25.6899   59.3121 H         1 D0K         0.0515
     37 H7         63.4669   26.8872   61.4518 H         1 D0K         0.0509
     38 H8         61.3191   26.8489   64.0837 H         1 D0K         0.2105
     39 H9         62.4671   29.1729   61.3815 H         1 D0K         0.0494
     40 H10        63.0510   32.7560   61.9909 H         1 D0K         0.2323
     41 H11        64.1663   33.4774   60.3246 H         1 D0K         0.1854
     42 H12        64.4863   32.5533   57.8801 H         1 D0K         0.0515
     43 H13        65.6598   31.4722   58.7052 H         1 D0K         0.0515
     44 H14        66.7937   33.4608   57.7428 H         1 D0K         0.0249
     45 H15        66.9037   33.4563   59.5357 H         1 D0K         0.0249
     46 H16        65.7302   34.5374   58.7107 H         1 D0K         0.0249
     47 H17        62.1567   30.9433   65.9687 H         1 D0K         0.0797
     48 H18        62.5901   29.3554   67.1748 H         1 D0K         0.2272
     49 H19        59.3236   28.3124   67.8239 H         1 D0K         0.0621
     50 H20        58.5891   27.2336   69.9169 H         1 D0K         0.0667
     51 H21        60.2695   26.4169   71.5435 H         1 D0K         0.0690
     52 H22        63.4257   27.7530   68.9417 H         1 D0K         0.0711
@<TRIPOS>BOND
     1    1    2 1  
     2    2    3 1  
     3    3    4 ar 
     4    3    6 ar 
     5    4    5 ar 
     6    5    8 ar 
     7    6    7 ar 
     8    7    8 ar 
     9    8    9 1  
    10    9   10 1  
    11   10   11 ar 
    12   10   21 ar 
    13   11   12 ar 
    14   12   13 1  
    15   12   19 ar 
    16   13   14 am 
    17   14   15 2  
    18   14   16 am 
    19   16   17 1  
    20   17   18 1  
    21   19   20 ar 
    22   20   21 ar 
    23   21   22 1  
    24   22   23 2  
    25   22   24 am 
    26   24   25 1  
    27   25   26 ar 
    28   25   30 ar 
    29   26   27 ar 
    30   27   28 ar 
    31   28   29 ar 
    32   29   30 ar 
    33    1   31 1  
    34    1   32 1  
    35    1   33 1  
    36    4   34 1  
    37    5   35 1  
    38    6   36 1  
    39    7   37 1  
    40    9   38 1  
    41   11   39 1  
    42   13   40 1  
    43   16   41 1  
    44   17   42 1  
    45   17   43 1  
    46   18   44 1  
    47   18   45 1  
    48   18   46 1  
    49   20   47 1  
    50   24   48 1  
    51   26   49 1  
    52   27   50 1  
    53   28   51 1  
    54   30   52 1  
@<TRIPOS>SUBSTRUCTURE
     1 D0K         1

