### 
### Created by X-TOOL on Wed Jan  1 15:39:37 2020
### 

@<TRIPOS>MOLECULE
6f9g_ligand
   20    19     1     0     0
SMALL
GAST_HUCK


@<TRIPOS>ATOM
      1 N2         53.7720   71.5710   41.4200 N.4       1 PUT         0.2185
      2 C4         53.0160   71.0060   40.3170 C.3       1 PUT        -0.0352
      3 C3         51.7070   71.7730   40.1420 C.3       1 PUT        -0.0078
      4 C2         51.9940   73.1930   39.6600 C.3       1 PUT        -0.0078
      5 C1         52.5850   73.1470   38.2520 C.3       1 PUT        -0.0352
      6 N1         53.3450   74.3600   38.0100 N.4       1 PUT         0.2185
      7 H1         54.6347   71.0618   41.5317 H         1 PUT         0.1994
      8 H2         53.2305   71.5044   42.2675 H         1 PUT         0.1994
      9 H3         53.9758   72.5390   41.2267 H         1 PUT         0.1994
     10 H4         52.7949   69.9495   40.5288 H         1 PUT         0.0813
     11 H5         53.6083   71.0786   39.3929 H         1 PUT         0.0813
     12 H6         51.1780   71.8154   41.1055 H         1 PUT         0.0319
     13 H7         51.0787   71.2569   39.4011 H         1 PUT         0.0319
     14 H8         52.7108   73.6733   40.3423 H         1 PUT         0.0319
     15 H9         51.0581   73.7708   39.6454 H         1 PUT         0.0319
     16 H10        51.7723   73.0696   37.5148 H         1 PUT         0.0813
     17 H11        53.2477   72.2739   38.1602 H         1 PUT         0.0813
     18 H12        53.7360   74.3319   37.0813 H         1 PUT         0.1994
     19 H13        54.0894   74.4306   38.6859 H         1 PUT         0.1994
     20 H14        52.7373   75.1598   38.0946 H         1 PUT         0.1994
@<TRIPOS>BOND
     1    1    2 1  
     2    2    3 1  
     3    3    4 1  
     4    4    5 1  
     5    5    6 1  
     6    1    7 1  
     7    1    8 1  
     8    1    9 1  
     9    2   10 1  
    10    2   11 1  
    11    3   12 1  
    12    3   13 1  
    13    4   14 1  
    14    4   15 1  
    15    5   16 1  
    16    5   17 1  
    17    6   18 1  
    18    6   19 1  
    19    6   20 1  
@<TRIPOS>SUBSTRUCTURE
     1 PUT         1

