### 
### Created by X-TOOL on Wed Jan  1 15:39:37 2020
### 

@<TRIPOS>MOLECULE
6f9r_ligand
   68    69     1     0     0
SMALL
GAST_HUCK


@<TRIPOS>ATOM
      1 C10         1.1800   13.9720   26.3450 C.2       1 D0W         0.2035
      2 N12         1.6530   13.9860   24.9610 N.am      1 D0W        -0.2831
      3 C13         2.0900   15.2390   24.3730 C.3       1 D0W         0.0451
      4 C15         1.6670   17.0600   22.7920 C.3       1 D0W        -0.0244
      5 C17         1.7380   19.0630   21.2650 C.3       1 D0W        -0.0406
      6 C20        -0.3640   18.0660   21.9200 C.3       1 D0W        -0.0406
      7 C21         1.0680   16.8860   20.3000 C.2       1 D0W         0.2037
      8 C24         0.0850   16.3550   18.0600 C.3       1 D0W         0.1026
      9 C26        -2.1340   17.6220   17.6570 C.ar      1 D0W        -0.0499
     10 C28        -3.8870   18.5350   18.9950 C.ar      1 D0W        -0.0398
     11 C01         3.5200   12.2950   29.7370 C.3       1 D0W         0.0258
     12 C02         2.8250   12.3770   28.3750 C.2       1 D0W         0.1752
     13 C05         0.7130   12.6950   27.0430 C.3       1 D0W         0.1421
     14 C06        -0.7950   12.7860   27.2900 C.3       1 D0W         0.0406
     15 C07        -1.3640   11.5030   27.8830 C.2       1 D0W         0.0393
     16 C14         1.2070   15.6550   23.1840 C.3       1 D0W         0.0315
     17 C16         0.9390   17.6940   21.6040 C.3       1 D0W         0.0532
     18 C18         0.6640   20.2090   21.4110 C.3       1 D0W        -0.0536
     19 C19        -0.5860   19.5980   21.2990 C.3       1 D0W        -0.0536
     20 C25        -1.2310   16.4370   17.2930 C.3       1 D0W         0.0110
     21 C27        -3.0660   17.4730   18.6590 C.ar      1 D0W        -0.0686
     22 C29        -3.7840   19.7420   18.3240 C.ar      1 D0W         0.0805
     23 C30        -2.8500   19.8970   17.3060 C.ar      1 D0W        -0.0398
     24 C31        -2.0170   18.8310   16.9790 C.ar      1 D0W        -0.0686
     25 C33         1.1770   17.0880   17.3010 C.2       1 D0W         0.0620
     26 C36        -0.2700   15.6420   23.5810 C.2       1 D0W         0.0396
     27 N04         1.3920   12.6020   28.3200 N.am      1 D0W        -0.2643
     28 N23         0.0150   17.0140   19.3510 N.am      1 D0W        -0.2687
     29 O03         3.4420   12.2550   27.3690 O.2       1 D0W        -0.3972
     30 O08        -2.0830   11.5550   28.9190 O.co2     1 D0W        -0.5688
     31 O09        -1.1110   10.4010   27.3300 O.co2     1 D0W        -0.5688
     32 O11         1.1380   14.9810   26.9560 O.2       1 D0W        -0.3944
     33 O22         2.0420   16.2180   20.0850 O.2       1 D0W        -0.3442
     34 O32        -4.6440   20.7900   18.6940 O.3       1 D0W        -0.3376
     35 O34         1.4810   18.2790   17.6150 O.co2     1 D0W        -0.5664
     36 O35         1.7780   16.5070   16.3610 O.co2     1 D0W        -0.5664
     37 O37        -0.7110   16.3140   24.5580 O.co2     1 D0W        -0.5687
     38 O38        -1.0950   14.9470   22.9370 O.co2     1 D0W        -0.5687
     39 H1          1.6751   13.1416   24.4258 H         1 D0W         0.1853
     40 H2          3.1266   15.1249   24.0230 H         1 D0W         0.0541
     41 H3          2.0465   16.0259   25.1403 H         1 D0W         0.0541
     42 H4          2.7370   17.0071   22.5424 H         1 D0W         0.0278
     43 H5          1.5257   17.7164   23.6633 H         1 D0W         0.0278
     44 H6          2.1362   19.0346   20.2400 H         1 D0W         0.0257
     45 H7          2.5641   19.2146   21.9753 H         1 D0W         0.0257
     46 H8         -0.5021   18.0752   23.0113 H         1 D0W         0.0257
     47 H9         -1.0796   17.3650   21.4657 H         1 D0W         0.0257
     48 H10         0.3550   15.2971   18.1937 H         1 D0W         0.0749
     49 H11        -4.6160   18.4213   19.7892 H         1 D0W         0.0525
     50 H12         4.5963   12.1222   29.5896 H         1 D0W         0.0467
     51 H13         3.0916   11.4650   30.3179 H         1 D0W         0.0467
     52 H14         3.3715   13.2389   30.2819 H         1 D0W         0.0467
     53 H15         0.9432   11.8158   26.4234 H         1 D0W         0.0819
     54 H16        -1.2985   12.9865   26.3328 H         1 D0W         0.0478
     55 H17        -0.9896   13.6142   27.9872 H         1 D0W         0.0478
     56 H18         1.3572   14.9633   22.3420 H         1 D0W         0.0484
     57 H19         0.7945   20.9558   20.6140 H         1 D0W         0.0264
     58 H20         0.7612   20.6982   22.3914 H         1 D0W         0.0264
     59 H21        -1.3401   20.1474   21.8816 H         1 D0W         0.0264
     60 H22        -0.9007   19.5482   20.2462 H         1 D0W         0.0264
     61 H23        -1.7932   15.5111   17.4844 H         1 D0W         0.0446
     62 H24        -0.9948   16.5076   16.2210 H         1 D0W         0.0446
     63 H25        -3.1564   16.5281   19.1824 H         1 D0W         0.0530
     64 H26        -2.7714   20.8376   16.7729 H         1 D0W         0.0525
     65 H27        -1.2765   18.9430   16.1953 H         1 D0W         0.0530
     66 H28         0.8703   12.6934   29.1682 H         1 D0W         0.1884
     67 H29        -0.7865   17.5673   19.5777 H         1 D0W         0.1882
     68 H30        -4.1287   21.5343   18.9822 H         1 D0W         0.2458
@<TRIPOS>BOND
     1    1    2 am 
     2   13    1 1  
     3    1   32 2  
     4    2    3 1  
     5    3   16 1  
     6   16    4 1  
     7    4   17 1  
     8   17    5 1  
     9    5   18 1  
    10   17    6 1  
    11    6   19 1  
    12   17    7 1  
    13    7   28 am 
    14    7   33 2  
    15    8   20 1  
    16    8   25 1  
    17   28    8 1  
    18   20    9 1  
    19    9   21 ar 
    20    9   24 ar 
    21   21   10 ar 
    22   10   22 ar 
    23   12   11 1  
    24   27   12 am 
    25   12   29 2  
    26   13   14 1  
    27   13   27 1  
    28   14   15 1  
    29   15   30 ar 
    30   15   31 ar 
    31   16   26 1  
    32   18   19 1  
    33   22   23 ar 
    34   22   34 1  
    35   23   24 ar 
    36   25   35 ar 
    37   25   36 ar 
    38   26   37 ar 
    39   26   38 ar 
    40    2   39 1  
    41    3   40 1  
    42    3   41 1  
    43    4   42 1  
    44    4   43 1  
    45    5   44 1  
    46    5   45 1  
    47    6   46 1  
    48    6   47 1  
    49    8   48 1  
    50   10   49 1  
    51   11   50 1  
    52   11   51 1  
    53   11   52 1  
    54   13   53 1  
    55   14   54 1  
    56   14   55 1  
    57   16   56 1  
    58   18   57 1  
    59   18   58 1  
    60   19   59 1  
    61   19   60 1  
    62   20   61 1  
    63   20   62 1  
    64   21   63 1  
    65   23   64 1  
    66   24   65 1  
    67   27   66 1  
    68   28   67 1  
    69   34   68 1  
@<TRIPOS>SUBSTRUCTURE
     1 D0W         1

