### 
### Created by X-TOOL on Wed Jan  1 15:39:35 2020
### 

@<TRIPOS>MOLECULE
6f9t_ligand
   79    80     1     0     0
SMALL
GAST_HUCK


@<TRIPOS>ATOM
      1 C01       -13.2550   -5.8660   12.1430 C.3       1 D0Z         0.0734
      2 C06       -14.3780   -3.9260   14.9590 C.3       1 D0Z         0.1259
      3 C07       -15.4360   -3.1270   15.7400 C.3       1 D0Z        -0.0158
      4 C08       -15.6260   -1.6590   15.2820 C.3       1 D0Z        -0.0444
      5 C09       -14.3840   -0.8110   15.5630 C.3       1 D0Z        -0.0124
      6 C10       -14.7050    0.6570   15.2610 C.3       1 D0Z        -0.0354
      7 C12       -14.5780   -5.3820   15.4090 C.2       1 D0Z         0.1979
      8 C15       -13.8470   -7.2170   16.9760 C.3       1 D0Z         0.0450
      9 C16       -13.9210   -7.1470   18.5250 C.3       1 D0Z         0.0315
     10 C17       -14.2280   -8.5730   19.0370 C.3       1 D0Z        -0.0244
     11 C18       -14.4840   -8.7600   20.5500 C.3       1 D0Z         0.0532
     12 C19       -14.8190  -10.3790   20.8340 C.3       1 D0Z        -0.0406
     13 C20       -16.1650  -10.4050   21.2130 C.3       1 D0Z        -0.0536
     14 C21       -16.4360   -9.0410   21.9790 C.3       1 D0Z        -0.0536
     15 C22       -15.5950   -8.0520   21.0420 C.3       1 D0Z        -0.0406
     16 C23       -13.1780   -8.5170   21.2780 C.2       1 D0Z         0.2037
     17 C26       -12.2270   -8.0610   23.5720 C.3       1 D0Z         0.1026
     18 C27       -12.6340   -7.2180   24.7800 C.3       1 D0Z         0.0110
     19 C28       -13.9950   -7.5620   25.3760 C.ar      1 D0Z        -0.0499
     20 C29       -15.0950   -6.8380   24.9370 C.ar      1 D0Z        -0.0686
     21 C30       -16.3400   -7.1190   25.4620 C.ar      1 D0Z        -0.0398
     22 C31       -16.4530   -8.0810   26.4400 C.ar      1 D0Z         0.0805
     23 C32       -15.3550   -8.7920   26.8970 C.ar      1 D0Z        -0.0398
     24 C33       -14.1090   -8.5150   26.3630 C.ar      1 D0Z        -0.0686
     25 C35       -11.7460   -9.4350   24.0010 C.2       1 D0Z         0.0620
     26 C38       -14.9530   -6.1280   18.9250 C.2       1 D0Z         0.0396
     27 N05       -14.6400   -3.8450   13.5520 N.am      1 D0Z        -0.2301
     28 N11       -13.5190    1.3990   14.8770 N.4       1 D0Z         0.2185
     29 N14       -13.7010   -5.8670   16.4550 N.am      1 D0Z        -0.2835
     30 N25       -13.3670   -8.2250   22.6720 N.am      1 D0Z        -0.2687
     31 O03       -12.1720   -3.5320   13.0700 O.2       1 D0Z        -0.1556
     32 O04       -13.7200   -3.4180   11.2330 O.2       1 D0Z        -0.1556
     33 O13       -15.3980   -6.0700   14.9250 O.2       1 D0Z        -0.3950
     34 O24       -12.0750   -8.6270   20.7600 O.2       1 D0Z        -0.3442
     35 O34       -17.7180   -8.3470   26.9730 O.3       1 D0Z        -0.3376
     36 O36       -10.6810   -9.5120   24.6980 O.co2     1 D0Z        -0.5664
     37 O37       -12.3940  -10.4790   23.6750 O.co2     1 D0Z        -0.5664
     38 O39       -14.6400   -5.1860   19.7060 O.co2     1 D0Z        -0.5687
     39 O40       -16.1470   -6.2250   18.4690 O.co2     1 D0Z        -0.5687
     40 S02       -13.3680   -4.0960   12.4790 S.o2      1 D0Z         0.0384
     41 H1        -12.4283   -6.0541   11.4422 H         1 D0Z         0.0482
     42 H2        -14.1987   -6.2160   11.6992 H         1 D0Z         0.0482
     43 H3        -13.0691   -6.4065   13.0828 H         1 D0Z         0.0482
     44 H4        -13.3621   -3.5687   15.1832 H         1 D0Z         0.0753
     45 H5        -15.1411   -3.1172   16.7997 H         1 D0Z         0.0308
     46 H6        -16.4008   -3.6444   15.6326 H         1 D0Z         0.0308
     47 H7        -16.4820   -1.2260   15.8203 H         1 D0Z         0.0269
     48 H8        -15.8284   -1.6466   14.2009 H         1 D0Z         0.0269
     49 H9        -13.5552   -1.1468   14.9225 H         1 D0Z         0.0317
     50 H10       -14.0967   -0.9161   16.6196 H         1 D0Z         0.0317
     51 H11       -15.1386    1.1191   16.1601 H         1 D0Z         0.0813
     52 H12       -15.4341    0.7003   14.4385 H         1 D0Z         0.0813
     53 H13       -14.7692   -7.6684   16.5813 H         1 D0Z         0.0541
     54 H14       -12.9822   -7.8259   16.6738 H         1 D0Z         0.0541
     55 H15       -12.9474   -6.8299   18.9270 H         1 D0Z         0.0484
     56 H16       -13.3712   -9.2086   18.7690 H         1 D0Z         0.0278
     57 H17       -15.1255   -8.9249   18.5072 H         1 D0Z         0.0278
     58 H18       -14.1819  -10.7707   21.6406 H         1 D0Z         0.0257
     59 H19       -14.6620  -10.9729   19.9215 H         1 D0Z         0.0257
     60 H20       -16.3576  -11.2602   21.8775 H         1 D0Z         0.0264
     61 H21       -16.8099  -10.4781   20.3249 H         1 D0Z         0.0264
     62 H22       -16.0482   -9.0624   23.0082 H         1 D0Z         0.0264
     63 H23       -17.5052   -8.7831   21.9953 H         1 D0Z         0.0264
     64 H24       -16.2203   -7.7095   20.2044 H         1 D0Z         0.0257
     65 H25       -15.2557   -7.1834   21.6254 H         1 D0Z         0.0257
     66 H26       -11.4142   -7.5465   23.0386 H         1 D0Z         0.0749
     67 H27       -12.6544   -6.1631   24.4689 H         1 D0Z         0.0446
     68 H28       -11.8740   -7.3547   25.5633 H         1 D0Z         0.0446
     69 H29       -14.9775   -6.0609   24.1904 H         1 D0Z         0.0530
     70 H30       -17.2173   -6.5892   25.1089 H         1 D0Z         0.0525
     71 H31       -15.4703   -9.5529   27.6605 H         1 D0Z         0.0525
     72 H32       -13.2314   -9.0430   26.7182 H         1 D0Z         0.0530
     73 H33       -15.5597   -3.6435   13.2150 H         1 D0Z         0.1702
     74 H34       -13.7689    2.3569   14.6869 H         1 D0Z         0.1994
     75 H35       -13.1174    0.9860   14.0498 H         1 D0Z         0.1994
     76 H36       -12.8467    1.3698   15.6275 H         1 D0Z         0.1994
     77 H37       -12.9890   -5.2684   16.8220 H         1 D0Z         0.1852
     78 H38       -14.2950   -8.1323   23.0329 H         1 D0Z         0.1882
     79 H39       -18.3598   -7.7816   26.5596 H         1 D0Z         0.2458
@<TRIPOS>BOND
     1   40    1 1  
     2    2    3 1  
     3    2    7 1  
     4   27    2 1  
     5    3    4 1  
     6    4    5 1  
     7    5    6 1  
     8    6   28 1  
     9    7   29 am 
    10    7   33 2  
    11    8    9 1  
    12   29    8 1  
    13    9   10 1  
    14    9   26 1  
    15   10   11 1  
    16   11   12 1  
    17   11   15 1  
    18   11   16 1  
    19   12   13 1  
    20   14   13 1  
    21   15   14 1  
    22   16   30 am 
    23   16   34 2  
    24   17   18 1  
    25   17   25 1  
    26   30   17 1  
    27   18   19 1  
    28   19   20 ar 
    29   19   24 ar 
    30   20   21 ar 
    31   21   22 ar 
    32   23   22 ar 
    33   22   35 1  
    34   24   23 ar 
    35   25   36 ar 
    36   25   37 ar 
    37   26   38 ar 
    38   26   39 ar 
    39   27   40 am 
    40   40   31 2  
    41   40   32 2  
    42    1   41 1  
    43    1   42 1  
    44    1   43 1  
    45    2   44 1  
    46    3   45 1  
    47    3   46 1  
    48    4   47 1  
    49    4   48 1  
    50    5   49 1  
    51    5   50 1  
    52    6   51 1  
    53    6   52 1  
    54    8   53 1  
    55    8   54 1  
    56    9   55 1  
    57   10   56 1  
    58   10   57 1  
    59   12   58 1  
    60   12   59 1  
    61   13   60 1  
    62   13   61 1  
    63   14   62 1  
    64   14   63 1  
    65   15   64 1  
    66   15   65 1  
    67   17   66 1  
    68   18   67 1  
    69   18   68 1  
    70   20   69 1  
    71   21   70 1  
    72   23   71 1  
    73   24   72 1  
    74   27   73 1  
    75   28   74 1  
    76   28   75 1  
    77   28   76 1  
    78   29   77 1  
    79   30   78 1  
    80   35   79 1  
@<TRIPOS>SUBSTRUCTURE
     1 D0Z         1

