### 
### Created by X-TOOL on Wed Jan  1 15:39:35 2020
### 

@<TRIPOS>MOLECULE
6f9u_ligand
   68    69     1     0     0
SMALL
GAST_HUCK


@<TRIPOS>ATOM
      1 C10       -13.7850   -5.4290   15.9570 C.2       1 D0W         0.2035
      2 N12       -12.8210   -5.9820   16.9240 N.am      1 D0W        -0.2831
      3 C13       -12.9780   -7.3500   17.4460 C.3       1 D0W         0.0451
      4 C15       -13.7960   -8.7450   19.3850 C.3       1 D0W        -0.0244
      5 C17       -14.4320  -10.4590   21.1550 C.3       1 D0W        -0.0406
      6 C20       -15.2210   -8.2330   21.3150 C.3       1 D0W        -0.0406
      7 C21       -12.8260   -8.6210   21.7560 C.2       1 D0W         0.2037
      8 C24       -11.9260   -7.9360   23.9970 C.3       1 D0W         0.1026
      9 C26       -13.7690   -7.5020   25.7270 C.ar      1 D0W        -0.0499
     10 C28       -15.2960   -8.8860   26.9520 C.ar      1 D0W        -0.0398
     11 C01       -12.3210   -1.8840   13.6190 C.3       1 D0W         0.0258
     12 C02       -13.3830   -2.8740   13.1290 C.2       1 D0W         0.1752
     13 C05       -13.6730   -3.9980   15.4050 C.3       1 D0W         0.1421
     14 C06       -14.7220   -3.1430   16.1140 C.3       1 D0W         0.0406
     15 C07       -14.4130   -1.6500   16.0270 C.2       1 D0W         0.0393
     16 C14       -13.2560   -7.3690   18.9500 C.3       1 D0W         0.0315
     17 C16       -14.0780   -8.9020   20.8870 C.3       1 D0W         0.0532
     18 C18       -15.5660  -10.4940   22.2660 C.3       1 D0W        -0.0536
     19 C19       -15.9580   -9.1790   22.4960 C.3       1 D0W        -0.0536
     20 C25       -12.3560   -7.1760   25.2470 C.3       1 D0W         0.0110
     21 C27       -14.0090   -8.6110   26.5190 C.ar      1 D0W        -0.0686
     22 C29       -16.3410   -8.0430   26.5910 C.ar      1 D0W         0.0805
     23 C30       -16.0960   -6.9310   25.8020 C.ar      1 D0W        -0.0398
     24 C31       -14.8060   -6.6550   25.3690 C.ar      1 D0W        -0.0686
     25 C33       -11.4130   -9.3260   24.4330 C.2       1 D0W         0.0620
     26 C36       -14.2890   -6.2950   19.2490 C.2       1 D0W         0.0396
     27 N04       -13.9970   -3.8840   13.9920 N.am      1 D0W        -0.2643
     28 N23       -13.0450   -8.1600   23.1040 N.am      1 D0W        -0.2687
     29 O03       -13.6990   -2.8240   11.9880 O.2       1 D0W        -0.3972
     30 O08       -15.0050   -0.9340   15.1710 O.co2     1 D0W        -0.5688
     31 O09       -13.5500   -1.1460   16.7980 O.co2     1 D0W        -0.5688
     32 O11       -14.7120   -6.0760   15.6170 O.2       1 D0W        -0.3944
     33 O22       -11.7060   -8.8130   21.3660 O.2       1 D0W        -0.3442
     34 O32       -17.6520   -8.3030   27.0200 O.3       1 D0W        -0.3376
     35 O34       -12.1560  -10.3300   24.2640 O.co2     1 D0W        -0.5664
     36 O35       -10.2660   -9.5110   24.9440 O.co2     1 D0W        -0.5664
     37 O37       -13.9820   -5.3610   20.0460 O.co2     1 D0W        -0.5687
     38 O38       -15.4270   -6.3620   18.6990 O.co2     1 D0W        -0.5687
     39 H1        -12.0510   -5.4219   17.2295 H         1 D0W         0.1853
     40 H2        -12.0527   -7.9117   17.2502 H         1 D0W         0.0541
     41 H3        -13.8176   -7.8333   16.9250 H         1 D0W         0.0541
     42 H4        -13.0548   -9.5056   19.0984 H         1 D0W         0.0278
     43 H5        -14.7360   -8.9265   18.8433 H         1 D0W         0.0278
     44 H6        -13.5387  -10.9936   21.5104 H         1 D0W         0.0257
     45 H7        -14.7960  -10.9282   20.2291 H         1 D0W         0.0257
     46 H8        -15.9087   -8.0877   20.4688 H         1 D0W         0.0257
     47 H9        -14.9464   -7.2548   21.7365 H         1 D0W         0.0257
     48 H10       -11.1352   -7.3768   23.4756 H         1 D0W         0.0749
     49 H11       -15.4876   -9.7556   27.5702 H         1 D0W         0.0525
     50 H12       -12.0177   -1.2305   12.7878 H         1 D0W         0.0467
     51 H13       -11.4454   -2.4383   13.9879 H         1 D0W         0.0467
     52 H14       -12.7375   -1.2725   14.4330 H         1 D0W         0.0467
     53 H15       -12.6581   -3.6155   15.5884 H         1 D0W         0.0819
     54 H16       -14.7578   -3.4349   17.1739 H         1 D0W         0.0478
     55 H17       -15.7016   -3.3285   15.6492 H         1 D0W         0.0478
     56 H18       -12.3273   -7.1545   19.4990 H         1 D0W         0.0484
     57 H19       -15.1722  -10.9373   23.1925 H         1 D0W         0.0264
     58 H20       -16.4227  -11.0860   21.9115 H         1 D0W         0.0264
     59 H21       -17.0520   -9.0923   22.4213 H         1 D0W         0.0264
     60 H22       -15.6320   -8.8569   23.4960 H         1 D0W         0.0264
     61 H23       -12.3063   -6.0989   25.0293 H         1 D0W         0.0446
     62 H24       -11.6526   -7.4193   26.0569 H         1 D0W         0.0446
     63 H25       -13.1908   -9.2640   26.8004 H         1 D0W         0.0530
     64 H26       -16.9127   -6.2754   25.5222 H         1 D0W         0.0525
     65 H27       -14.6112   -5.7830   24.7551 H         1 D0W         0.0530
     66 H28       -14.6621   -4.5174   13.5964 H         1 D0W         0.1884
     67 H29       -13.9771   -7.9933   23.4257 H         1 D0W         0.1882
     68 H30       -17.6605   -9.0927   27.5480 H         1 D0W         0.2458
@<TRIPOS>BOND
     1    1    2 am 
     2   13    1 1  
     3    1   32 2  
     4    2    3 1  
     5    3   16 1  
     6   16    4 1  
     7    4   17 1  
     8   17    5 1  
     9    5   18 1  
    10   17    6 1  
    11    6   19 1  
    12   17    7 1  
    13    7   28 am 
    14    7   33 2  
    15    8   20 1  
    16    8   25 1  
    17   28    8 1  
    18   20    9 1  
    19    9   21 ar 
    20    9   24 ar 
    21   21   10 ar 
    22   10   22 ar 
    23   12   11 1  
    24   27   12 am 
    25   12   29 2  
    26   13   14 1  
    27   13   27 1  
    28   14   15 1  
    29   15   30 ar 
    30   15   31 ar 
    31   16   26 1  
    32   18   19 1  
    33   22   23 ar 
    34   22   34 1  
    35   23   24 ar 
    36   25   35 ar 
    37   25   36 ar 
    38   26   37 ar 
    39   26   38 ar 
    40    2   39 1  
    41    3   40 1  
    42    3   41 1  
    43    4   42 1  
    44    4   43 1  
    45    5   44 1  
    46    5   45 1  
    47    6   46 1  
    48    6   47 1  
    49    8   48 1  
    50   10   49 1  
    51   11   50 1  
    52   11   51 1  
    53   11   52 1  
    54   13   53 1  
    55   14   54 1  
    56   14   55 1  
    57   16   56 1  
    58   18   57 1  
    59   18   58 1  
    60   19   59 1  
    61   19   60 1  
    62   20   61 1  
    63   20   62 1  
    64   21   63 1  
    65   23   64 1  
    66   24   65 1  
    67   27   66 1  
    68   28   67 1  
    69   34   68 1  
@<TRIPOS>SUBSTRUCTURE
     1 D0W         1

