### 
### Created by X-TOOL on Wed Jan  1 15:39:36 2020
### 

@<TRIPOS>MOLECULE
6f9v_ligand
   79    80     1     0     0
SMALL
GAST_HUCK


@<TRIPOS>ATOM
      1 C01        -7.9060  -17.0090  -23.0530 C.3       1 D0Z         0.0734
      2 C06        -5.1140  -18.4170  -23.1490 C.3       1 D0Z         0.1259
      3 C07        -4.5480  -19.6230  -22.3880 C.3       1 D0Z        -0.0158
      4 C08        -5.7430  -20.2630  -21.6430 C.3       1 D0Z        -0.0444
      5 C09        -5.2890  -20.9590  -20.3830 C.3       1 D0Z        -0.0124
      6 C10        -6.4540  -21.4800  -19.5660 C.3       1 D0Z        -0.0354
      7 C12        -4.0310  -17.7300  -23.9720 C.2       1 D0Z         0.1979
      8 C15        -2.3150  -15.8900  -24.1510 C.3       1 D0Z         0.0450
      9 C16        -1.0630  -15.8330  -23.2700 C.3       1 D0Z         0.0315
     10 C17         0.0720  -15.3370  -24.1940 C.3       1 D0Z        -0.0244
     11 C18         1.4460  -15.2150  -23.4980 C.3       1 D0Z         0.0532
     12 C19         2.4640  -14.4180  -24.5730 C.3       1 D0Z        -0.0406
     13 C20         3.3920  -15.3750  -24.9880 C.3       1 D0Z        -0.0536
     14 C21         3.5580  -16.3440  -23.7180 C.3       1 D0Z        -0.0536
     15 C22         2.0380  -16.4820  -23.2190 C.3       1 D0Z        -0.0406
     16 C23         1.3760  -14.2200  -22.3300 C.2       1 D0Z         0.2037
     17 C26         2.5260  -13.4610  -20.1990 C.3       1 D0Z         0.1026
     18 C27         3.4950  -13.9790  -19.1110 C.3       1 D0Z         0.0110
     19 C28         4.5750  -14.9580  -19.5970 C.ar      1 D0Z        -0.0499
     20 C29         5.7980  -14.4940  -20.0220 C.ar      1 D0Z        -0.0686
     21 C30         6.7530  -15.4330  -20.4110 C.ar      1 D0Z        -0.0398
     22 C31         6.4600  -16.7870  -20.3610 C.ar      1 D0Z         0.0805
     23 C32         5.2360  -17.2370  -19.9140 C.ar      1 D0Z        -0.0398
     24 C33         4.2740  -16.3050  -19.5300 C.ar      1 D0Z        -0.0686
     25 C35         3.1820  -12.2490  -20.8520 C.2       1 D0Z         0.0620
     26 C38        -0.7750  -17.2110  -22.6960 C.2       1 D0Z         0.0396
     27 N05        -6.0830  -18.9630  -24.0750 N.am      1 D0Z        -0.2301
     28 N11        -6.6490  -20.6200  -18.4100 N.4       1 D0Z         0.2185
     29 N14        -3.3620  -16.5690  -23.4050 N.am      1 D0Z        -0.2835
     30 N25         2.3510  -14.4140  -21.2860 N.am      1 D0Z        -0.2687
     31 O03        -6.9530  -17.0950  -25.5670 O.2       1 D0Z        -0.1556
     32 O04        -8.4020  -18.8320  -25.0630 O.2       1 D0Z        -0.1556
     33 O13        -3.7200  -18.1620  -25.0320 O.2       1 D0Z        -0.3950
     34 O24         0.6590  -13.2470  -22.2650 O.2       1 D0Z        -0.3442
     35 O34         7.4460  -17.7290  -20.7570 O.3       1 D0Z        -0.3376
     36 O36         3.1030  -11.1320  -20.2790 O.co2     1 D0Z        -0.5664
     37 O37         3.8170  -12.3440  -21.9870 O.co2     1 D0Z        -0.5664
     38 O39        -0.6790  -17.3970  -21.4590 O.co2     1 D0Z        -0.5687
     39 O40        -0.5520  -18.1920  -23.4410 O.co2     1 D0Z        -0.5687
     40 S02        -7.3990  -17.9310  -24.4680 S.o2      1 D0Z         0.0384
     41 H1         -8.7481  -16.3551  -23.3239 H         1 D0Z         0.0482
     42 H2         -7.0661  -16.3957  -22.6947 H         1 D0Z         0.0482
     43 H3         -8.2202  -17.7010  -22.2577 H         1 D0Z         0.0482
     44 H4         -5.5788  -17.7015  -22.4548 H         1 D0Z         0.0753
     45 H5         -3.7821  -19.2953  -21.6696 H         1 D0Z         0.0308
     46 H6         -4.1064  -20.3445  -23.0911 H         1 D0Z         0.0308
     47 H7         -6.2270  -20.9969  -22.3041 H         1 D0Z         0.0269
     48 H8         -6.4645  -19.4759  -21.3784 H         1 D0Z         0.0269
     49 H9         -4.7175  -20.2460  -19.7706 H         1 D0Z         0.0317
     50 H10        -4.6431  -21.8055  -20.6589 H         1 D0Z         0.0317
     51 H11        -6.2386  -22.5050  -19.2299 H         1 D0Z         0.0813
     52 H12        -7.3650  -21.4800  -20.1825 H         1 D0Z         0.0813
     53 H13        -2.0957  -16.4451  -25.0750 H         1 D0Z         0.0541
     54 H14        -2.6394  -14.8699  -24.4043 H         1 D0Z         0.0541
     55 H15        -1.2089  -15.1229  -22.4427 H         1 D0Z         0.0484
     56 H16        -0.2072  -14.3465  -24.5826 H         1 D0Z         0.0278
     57 H17         0.1704  -16.0447  -25.0304 H         1 D0Z         0.0278
     58 H18         2.9728  -13.5813  -24.0720 H         1 D0Z         0.0257
     59 H19         1.8931  -14.0380  -25.4330 H         1 D0Z         0.0257
     60 H20         4.3512  -14.9019  -25.2450 H         1 D0Z         0.0264
     61 H21         3.0139  -15.9332  -25.8571 H         1 D0Z         0.0264
     62 H22         4.1946  -15.8882  -22.9454 H         1 D0Z         0.0264
     63 H23         3.9755  -17.3193  -24.0087 H         1 D0Z         0.0264
     64 H24         1.5205  -17.2812  -23.7699 H         1 D0Z         0.0257
     65 H25         2.0023  -16.6973  -22.1409 H         1 D0Z         0.0257
     66 H26         1.5556  -13.2043  -19.7492 H         1 D0Z         0.0749
     67 H27         2.8979  -14.4888  -18.3406 H         1 D0Z         0.0446
     68 H28         4.0014  -13.1094  -18.6667 H         1 D0Z         0.0446
     69 H29         6.0129  -13.4320  -20.0536 H         1 D0Z         0.0530
     70 H30         7.7272  -15.1031  -20.7534 H         1 D0Z         0.0525
     71 H31         5.0253  -18.2991  -19.8621 H         1 D0Z         0.0525
     72 H32         3.3008  -16.6328  -19.1828 H         1 D0Z         0.0530
     73 H33        -5.9924  -19.8811  -24.4609 H         1 D0Z         0.1702
     74 H34        -7.4233  -20.9627  -17.8631 H         1 D0Z         0.1994
     75 H35        -6.8456  -19.6809  -18.7191 H         1 D0Z         0.1994
     76 H36        -5.8134  -20.6202  -17.8463 H         1 D0Z         0.1994
     77 H37        -3.6233  -16.2368  -22.4987 H         1 D0Z         0.1852
     78 H38         2.9270  -15.2311  -21.3091 H         1 D0Z         0.1882
     79 H39         7.1111  -18.2534  -21.4749 H         1 D0Z         0.2458
@<TRIPOS>BOND
     1   40    1 1  
     2    2    3 1  
     3    2    7 1  
     4   27    2 1  
     5    3    4 1  
     6    4    5 1  
     7    5    6 1  
     8    6   28 1  
     9    7   29 am 
    10    7   33 2  
    11    8    9 1  
    12   29    8 1  
    13    9   10 1  
    14    9   26 1  
    15   10   11 1  
    16   11   12 1  
    17   11   15 1  
    18   11   16 1  
    19   12   13 1  
    20   14   13 1  
    21   15   14 1  
    22   16   30 am 
    23   16   34 2  
    24   17   18 1  
    25   17   25 1  
    26   30   17 1  
    27   18   19 1  
    28   19   20 ar 
    29   19   24 ar 
    30   20   21 ar 
    31   21   22 ar 
    32   23   22 ar 
    33   22   35 1  
    34   24   23 ar 
    35   25   36 ar 
    36   25   37 ar 
    37   26   38 ar 
    38   26   39 ar 
    39   27   40 am 
    40   40   31 2  
    41   40   32 2  
    42    1   41 1  
    43    1   42 1  
    44    1   43 1  
    45    2   44 1  
    46    3   45 1  
    47    3   46 1  
    48    4   47 1  
    49    4   48 1  
    50    5   49 1  
    51    5   50 1  
    52    6   51 1  
    53    6   52 1  
    54    8   53 1  
    55    8   54 1  
    56    9   55 1  
    57   10   56 1  
    58   10   57 1  
    59   12   58 1  
    60   12   59 1  
    61   13   60 1  
    62   13   61 1  
    63   14   62 1  
    64   14   63 1  
    65   15   64 1  
    66   15   65 1  
    67   17   66 1  
    68   18   67 1  
    69   18   68 1  
    70   20   69 1  
    71   21   70 1  
    72   23   71 1  
    73   24   72 1  
    74   27   73 1  
    75   28   74 1  
    76   28   75 1  
    77   28   76 1  
    78   29   77 1  
    79   30   78 1  
    80   35   79 1  
@<TRIPOS>SUBSTRUCTURE
     1 D0Z         1

