### 
### Created by X-TOOL on Wed Jan  1 15:39:37 2020
### 

@<TRIPOS>MOLECULE
6fa2_ligand
   64    67     1     0     0
SMALL
GAST_HUCK


@<TRIPOS>ATOM
      1 O14        78.1550   98.6130   17.5220 O.2       1 D2W        -0.3898
      2 C13        77.6030   97.5970   17.8650 C.2       1 D2W         0.1969
      3 C15        78.3010   96.3020   17.6380 C.ar      1 D2W         0.0385
      4 C28        79.3210   95.9190   18.4950 C.ar      1 D2W        -0.0504
      5 C27        79.9650   94.7090   18.2710 C.ar      1 D2W        -0.0269
      6 C26        79.6040   93.8970   17.1940 C.ar      1 D2W         0.0968
      7 O29        80.1510   92.6790   16.9550 O.3       1 D2W        -0.3092
      8 C30        79.2610   91.6000   17.3140 C.3       1 D2W         0.1113
      9 C31        79.8780   90.4480   18.0950 C.3       1 D2W        -0.0037
     10 N32        81.2770   90.6810   18.5140 N.4       1 D2W         0.2328
     11 C34        81.3400   91.7020   19.5840 C.3       1 D2W        -0.0433
     12 C33        82.2240   90.9440   17.3960 C.3       1 D2W        -0.0433
     13 C25        78.5770   94.2810   16.3510 C.ar      1 D2W        -0.0269
     14 C24        77.9410   95.4910   16.5660 C.ar      1 D2W        -0.0504
     15 N12        76.4580   97.6620   18.4040 N.am      1 D2W        -0.2848
     16 C11        75.4790   96.7100   18.9270 C.3       1 D2W         0.0632
     17 C9         74.2530   96.6130   17.9700 C.3       1 D2W         0.1271
     18 C8         74.5760   96.2940   16.5040 C.3       1 D2W         0.1001
     19 O7         73.3530   95.9050   15.8480 O.3       1 D2W        -0.3182
     20 C6         72.2480   96.6790   16.0570 C.ar      1 D2W         0.1237
     21 C3         71.1160   96.4990   15.2880 C.ar      1 D2W        -0.0390
     22 C2         70.0220   97.3190   15.5230 C.ar      1 D2W        -0.0788
     23 O10        73.4320   97.7780   17.8180 O.3       1 D2W        -0.3097
     24 C5         72.2940   97.6530   17.0550 C.ar      1 D2W         0.1342
     25 C4         71.2160   98.4820   17.2890 C.ar      1 D2W         0.0184
     26 C1         70.0730   98.3010   16.5210 C.ar      1 D2W        -0.0698
     27 C16        71.2810   99.5070   18.3720 C.ar      1 D2W         0.0335
     28 N21        71.7920   99.0960   19.5930 N.ar      1 D2W        -0.2741
     29 C20        71.9000   99.9470   20.6570 C.ar      1 D2W         0.1600
     30 O22        72.4500   99.4140   21.8120 O.3       1 D2W        -0.3028
     31 C23        73.2830  100.1740   22.7060 C.3       1 D2W         0.0631
     32 C19        71.4430  101.2950   20.5170 C.ar      1 D2W        -0.0073
     33 C18        70.8960  101.7330   19.2840 C.ar      1 D2W        -0.0532
     34 C17        70.8180  100.8360   18.1900 C.ar      1 D2W        -0.0423
     35 H1         79.6109   96.5527   19.3253 H         1 D2W         0.0642
     36 H2         80.7568   94.3914   18.9398 H         1 D2W         0.0556
     37 H3         78.8418   91.1879   16.3842 H         1 D2W         0.0670
     38 H4         78.4506   92.0234   17.9256 H         1 D2W         0.0670
     39 H5         79.8527   89.5490   17.4617 H         1 D2W         0.0841
     40 H6         79.2714   90.2784   18.9968 H         1 D2W         0.0841
     41 H7         81.5879   89.8175   18.9309 H         1 D2W         0.2029
     42 H8         82.3878   91.8591   19.8797 H         1 D2W         0.0777
     43 H9         80.7613   91.3578   20.4538 H         1 D2W         0.0777
     44 H10        80.9178   92.6478   19.2136 H         1 D2W         0.0777
     45 H11        82.1264   90.1520   16.6389 H         1 D2W         0.0777
     46 H12        83.2536   90.9566   17.7829 H         1 D2W         0.0777
     47 H13        81.9917   91.9177   16.9400 H         1 D2W         0.0777
     48 H14        78.2735   93.6409   15.5305 H         1 D2W         0.0556
     49 H15        77.1541   95.8105   15.8923 H         1 D2W         0.0642
     50 H16        76.1431   98.6068   18.4951 H         1 D2W         0.1842
     51 H17        75.1398   97.0460   19.9180 H         1 D2W         0.0549
     52 H18        75.9485   95.7193   19.0166 H         1 D2W         0.0549
     53 H19        73.6288   95.8035   18.3763 H         1 D2W         0.0696
     54 H20        75.3037   95.4707   16.4536 H         1 D2W         0.0640
     55 H21        74.9951   97.1845   16.0127 H         1 D2W         0.0640
     56 H22        71.0827   95.7355   14.5192 H         1 D2W         0.0527
     57 H23        69.1220   97.1992   14.9307 H         1 D2W         0.0504
     58 H24        69.2071   98.9291   16.6964 H         1 D2W         0.0517
     59 H25        73.5963   99.5367   23.5460 H         1 D2W         0.0583
     60 H26        72.7176  101.0357   23.0905 H         1 D2W         0.0583
     61 H27        74.1719  100.5305   22.1649 H         1 D2W         0.0583
     62 H28        71.5147  101.9815   21.3528 H         1 D2W         0.0617
     63 H29        70.5387  102.7510   19.1789 H         1 D2W         0.0697
     64 H30        70.4143  101.1573   17.2367 H         1 D2W         0.0603
@<TRIPOS>BOND
     1    1    2 2  
     2    2    3 1  
     3    2   15 am 
     4    3    4 ar 
     5    3   14 ar 
     6    4    5 ar 
     7    5    6 ar 
     8    6    7 1  
     9    6   13 ar 
    10    7    8 1  
    11    8    9 1  
    12    9   10 1  
    13   10   11 1  
    14   10   12 1  
    15   13   14 ar 
    16   15   16 1  
    17   16   17 1  
    18   17   18 1  
    19   17   23 1  
    20   18   19 1  
    21   19   20 1  
    22   20   21 ar 
    23   20   24 ar 
    24   21   22 ar 
    25   22   26 ar 
    26   23   24 1  
    27   24   25 ar 
    28   25   26 ar 
    29   25   27 1  
    30   27   28 ar 
    31   27   34 ar 
    32   28   29 ar 
    33   29   30 1  
    34   29   32 ar 
    35   30   31 1  
    36   32   33 ar 
    37   33   34 ar 
    38    4   35 1  
    39    5   36 1  
    40    8   37 1  
    41    8   38 1  
    42    9   39 1  
    43    9   40 1  
    44   10   41 1  
    45   11   42 1  
    46   11   43 1  
    47   11   44 1  
    48   12   45 1  
    49   12   46 1  
    50   12   47 1  
    51   13   48 1  
    52   14   49 1  
    53   15   50 1  
    54   16   51 1  
    55   16   52 1  
    56   17   53 1  
    57   18   54 1  
    58   18   55 1  
    59   21   56 1  
    60   22   57 1  
    61   26   58 1  
    62   31   59 1  
    63   31   60 1  
    64   31   61 1  
    65   32   62 1  
    66   33   63 1  
    67   34   64 1  
@<TRIPOS>SUBSTRUCTURE
     1 D2W         1

