### 
### Created by X-TOOL on Wed Jan  1 15:39:36 2020
### 

@<TRIPOS>MOLECULE
6fa3_ligand
   76    80     1     0     0
SMALL
GAST_HUCK


@<TRIPOS>ATOM
      1 O20        26.7360   92.5920   29.4610 O.2       1 D1Z        -0.3968
      2 C19        27.2980   92.2950   28.4130 C.2       1 D1Z         0.1793
      3 C21        26.8190   91.1140   27.5670 C.3       1 D1Z         0.0528
      4 C39        26.9960   89.7610   28.2820 C.3       1 D1Z        -0.0096
      5 C38        26.4370   88.5870   27.4590 C.3       1 D1Z         0.0500
      6 O37        25.0820   88.8140   27.0330 O.3       1 D1Z        -0.3794
      7 C36        24.8810   90.0440   26.3150 C.3       1 D1Z         0.0500
      8 C35        25.3440   91.2420   27.1600 C.3       1 D1Z        -0.0096
      9 N18        28.2950   92.9560   27.9700 N.am      1 D1Z        -0.2838
     10 C17        28.9980   94.1050   28.5320 C.3       1 D1Z         0.0638
     11 C15        28.6660   95.4580   27.8490 C.3       1 D1Z         0.1267
     12 C14        27.5470   95.5660   26.7740 C.3       1 D1Z         0.1000
     13 O13        27.5060   96.9630   26.3110 O.3       1 D1Z        -0.3188
     14 C12        28.6290   97.8380   26.3020 C.ar      1 D1Z         0.1215
     15 C10        28.6000   99.1650   25.8190 C.ar      1 D1Z        -0.0409
     16 C9         29.7780   99.9840   25.7870 C.ar      1 D1Z        -0.0808
     17 C8         30.9800   99.4550   26.2620 C.ar      1 D1Z        -0.0730
     18 O16        29.8630   95.9970   27.2430 O.3       1 D1Z        -0.3113
     19 C11        29.8600   97.3300   26.7740 C.ar      1 D1Z         0.1307
     20 C7         31.0330   98.1330   26.7900 C.ar      1 D1Z         0.0101
     21 C3         32.3230   97.5090   27.2980 C.ar      1 D1Z         0.0211
     22 N2         32.3340   96.7070   28.4200 N.ar      1 D1Z        -0.2852
     23 C4         33.5590   97.6920   26.6280 C.ar      1 D1Z        -0.0524
     24 C5         34.7610   97.1180   27.1190 C.ar      1 D1Z        -0.0292
     25 C6         34.7670   96.2690   28.2730 C.ar      1 D1Z         0.1170
     26 C1         33.4910   96.1190   28.8910 C.ar      1 D1Z         0.1864
     27 O22        33.3720   95.2980   29.9790 O.3       1 D1Z        -0.3072
     28 C23        33.0960   93.9130   29.6930 C.3       1 D1Z         0.0607
     29 N24        35.8270   95.5460   28.8560 N.pl3     1 D1Z        -0.2734
     30 C25        37.1540   95.3160   28.5190 C.ar      1 D1Z         0.0508
     31 C30        37.7620   95.6950   27.3240 C.ar      1 D1Z        -0.0469
     32 C29        39.1200   95.4880   27.0820 C.ar      1 D1Z        -0.0787
     33 C28        39.9390   94.9050   28.0200 C.ar      1 D1Z        -0.0676
     34 C27        39.3910   94.4850   29.2290 C.ar      1 D1Z        -0.0092
     35 C26        38.0100   94.6960   29.4720 C.ar      1 D1Z        -0.0342
     36 C31        40.3290   93.8440   30.2500 C.3       1 D1Z        -0.0014
     37 N32        40.7580   92.4430   29.9630 N.4       1 D1Z         0.2427
     38 C34        41.7470   92.0360   30.9760 C.3       1 D1Z        -0.0419
     39 C33        41.3560   92.1960   28.6260 C.3       1 D1Z        -0.0419
     40 H1         27.4281   91.1003   26.6512 H         1 D1Z         0.0539
     41 H2         26.4688   89.7992   29.2466 H         1 D1Z         0.0314
     42 H3         28.0686   89.5911   28.4568 H         1 D1Z         0.0314
     43 H4         26.4657   87.6771   28.0764 H         1 D1Z         0.0561
     44 H5         27.0684   88.4466   26.5693 H         1 D1Z         0.0561
     45 H6         23.8119   90.1568   26.0822 H         1 D1Z         0.0561
     46 H7         25.4590   90.0158   25.3795 H         1 D1Z         0.0561
     47 H8         25.2148   92.1633   26.5730 H         1 D1Z         0.0314
     48 H9         24.7269   91.2967   28.0689 H         1 D1Z         0.0314
     49 H10        28.6538   92.6341   27.0938 H         1 D1Z         0.1852
     50 H11        30.0793   93.9274   28.4355 H         1 D1Z         0.0550
     51 H12        28.7328   94.1832   29.5967 H         1 D1Z         0.0550
     52 H13        28.3623   96.1281   28.6667 H         1 D1Z         0.0695
     53 H14        26.5774   95.2880   27.2129 H         1 D1Z         0.0639
     54 H15        27.7724   94.8978   25.9298 H         1 D1Z         0.0639
     55 H16        27.6623   99.5760   25.4628 H         1 D1Z         0.0512
     56 H17        29.7355  100.9960   25.4007 H         1 D1Z         0.0499
     57 H18        31.8814  100.0562   26.2286 H         1 D1Z         0.0500
     58 H19        33.5868   98.2837   25.7201 H         1 D1Z         0.0576
     59 H20        35.6948   97.3267   26.6096 H         1 D1Z         0.0603
     60 H21        33.0217   93.3516   30.6361 H         1 D1Z         0.0579
     61 H22        33.9093   93.4958   29.0811 H         1 D1Z         0.0579
     62 H23        32.1463   93.8342   29.1436 H         1 D1Z         0.0579
     63 H24        35.5545   95.0814   29.7340 H         1 D1Z         0.2076
     64 H25        37.1592   96.1667   26.5564 H         1 D1Z         0.0473
     65 H26        39.5401   95.7944   26.1308 H         1 D1Z         0.0568
     66 H27        40.9965   94.7742   27.8210 H         1 D1Z         0.0456
     67 H28        37.5910   94.3733   30.4182 H         1 D1Z         0.0466
     68 H29        39.8167   93.8453   31.2234 H         1 D1Z         0.0978
     69 H30        41.2341   94.4662   30.3111 H         1 D1Z         0.0978
     70 H31        39.9423   91.8564   30.0439 H         1 D1Z         0.2042
     71 H32        42.0725   91.0043   30.7768 H         1 D1Z         0.0778
     72 H33        41.2915   92.0902   31.9758 H         1 D1Z         0.0778
     73 H34        42.6156   92.7095   30.9318 H         1 D1Z         0.0778
     74 H35        40.6404   92.4905   27.8442 H         1 D1Z         0.0778
     75 H36        41.5931   91.1269   28.5222 H         1 D1Z         0.0778
     76 H37        42.2773   92.7877   28.5214 H         1 D1Z         0.0778
@<TRIPOS>BOND
     1    1    2 2  
     2    2    3 1  
     3    2    9 am 
     4    3    4 1  
     5    3    8 1  
     6    4    5 1  
     7    5    6 1  
     8    6    7 1  
     9    7    8 1  
    10    9   10 1  
    11   10   11 1  
    12   11   12 1  
    13   11   18 1  
    14   12   13 1  
    15   13   14 1  
    16   14   15 ar 
    17   14   19 ar 
    18   15   16 ar 
    19   16   17 ar 
    20   17   20 ar 
    21   18   19 1  
    22   19   20 ar 
    23   20   21 1  
    24   21   22 ar 
    25   21   23 ar 
    26   22   26 ar 
    27   23   24 ar 
    28   24   25 ar 
    29   25   26 ar 
    30   25   29 1  
    31   26   27 1  
    32   27   28 1  
    33   29   30 1  
    34   30   31 ar 
    35   30   35 ar 
    36   31   32 ar 
    37   32   33 ar 
    38   33   34 ar 
    39   34   35 ar 
    40   34   36 1  
    41   36   37 1  
    42   37   38 1  
    43   37   39 1  
    44    3   40 1  
    45    4   41 1  
    46    4   42 1  
    47    5   43 1  
    48    5   44 1  
    49    7   45 1  
    50    7   46 1  
    51    8   47 1  
    52    8   48 1  
    53    9   49 1  
    54   10   50 1  
    55   10   51 1  
    56   11   52 1  
    57   12   53 1  
    58   12   54 1  
    59   15   55 1  
    60   16   56 1  
    61   17   57 1  
    62   23   58 1  
    63   24   59 1  
    64   28   60 1  
    65   28   61 1  
    66   28   62 1  
    67   29   63 1  
    68   31   64 1  
    69   32   65 1  
    70   33   66 1  
    71   35   67 1  
    72   36   68 1  
    73   36   69 1  
    74   37   70 1  
    75   38   71 1  
    76   38   72 1  
    77   38   73 1  
    78   39   74 1  
    79   39   75 1  
    80   39   76 1  
@<TRIPOS>SUBSTRUCTURE
     1 D1Z         1

