### 
### Created by X-TOOL on Wed Jan  1 15:39:37 2020
### 

@<TRIPOS>MOLECULE
6fa4_ligand
   55    58     1     0     0
SMALL
GAST_HUCK


@<TRIPOS>ATOM
      1 C1         32.8020   96.6310   29.2240 C.ar      1 D1W         0.1860
      2 N2         31.7040   97.0500   28.6290 N.ar      1 D1W        -0.2855
      3 C3         31.7870   97.5390   27.3840 C.ar      1 D1W         0.0209
      4 C4         33.0020   97.5860   26.7000 C.ar      1 D1W        -0.0526
      5 C5         34.1550   97.1540   27.3270 C.ar      1 D1W        -0.0296
      6 C6         34.1070   96.6360   28.6260 C.ar      1 D1W         0.1157
      7 C7         30.5120   98.0370   26.7870 C.ar      1 D1W         0.0100
      8 C8         30.4350   99.3560   26.3010 C.ar      1 D1W        -0.0730
      9 C9         29.2540   99.8450   25.7590 C.ar      1 D1W        -0.0808
     10 C10        28.1260   99.0280   25.6800 C.ar      1 D1W        -0.0409
     11 C11        29.3580   97.2200   26.6900 C.ar      1 D1W         0.1301
     12 C12        28.1680   97.7270   26.1610 C.ar      1 D1W         0.1214
     13 O13        27.0160   96.9650   26.0730 O.3       1 D1W        -0.3192
     14 C14        27.0200   95.6280   26.6360 C.3       1 D1W         0.0952
     15 C15        28.4150   94.9880   26.7890 C.3       1 D1W         0.0960
     16 O16        29.4660   95.9250   27.1210 O.3       1 D1W        -0.3166
     17 O17        32.7370   96.1630   30.4800 O.3       1 D1W        -0.3073
     18 C18        32.2680   94.8210   30.6490 C.3       1 D1W         0.0606
     19 N19        35.2070   96.1300   29.3520 N.pl3     1 D1W        -0.2756
     20 C20        36.5500   95.9230   28.9870 C.ar      1 D1W         0.0511
     21 C21        36.9930   95.6360   27.6930 C.ar      1 D1W        -0.0460
     22 C22        38.3170   95.3090   27.4670 C.ar      1 D1W        -0.0652
     23 C23        39.2240   95.2470   28.5040 C.ar      1 D1W        -0.0104
     24 C24        38.7810   95.5350   29.7890 C.ar      1 D1W        -0.0652
     25 C25        37.4660   95.8770   30.0350 C.ar      1 D1W        -0.0460
     26 C26        40.6740   94.8860   28.2590 C.3       1 D1W        -0.0039
     27 N27        40.9510   93.4710   28.6220 N.4       1 D1W         0.2413
     28 C28        40.2860   92.5230   27.6820 C.3       1 D1W        -0.0421
     29 C29        42.3990   93.2060   28.6450 C.3       1 D1W        -0.0421
     30 H1         33.0413   97.9591   25.6830 H         1 D1W         0.0575
     31 H2         35.1047   97.2169   26.8082 H         1 D1W         0.0601
     32 H3         31.3077   99.9971   26.3505 H         1 D1W         0.0500
     33 H4         29.2083  100.8654   25.3959 H         1 D1W         0.0499
     34 H5         27.2121   99.4113   25.2407 H         1 D1W         0.0512
     35 H6         26.4178   94.9806   25.9816 H         1 D1W         0.0636
     36 H7         26.5558   95.6760   27.6321 H         1 D1W         0.0636
     37 H8         28.6763   94.4997   25.8386 H         1 D1W         0.0638
     38 H9         28.3620   94.2327   27.5869 H         1 D1W         0.0638
     39 H10        32.2643   94.5659   31.7190 H         1 D1W         0.0579
     40 H11        32.9322   94.1298   30.1096 H         1 D1W         0.0579
     41 H12        31.2471   94.7362   30.2484 H         1 D1W         0.0579
     42 H13        34.9870   95.8649   30.3227 H         1 D1W         0.2059
     43 H14        36.2959   95.6699   26.8636 H         1 D1W         0.0513
     44 H15        38.6482   95.0976   26.4567 H         1 D1W         0.0529
     45 H16        39.4817   95.4903   30.6149 H         1 D1W         0.0529
     46 H17        37.1465   96.1098   31.0444 H         1 D1W         0.0513
     47 H18        41.3137   95.5429   28.8667 H         1 D1W         0.0956
     48 H19        40.9042   95.0335   27.1935 H         1 D1W         0.0956
     49 H20        40.5835   93.3093   29.5466 H         1 D1W         0.2040
     50 H21        40.5133   91.4894   27.9819 H         1 D1W         0.0778
     51 H22        40.6564   92.6984   26.6612 H         1 D1W         0.0778
     52 H23        39.1979   92.6819   27.7097 H         1 D1W         0.0778
     53 H24        42.8888   93.9055   29.3384 H         1 D1W         0.0778
     54 H25        42.8126   93.3413   27.6348 H         1 D1W         0.0778
     55 H26        42.5775   92.1733   28.9791 H         1 D1W         0.0778
@<TRIPOS>BOND
     1    1    2 ar 
     2    1    6 ar 
     3    1   17 1  
     4    2    3 ar 
     5    3    4 ar 
     6    3    7 1  
     7    4    5 ar 
     8    5    6 ar 
     9    6   19 1  
    10    7    8 ar 
    11    7   11 ar 
    12    8    9 ar 
    13    9   10 ar 
    14   10   12 ar 
    15   11   12 ar 
    16   11   16 1  
    17   12   13 1  
    18   13   14 1  
    19   14   15 1  
    20   15   16 1  
    21   17   18 1  
    22   19   20 1  
    23   20   21 ar 
    24   20   25 ar 
    25   21   22 ar 
    26   22   23 ar 
    27   23   24 ar 
    28   23   26 1  
    29   24   25 ar 
    30   26   27 1  
    31   27   28 1  
    32   27   29 1  
    33    4   30 1  
    34    5   31 1  
    35    8   32 1  
    36    9   33 1  
    37   10   34 1  
    38   14   35 1  
    39   14   36 1  
    40   15   37 1  
    41   15   38 1  
    42   18   39 1  
    43   18   40 1  
    44   18   41 1  
    45   19   42 1  
    46   21   43 1  
    47   22   44 1  
    48   24   45 1  
    49   25   46 1  
    50   26   47 1  
    51   26   48 1  
    52   27   49 1  
    53   28   50 1  
    54   28   51 1  
    55   28   52 1  
    56   29   53 1  
    57   29   54 1  
    58   29   55 1  
@<TRIPOS>SUBSTRUCTURE
     1 D1W         1

