### 
### Created by X-TOOL on Wed Jan  1 15:39:37 2020
### 

@<TRIPOS>MOLECULE
6faf_ligand
   40    41     1     0     0
SMALL
GAST_HUCK


@<TRIPOS>ATOM
      1 C3         13.3960   33.4610   18.7310 C.ar      1 D3B        -0.0447
      2 C4         13.7620   34.4100   19.6730 C.ar      1 D3B        -0.0599
      3 C5         14.3660   35.5900   19.2580 C.ar      1 D3B         0.0831
      4 C6         14.5930   35.8420   17.9100 C.ar      1 D3B        -0.0231
      5 C7         11.1060   35.6430   14.3340 C.ar      1 D3B         0.0628
      6 C8         11.0330   36.3410   13.1230 C.ar      1 D3B        -0.0468
      7 N20        12.3220   35.6110   15.0720 N.am      1 D3B        -0.2192
      8 C22        13.5800   35.3220   14.5910 C.2       1 D3B         0.3124
      9 O23        13.8680   35.3070   13.3960 O.2       1 D3B        -0.3821
     10 N24        14.4940   35.0530   15.5820 N.am      1 D3B        -0.2172
     11 C1         14.2370   34.8760   16.9630 C.ar      1 D3B         0.0988
     12 C2         13.6350   33.6810   17.3770 C.ar      1 D3B         0.1089
     13 C9          9.8530   36.4040   12.3940 C.ar      1 D3B        -0.0667
     14 C10         8.7310   35.7700   12.9130 C.ar      1 D3B        -0.0827
     15 C11         8.7870   35.0750   14.1090 C.ar      1 D3B        -0.0802
     16 C12         9.9690   34.9780   14.8430 C.ar      1 D3B        -0.0311
     17 O1         12.9970   32.9330   16.4350 O.3       1 D3B        -0.3395
     18 S2         14.9290   36.7520   20.4670 S.o2      1 D3B         0.0576
     19 O3         15.2620   36.0100   21.6430 O.2       1 D3B        -0.1521
     20 O4         13.9450   37.7890   20.5620 O.2       1 D3B        -0.1521
     21 N5         16.2850   37.4340   19.9360 N.am      1 D3B        -0.2623
     22 C13        10.0220   34.1510   16.1020 C.3       1 D3B        -0.0383
     23 C14         9.8020   37.1120   11.0620 C.3       1 D3B        -0.0377
     24 H1         12.9203   32.5410   19.0509 H         1 D3B         0.0495
     25 H2         13.5781   34.2324   20.7264 H         1 D3B         0.0478
     26 H3         15.0413   36.7776   17.5958 H         1 D3B         0.0484
     27 H4         11.9167   36.8432   12.7462 H         1 D3B         0.0417
     28 H5         12.2561   35.8215   16.0474 H         1 D3B         0.2238
     29 H6         15.4486   34.9733   15.2949 H         1 D3B         0.2227
     30 H7          7.7936   35.8205   12.3710 H         1 D3B         0.0411
     31 H8          7.8906   34.5946   14.4841 H         1 D3B         0.0497
     32 H9         12.6348   32.1547   16.8421 H         1 D3B         0.2433
     33 H10        16.7499   38.1222   20.4930 H         1 D3B         0.1633
     34 H11        16.6633   37.1699   19.0488 H         1 D3B         0.1633
     35 H12        11.0335   34.2013   16.5314 H         1 D3B         0.0349
     36 H13         9.7761   33.1055   15.8646 H         1 D3B         0.0349
     37 H14         9.2952   34.5427   16.8289 H         1 D3B         0.0349
     38 H15        10.7888   37.5433   10.8380 H         1 D3B         0.0376
     39 H16         9.0515   37.9151   11.1021 H         1 D3B         0.0376
     40 H17         9.5287   36.3936   10.2751 H         1 D3B         0.0376
@<TRIPOS>BOND
     1    2    1 ar 
     2    1   12 ar 
     3    3    2 ar 
     4    4    3 ar 
     5    3   18 1  
     6   11    4 ar 
     7    5    6 ar 
     8    7    5 1  
     9    5   16 ar 
    10    6   13 ar 
    11    8    7 am 
    12    8    9 2  
    13   10    8 am 
    14   10   11 1  
    15   11   12 ar 
    16   12   17 1  
    17   13   14 ar 
    18   13   23 1  
    19   14   15 ar 
    20   15   16 ar 
    21   16   22 1  
    22   18   19 2  
    23   18   20 2  
    24   18   21 am 
    25    1   24 1  
    26    2   25 1  
    27    4   26 1  
    28    6   27 1  
    29    7   28 1  
    30   10   29 1  
    31   14   30 1  
    32   15   31 1  
    33   17   32 1  
    34   21   33 1  
    35   21   34 1  
    36   22   35 1  
    37   22   36 1  
    38   22   37 1  
    39   23   38 1  
    40   23   39 1  
    41   23   40 1  
@<TRIPOS>SUBSTRUCTURE
     1 D3B         1

