### 
### Created by X-TOOL on Wed Jan  1 15:39:34 2020
### 

@<TRIPOS>MOLECULE
6fam_ligand
   48    49     1     0     0
SMALL
GAST_HUCK


@<TRIPOS>ATOM
      1 C1          3.0450   21.6990    6.7090 C.3       1 MAN         0.1886
      2 C2          2.0780   21.6850    7.8740 C.3       1 MAN         0.1341
      3 C3          2.6130   22.4270    9.0920 C.3       1 MAN         0.1141
      4 C4          4.0200   21.9410    9.4410 C.3       1 MAN         0.1119
      5 C5          4.8950   22.1160    8.2220 C.3       1 MAN         0.1130
      6 C6          6.2960   21.5740    8.4850 C.3       1 MAN         0.0730
      7 O2          1.8760   20.3150    8.2250 O.3       1 MAN        -0.3841
      8 O3          1.7170   22.2400   10.2020 O.3       1 MAN        -0.3864
      9 O4          4.5240   22.7700   10.5000 O.3       1 MAN        -0.3865
     10 O5          4.3550   21.3210    7.1420 O.3       1 MAN        -0.3405
     11 O6          7.1420   21.7530    7.3470 O.3       1 MAN        -0.3924
     12 O3          3.0070   23.0270    6.1720 O.3       1 G63        -0.3369
     13 C3          3.4140   23.0600    4.7860 C.3       1 G63         0.1400
     14 C2          4.9060   23.3500    4.8030 C.3       1 G63         0.0459
     15 N2          5.1540   24.6470    5.5030 N.4       1 G63         0.2264
     16 C4          2.6410   24.1690    4.0800 C.3       1 G63         0.1312
     17 O4          1.2520   23.7880    4.0850 O.3       1 G63        -0.3833
     18 C5          3.1130   24.3880    2.6440 C.3       1 G63         0.0303
     19 C6          2.5300   25.6420    1.9840 C.3       1 G63         0.0893
     20 O6          2.8420   26.8230    2.7640 O.3       1 G63        -0.3894
     21 N7          4.5870   24.5700    2.7200 N.4       1 G63         0.2367
     22 C1          5.3630   23.4930    3.3900 C.3       1 G63         0.0132
     23 H1          2.7118   20.9859    5.9407 H         1 MAN         0.0938
     24 H2          1.1267   22.1425    7.5647 H         1 MAN         0.0671
     25 H3          2.6634   23.5005    8.8574 H         1 MAN         0.0648
     26 H4          4.0007   20.8863    9.7527 H         1 MAN         0.0647
     27 H5          4.9396   23.1787    7.9416 H         1 MAN         0.0647
     28 H6          6.2279   20.5007    8.7160 H         1 MAN         0.0584
     29 H7          6.7316   22.1069    9.3431 H         1 MAN         0.0584
     30 H8          2.7022   19.9342    8.4984 H         1 MAN         0.2101
     31 H9          2.0344   22.7320   10.9501 H         1 MAN         0.2100
     32 H10         5.4154   22.5131   10.7049 H         1 MAN         0.2100
     33 H11         7.2078   22.6790    7.1452 H         1 MAN         0.2095
     34 H12         3.2163   22.0960    4.2944 H         1 MAN         0.0684
     35 H13         5.4482   22.5351    5.3051 H         1 MAN         0.0930
     36 H14         6.1435   24.8390    5.5141 H         1 MAN         0.2000
     37 H15         4.8125   24.5886    6.4496 H         1 MAN         0.2000
     38 H16         4.6734   25.3882    5.0175 H         1 MAN         0.2000
     39 H17         2.7689   25.1083    4.6379 H         1 MAN         0.0679
     40 H18         0.7390   24.4596    3.6510 H         1 MAN         0.2102
     41 H19         2.8588   23.5073    2.0359 H         1 MAN         0.0900
     42 H20         1.4376   25.5364    1.9098 H         1 MAN         0.0614
     43 H21         2.9571   25.7516    0.9763 H         1 MAN         0.0614
     44 H22         3.7850   26.9190    2.8278 H         1 MAN         0.2097
     45 H23         4.7628   25.4279    3.2192 H         1 MAN         0.2020
     46 H24         4.9328   24.6531    1.7768 H         1 MAN         0.2020
     47 H25         5.2065   22.5436    2.8570 H         1 MAN         0.0871
     48 H26         6.4325   23.7496    3.3756 H         1 MAN         0.0871
@<TRIPOS>BOND
     1    1    2 1  
     2    1   10 1  
     3    1   12 1  
     4    2    3 1  
     5    2    7 1  
     6    3    4 1  
     7    3    8 1  
     8    4    5 1  
     9    4    9 1  
    10    5    6 1  
    11    5   10 1  
    12    6   11 1  
    13   12   13 1  
    14   13   14 1  
    15   13   16 1  
    16   14   15 1  
    17   14   22 1  
    18   16   17 1  
    19   16   18 1  
    20   18   19 1  
    21   18   21 1  
    22   19   20 1  
    23   21   22 1  
    24    1   23 1  
    25    2   24 1  
    26    3   25 1  
    27    4   26 1  
    28    5   27 1  
    29    6   28 1  
    30    6   29 1  
    31    7   30 1  
    32    8   31 1  
    33    9   32 1  
    34   11   33 1  
    35   13   34 1  
    36   14   35 1  
    37   15   36 1  
    38   15   37 1  
    39   15   38 1  
    40   16   39 1  
    41   17   40 1  
    42   18   41 1  
    43   19   42 1  
    44   19   43 1  
    45   20   44 1  
    46   21   45 1  
    47   21   46 1  
    48   22   47 1  
    49   22   48 1  
@<TRIPOS>SUBSTRUCTURE
     1 MAN         1

