### 
### Created by X-TOOL on Wed Jan  1 15:39:37 2020
### 

@<TRIPOS>MOLECULE
6fap_ligand
   24    24     1     0     0
SMALL
GAST_HUCK


@<TRIPOS>ATOM
      1 C4         36.4020   19.4450   52.4550 C.ar      1 D3H         0.0538
      2 C5         37.1020   20.6250   52.7140 C.ar      1 D3H        -0.0518
      3 C6         36.4690   21.6880   53.3560 C.ar      1 D3H        -0.0570
      4 C7         37.4490   18.5740   50.5940 C.2       1 D3H         0.2456
      5 C8         38.1090   17.3310   49.9820 C.3       1 D3H         0.0596
      6 N1         37.0000   18.4090   51.8540 N.am      1 D3H        -0.2369
      7 N2         38.1660   17.4520   48.5140 N.4       1 D3H         0.2361
      8 C3         35.0760   19.3280   52.8670 C.ar      1 D3H        -0.0518
      9 N3         34.5380   22.5860   54.3750 N.pl3     1 D3H        -0.3448
     10 C2         34.4440   20.3900   53.5110 C.ar      1 D3H        -0.0570
     11 C1         35.1400   21.5720   53.7580 C.ar      1 D3H         0.0206
     12 O1         37.3790   19.6250   49.9590 O.2       1 D3H        -0.3806
     13 H1         38.1401   20.7146   52.4151 H         1 D3H         0.0474
     14 H2         37.0121   22.6073   53.5430 H         1 D3H         0.0481
     15 H3         37.5227   16.4397   50.2500 H         1 D3H         0.1066
     16 H4         39.1304   17.2306   50.3776 H         1 D3H         0.1066
     17 H5         37.1107   17.5353   52.3277 H         1 D3H         0.2215
     18 H6         38.6012   16.6299   48.1258 H         1 D3H         0.2012
     19 H7         38.7046   18.2668   48.2646 H         1 D3H         0.2012
     20 H8         37.2312   17.5420   48.1477 H         1 D3H         0.2012
     21 H9         34.5338   18.4070   52.6858 H         1 D3H         0.0474
     22 H10        33.5555   22.4983   54.6714 H         1 D3H         0.1675
     23 H11        35.0546   23.4585   54.5561 H         1 D3H         0.1675
     24 H12        33.4093   20.2966   53.8204 H         1 D3H         0.0481
@<TRIPOS>BOND
     1    1    2 ar 
     2    6    1 1  
     3    1    8 ar 
     4    2    3 ar 
     5    3   11 ar 
     6    4    5 1  
     7    4    6 am 
     8    4   12 2  
     9    5    7 1  
    10    8   10 ar 
    11   11    9 1  
    12   10   11 ar 
    13    2   13 1  
    14    3   14 1  
    15    5   15 1  
    16    5   16 1  
    17    6   17 1  
    18    7   18 1  
    19    7   19 1  
    20    7   20 1  
    21    8   21 1  
    22    9   22 1  
    23    9   23 1  
    24   10   24 1  
@<TRIPOS>SUBSTRUCTURE
     1 D3H         1

