### 
### Created by X-TOOL on Wed Jan  1 15:39:36 2020
### 

@<TRIPOS>MOLECULE
6fba_ligand
   20    21     1     0     0
SMALL
GAST_HUCK


@<TRIPOS>ATOM
      1 O1         63.6310   61.7220 -122.9730 O.3       1 D48        -0.3324
      2 C1         63.5680   60.4400 -123.4260 C.ar      1 D48         0.1226
      3 C2         64.4870   59.9310 -124.2940 C.ar      1 D48        -0.0312
      4 C3         64.4030   58.5830 -124.7190 C.ar      1 D48        -0.0359
      5 C4         65.3530   58.0230 -125.5990 C.ar      1 D48        -0.0647
      6 C5         65.2670   56.7200 -125.9680 C.ar      1 D48        -0.0692
      7 C6         64.2140   55.9150 -125.5000 C.ar      1 D48        -0.0692
      8 C7         63.2580   56.4320 -124.6860 C.ar      1 D48        -0.0647
      9 C8         63.3280   57.7740 -124.2550 C.ar      1 D48        -0.0359
     10 C9         62.3710   58.3340 -123.3690 C.ar      1 D48        -0.0312
     11 C10        62.4940   59.6330 -122.9630 C.ar      1 D48         0.1226
     12 O2         61.6500   60.2300 -122.0850 O.3       1 D48        -0.3324
     13 H1         62.9056   61.8836 -122.3813 H         1 D48         0.2468
     14 H2         65.2878   60.5624 -124.6616 H         1 D48         0.0485
     15 H3         66.1581   58.6386 -125.9835 H         1 D48         0.0581
     16 H4         66.0155   56.2970 -126.6282 H         1 D48         0.0575
     17 H5         64.1647   54.8721 -125.7915 H         1 D48         0.0575
     18 H6         62.4326   55.8075 -124.3639 H         1 D48         0.0581
     19 H7         61.5426   57.7314 -123.0144 H         1 D48         0.0485
     20 H8         60.7674   60.2153 -122.4360 H         1 D48         0.2468
@<TRIPOS>BOND
     1    1    2 1  
     2    2    3 ar 
     3    2   11 ar 
     4    3    4 ar 
     5    4    5 ar 
     6    4    9 ar 
     7    5    6 ar 
     8    6    7 ar 
     9    7    8 ar 
    10    8    9 ar 
    11    9   10 ar 
    12   10   11 ar 
    13   11   12 1  
    14    1   13 1  
    15    3   14 1  
    16    5   15 1  
    17    6   16 1  
    18    7   17 1  
    19    8   18 1  
    20   10   19 1  
    21   12   20 1  
@<TRIPOS>SUBSTRUCTURE
     1 D48         1

