### 
### Created by X-TOOL on Wed Jan  1 15:39:36 2020
### 

@<TRIPOS>MOLECULE
6fc6_ligand
   47    47     1     0     0
SMALL
GAST_HUCK


@<TRIPOS>ATOM
      1 N         -16.0520   22.7110   -1.5870 N.4       1 GLU         0.2377
      2 CA        -17.1940   22.2090   -2.4180 C.3       1 GLU         0.0621
      3 C         -17.2770   20.6620   -2.3720 C.2       1 GLU         0.2265
      4 O         -16.5820   19.9520   -3.1100 O.2       1 GLU        -0.3907
      5 CB        -17.0920   22.7280   -3.8700 C.3       1 GLU        -0.0040
      6 N         -18.1120   20.1720   -1.4640 N.am      1 THR        -0.2586
      7 CA        -18.5090   18.7730   -1.4250 C.3       1 THR         0.1565
      8 C         -19.9720   18.6910   -1.8150 C.2       1 THR         0.2060
      9 O         -20.7330   19.6490   -1.6540 O.2       1 THR        -0.3943
     10 CB        -18.3230   18.1480   -0.0270 C.3       1 THR         0.0924
     11 OG1       -19.0600   18.8840    0.9660 O.3       1 THR        -0.3874
     12 CG2       -16.8650   18.0810    0.3560 C.3       1 THR        -0.0346
     13 N         -20.3750   17.5350   -2.3330 N.am      1 PHE        -0.2676
     14 CA        -21.7910   17.3160   -2.7470 C.3       1 PHE         0.1039
     15 C         -22.2230   15.8160   -2.6620 C.2       1 PHE         0.0621
     16 O         -21.3390   15.0340   -2.2170 O.co2     1 PHE        -0.5664
     17 CB        -22.0260   17.9000   -4.1380 C.3       1 PHE         0.0159
     18 CG        -21.0940   17.3460   -5.1500 C.ar      1 PHE        -0.0392
     19 CD1       -19.8430   17.9190   -5.3600 C.ar      1 PHE        -0.0602
     20 CD2       -21.4470   16.2020   -5.8570 C.ar      1 PHE        -0.0602
     21 CE1       -18.9820   17.3860   -6.2980 C.ar      1 PHE        -0.0686
     22 CE2       -20.5930   15.6610   -6.7890 C.ar      1 PHE        -0.0686
     23 CZ        -19.3490   16.2480   -7.0020 C.ar      1 PHE        -0.0687
     24 OXT       -23.4030   15.4010   -2.9680 O.co2     1 PHE        -0.5664
     25 H1        -16.0197   23.7174   -1.6334 H         1 GLU         0.2015
     26 H2        -15.1875   22.3305   -1.9391 H         1 GLU         0.2015
     27 H3        -16.1808   22.4228   -0.6297 H         1 GLU         0.2015
     28 H4        -18.1242   22.6064   -1.9857 H         1 GLU         0.1095
     29 H5        -17.9404   22.3455   -4.4565 H         1 GLU         0.0310
     30 H6        -16.1497   22.3801   -4.3184 H         1 GLU         0.0310
     31 H7        -17.1134   23.8278   -3.8687 H         1 GLU         0.0310
     32 H8        -18.4854   20.7931   -0.7750 H         1 THR         0.1885
     33 H9        -17.9017   18.2087   -2.1480 H         1 THR         0.0826
     34 H10       -18.7169   17.1214   -0.0583 H         1 THR         0.0639
     35 H11       -18.9309   18.4820    1.8170 H         1 THR         0.2101
     36 H12       -16.7687   17.6315    1.3553 H         1 THR         0.0257
     37 H13       -16.4421   19.0964    0.3684 H         1 THR         0.0257
     38 H14       -16.3213   17.4662   -0.3764 H         1 THR         0.0257
     39 H15       -19.7129   16.7945   -2.4478 H         1 PHE         0.1877
     40 H16       -22.4273   17.8728   -2.0434 H         1 PHE         0.0749
     41 H17       -21.8885   18.9903   -4.0910 H         1 PHE         0.0467
     42 H18       -23.0573   17.6734   -4.4464 H         1 PHE         0.0467
     43 H19       -19.5437   18.7875   -4.7845 H         1 PHE         0.0557
     44 H20       -22.4058   15.7315   -5.6714 H         1 PHE         0.0557
     45 H21       -18.0225   17.8548   -6.4840 H         1 PHE         0.0599
     46 H22       -20.8865   14.7836   -7.3539 H         1 PHE         0.0599
     47 H23       -18.6637   15.8141   -7.7212 H         1 PHE         0.0559
@<TRIPOS>BOND
     1    1    2 1  
     2    2    3 1  
     3    2    5 1  
     4    3    4 2  
     5    3    6 am 
     6    6    7 1  
     7    7    8 1  
     8    7   10 1  
     9    8    9 2  
    10    8   13 am 
    11   10   11 1  
    12   10   12 1  
    13   13   14 1  
    14   14   15 1  
    15   14   17 1  
    16   15   16 ar 
    17   15   24 ar 
    18   17   18 1  
    19   18   19 ar 
    20   18   20 ar 
    21   19   21 ar 
    22   20   22 ar 
    23   21   23 ar 
    24   22   23 ar 
    25    1   25 1  
    26    1   26 1  
    27    1   27 1  
    28    2   28 1  
    29    5   29 1  
    30    5   30 1  
    31    5   31 1  
    32    6   32 1  
    33    7   33 1  
    34   10   34 1  
    35   11   35 1  
    36   12   36 1  
    37   12   37 1  
    38   12   38 1  
    39   13   39 1  
    40   14   40 1  
    41   17   41 1  
    42   17   42 1  
    43   19   43 1  
    44   20   44 1  
    45   21   45 1  
    46   22   46 1  
    47   23   47 1  
@<TRIPOS>SUBSTRUCTURE
     1 GLU         1

