### 
### Created by X-TOOL on Mon Aug  2 16:13:22 2021
### 

@<TRIPOS>MOLECULE
6fcj_ligand
   31    33     1     0     0
SMALL
GAST_HUCK


@<TRIPOS>ATOM
      1 C1         64.9080   34.6860   23.2450 C.2       1 D4W         0.0964
      2 C3         64.8070   33.8300   24.4590 C.ar      1 D4W         0.0337
      3 N6         65.5200   36.3180   21.8270 N.2       1 D4W        -0.2113
      4 C7         65.9710   33.2370   24.9810 C.ar      1 D4W        -0.0653
      5 C8         63.5840   33.6640   25.1530 C.ar      1 D4W         0.0948
      6 C9         64.5650   35.6320   21.2460 C.2       1 D4W        -0.0089
      7 C10        67.9940   35.6920   24.0300 C.ar      1 D4W        -0.0254
      8 C11        66.3220   37.0950   25.0650 C.ar      1 D4W         0.0753
      9 C12        65.9410   32.5200   26.1630 C.ar      1 D4W        -0.0413
     10 C13        63.5520   32.9050   26.3210 C.ar      1 D4W        -0.0020
     11 C14        68.9010   36.0630   25.0170 C.ar      1 D4W        -0.0658
     12 C15        67.2420   37.4890   26.0310 C.ar      1 D4W        -0.0519
     13 C16        64.7290   32.3470   26.8260 C.ar      1 D4W         0.0819
     14 N2         65.7570   35.7610   23.0930 N.pl3     1 D4W        -0.1625
     15 C4         64.1610   34.6010   22.1000 C.2       1 D4W        -0.0452
     16 C5         66.6960   36.2090   24.0430 C.ar      1 D4W         0.1235
     17 C17        68.5310   36.9680   26.0080 C.ar      1 D4W        -0.0682
     18 CL1        64.7220   37.7550   25.1190 Cl        1 D4W        -0.0740
     19 O19        62.4260   34.2030   24.6980 O.3       1 D4W        -0.3318
     20 O20        64.7050   31.6240   27.9690 O.3       1 D4W        -0.3341
     21 H1         66.9083   33.3441   24.4470 H         1 D4W         0.0575
     22 H2         64.1532   35.8329   20.2581 H         1 D4W         0.0655
     23 H3         68.2943   35.0014   23.2503 H         1 D4W         0.0585
     24 H4         66.8524   32.0967   26.5695 H         1 D4W         0.0465
     25 H5         62.6127   32.7473   26.8385 H         1 D4W         0.0468
     26 H6         69.9013   35.6453   25.0146 H         1 D4W         0.0601
     27 H7         66.9554   38.1990   26.7983 H         1 D4W         0.0605
     28 H8         63.3892   33.8615   21.8917 H         1 D4W         0.0318
     29 H9         69.2490   37.2671   26.7630 H         1 D4W         0.0557
     30 H10        61.8035   33.5081   24.5187 H         1 D4W         0.2502
     31 H11        64.1281   30.8774   27.8581 H         1 D4W         0.2491
@<TRIPOS>BOND
     1    1    2 1  
     2   14    1 1  
     3    1   15 2  
     4    2    4 ar 
     5    2    5 ar 
     6    3    6 2  
     7   14    3 1  
     8    4    9 ar 
     9    5   10 ar 
    10    5   19 1  
    11    6   15 1  
    12    7   11 ar 
    13   16    7 ar 
    14    8   12 ar 
    15   16    8 ar 
    16    8   18 1  
    17    9   13 ar 
    18   10   13 ar 
    19   11   17 ar 
    20   12   17 ar 
    21   13   20 1  
    22   14   16 1  
    23    4   21 1  
    24    6   22 1  
    25    7   23 1  
    26    9   24 1  
    27   10   25 1  
    28   11   26 1  
    29   12   27 1  
    30   15   28 1  
    31   17   29 1  
    32   19   30 1  
    33   20   31 1  
@<TRIPOS>SUBSTRUCTURE
     1 D4W         1

