### 
### Created by X-TOOL on Wed Jan  1 15:39:36 2020
### 

@<TRIPOS>MOLECULE
6fdc_ligand
   61    64     1     0     0
SMALL
GAST_HUCK


@<TRIPOS>ATOM
      1 C10        30.2120  229.5430  146.8830 C.ar      1 DD5        -0.0338
      2 C13        28.9900  228.8340  147.2670 C.2       1 DD5         0.0263
      3 C15        25.3070  228.2650  149.9520 C.3       1 DD5         0.1242
      4 C17        25.7940  228.5640  153.6730 C.3       1 DD5        -0.0077
      5 C20        25.4630  230.6750  152.7070 C.3       1 DD5        -0.0077
      6 C21        27.0600  227.7590  147.3840 C.2       1 DD5         0.0500
      7 C22        27.9890  228.2330  146.4790 C.2       1 DD5        -0.0432
      8 C01        34.2600  232.1830  145.1330 C.3       1 DD5         0.3647
      9 O01        33.7080  231.7940  146.3720 O.3       1 DD5        -0.2599
     10 C02        32.5650  231.0330  146.4270 C.ar      1 DD5         0.1271
     11 C03        32.0620  230.8730  147.7170 C.ar      1 DD5         0.1211
     12 O02        32.7770  231.4600  148.7100 O.3       1 DD5        -0.3185
     13 C04        32.1050  231.6070  149.9400 C.3       1 DD5         0.0788
     14 C05        33.0120  232.4860  150.7680 C.3       1 DD5        -0.0226
     15 C06        34.0750  231.4770  151.1930 C.3       1 DD5        -0.0503
     16 C07        33.2740  230.2660  151.6380 C.3       1 DD5        -0.0503
     17 C08        32.0010  230.3550  150.8150 C.3       1 DD5        -0.0226
     18 C09        30.9030  230.1430  147.9280 C.ar      1 DD5        -0.0340
     19 C11        30.7040  229.7090  145.5840 C.ar      1 DD5        -0.0735
     20 C12        31.8780  230.4520  145.3580 C.ar      1 DD5        -0.0397
     21 N01        28.6410  228.7480  148.5750 N.2       1 DD5        -0.2156
     22 N02        27.4740  228.0960  148.6060 N.pl3     1 DD5        -0.2063
     23 C14        26.7910  227.7930  149.8550 C.3       1 DD5         0.1016
     24 C16        24.9220  228.6450  151.4250 C.3       1 DD5        -0.0023
     25 N03        25.8780  229.2900  152.3810 N.4       1 DD5         0.2404
     26 C18        26.6020  229.1630  154.8420 C.3       1 DD5         0.0878
     27 O03        26.6030  230.5940  154.9760 O.3       1 DD5        -0.3693
     28 C19        26.2720  231.3710  153.8140 C.3       1 DD5         0.0878
     29 F01        34.7520  231.0830  144.5180 F         1 DD5        -0.1740
     30 F02        33.3480  232.7700  144.3280 F         1 DD5        -0.1740
     31 O04        24.9600  229.3350  149.0440 O.3       1 DD5        -0.3835
     32 H1         24.6880  227.4011  149.6683 H         1 DD5         0.0677
     33 H2         26.1546  227.5383  153.5061 H         1 DD5         0.0837
     34 H3         24.7366  228.5364  153.9748 H         1 DD5         0.0837
     35 H4         24.4104  230.6463  153.0251 H         1 DD5         0.0837
     36 H5         25.5533  231.2790  151.7921 H         1 DD5         0.0837
     37 H6         26.1518  227.2085  147.1429 H         1 DD5         0.0989
     38 H7         27.9552  228.1585  145.3931 H         1 DD5         0.0344
     39 H8         35.0775  232.8956  145.3172 H         1 DD5         0.1416
     40 H9         31.1104  232.0472  149.7755 H         1 DD5         0.0645
     41 H10        32.4847  232.9086  151.6359 H         1 DD5         0.0294
     42 H11        33.4438  233.3011  150.1687 H         1 DD5         0.0294
     43 H12        34.6799  231.8721  152.0224 H         1 DD5         0.0266
     44 H13        34.7324  231.2223  150.3486 H         1 DD5         0.0266
     45 H14        33.0501  230.3174  152.7137 H         1 DD5         0.0266
     46 H15        33.8174  229.3346  151.4206 H         1 DD5         0.0266
     47 H16        31.9002  229.4614  150.1815 H         1 DD5         0.0294
     48 H17        31.1285  230.4332  151.4803 H         1 DD5         0.0294
     49 H18        30.5246  230.0371  148.9383 H         1 DD5         0.0507
     50 H19        30.1785  229.2632  144.7472 H         1 DD5         0.0502
     51 H20        32.2516  230.5743  144.3478 H         1 DD5         0.0514
     52 H21        26.8072  226.7017  149.9918 H         1 DD5         0.0669
     53 H22        27.3514  228.2732  150.6707 H         1 DD5         0.0669
     54 H23        24.6005  227.7087  151.9046 H         1 DD5         0.0841
     55 H24        24.0649  229.3299  151.3464 H         1 DD5         0.0841
     56 H25        26.8129  229.2728  152.0047 H         1 DD5         0.2036
     57 H26        27.6470  228.8415  154.7207 H         1 DD5         0.0613
     58 H27        26.1953  228.7439  155.7741 H         1 DD5         0.0613
     59 H28        25.6888  232.2399  154.1528 H         1 DD5         0.0613
     60 H29        27.2162  231.7149  153.3667 H         1 DD5         0.0613
     61 H30        24.0245  229.4944  149.0870 H         1 DD5         0.2102
@<TRIPOS>BOND
     1    2    1 1  
     2    1   18 ar 
     3    1   19 ar 
     4    2    7 1  
     5   21    2 2  
     6    3   23 1  
     7   24    3 1  
     8    3   31 1  
     9   25    4 1  
    10    4   26 1  
    11   25    5 1  
    12    5   28 1  
    13    6    7 2  
    14   22    6 1  
    15    9    8 1  
    16    8   29 1  
    17    8   30 1  
    18   10    9 1  
    19   11   10 ar 
    20   20   10 ar 
    21   11   12 1  
    22   18   11 ar 
    23   12   13 1  
    24   13   14 1  
    25   13   17 1  
    26   14   15 1  
    27   16   15 1  
    28   17   16 1  
    29   19   20 ar 
    30   22   21 1  
    31   23   22 1  
    32   24   25 1  
    33   26   27 1  
    34   27   28 1  
    35    3   32 1  
    36    4   33 1  
    37    4   34 1  
    38    5   35 1  
    39    5   36 1  
    40    6   37 1  
    41    7   38 1  
    42    8   39 1  
    43   13   40 1  
    44   14   41 1  
    45   14   42 1  
    46   15   43 1  
    47   15   44 1  
    48   16   45 1  
    49   16   46 1  
    50   17   47 1  
    51   17   48 1  
    52   18   49 1  
    53   19   50 1  
    54   20   51 1  
    55   23   52 1  
    56   23   53 1  
    57   24   54 1  
    58   24   55 1  
    59   25   56 1  
    60   26   57 1  
    61   26   58 1  
    62   28   59 1  
    63   28   60 1  
    64   31   61 1  
@<TRIPOS>SUBSTRUCTURE
     1 DD5         1

