### 
### Created by X-TOOL on Wed Jan  1 15:39:35 2020
### 

@<TRIPOS>MOLECULE
6fe0_ligand
   49    50     1     0     0
SMALL
GAST_HUCK


@<TRIPOS>ATOM
      1 F18       -30.6310   12.8460  -92.6400 F         1 V90        -0.2021
      2 C5        -29.2970   12.8690  -92.7010 C.ar      1 V90         0.1549
      3 C6        -28.7050   13.8410  -93.6320 C.ar      1 V90         0.0695
      4 S12       -29.7360   14.8150  -94.5920 S.3       1 V90        -0.1047
      5 C13       -29.8000   16.4360  -93.9280 C.3       1 V90         0.0286
      6 C14       -30.5360   16.4580  -92.6100 C.3       1 V90         0.0551
      7 O15       -29.8480   17.4190  -91.8180 O.3       1 V90        -0.3940
      8 C1        -27.2390   13.9330  -93.7340 C.ar      1 V90         0.1621
      9 F17       -26.6720   14.8240  -94.5730 F         1 V90        -0.2011
     10 C4        -28.4460   11.9360  -91.8950 C.ar      1 V90         0.0873
     11 C3        -26.9590   12.0560  -91.9660 C.ar      1 V90         0.1480
     12 S8        -25.9340   11.0890  -91.1390 S.o2      1 V90         0.0583
     13 O10       -25.4260   11.7840  -89.9740 O.2       1 V90        -0.1540
     14 N11       -24.6860   10.6910  -92.0640 N.am      1 V90        -0.2638
     15 O9        -26.5950    9.8380  -90.8630 O.2       1 V90        -0.1540
     16 C2        -26.3890   13.0400  -92.9180 C.ar      1 V90         0.1706
     17 F16       -25.0630   13.1420  -93.0170 F         1 V90        -0.1907
     18 N7        -28.9510   11.1600  -90.9220 N.pl3     1 V90        -0.3226
     19 C19       -29.9520   11.7010  -89.9910 C.3       1 V90         0.0337
     20 C26       -29.3010   12.8780  -89.2280 C.3       1 V90        -0.0309
     21 C25       -30.1640   14.1090  -88.9460 C.3       1 V90        -0.0510
     22 C24       -31.5280   13.8740  -88.3330 C.3       1 V90        -0.0530
     23 C23       -31.4420   13.2070  -86.9630 C.3       1 V90        -0.0531
     24 C22       -31.0870   11.7230  -86.8820 C.3       1 V90        -0.0530
     25 C21       -31.5070   10.8560  -88.0600 C.3       1 V90        -0.0510
     26 C20       -30.3560   10.5890  -89.0330 C.3       1 V90        -0.0309
     27 H1        -30.3190   17.0949  -94.6396 H         1 V90         0.0422
     28 H2        -28.7740   16.8005  -93.7719 H         1 V90         0.0422
     29 H3        -30.5020   15.4679  -92.1320 H         1 V90         0.0567
     30 H4        -31.5839   16.7581  -92.7577 H         1 V90         0.0567
     31 H5        -28.9434   17.1495  -91.7099 H         1 V90         0.2094
     32 H6        -23.9647   10.0998  -91.7032 H         1 V90         0.1631
     33 H7        -24.6291   11.0341  -93.0016 H         1 V90         0.1631
     34 H8        -28.6363   10.1838  -90.8279 H         1 V90         0.1734
     35 H9        -30.8353   12.0566  -90.5418 H         1 V90         0.0545
     36 H10       -28.4350   13.2126  -89.8179 H         1 V90         0.0287
     37 H11       -28.9562   12.4898  -88.2582 H         1 V90         0.0287
     38 H12       -30.3168   14.6317  -89.9018 H         1 V90         0.0266
     39 H13       -29.6003   14.7577  -88.2593 H         1 V90         0.0266
     40 H14       -32.1108   13.2270  -89.0051 H         1 V90         0.0265
     41 H15       -32.0378   14.8425  -88.2231 H         1 V90         0.0265
     42 H16       -32.4238   13.3301  -86.4824 H         1 V90         0.0265
     43 H17       -30.6805   13.7524  -86.3863 H         1 V90         0.0265
     44 H18       -31.5654   11.3143  -85.9797 H         1 V90         0.0265
     45 H19       -29.9940   11.6463  -86.7843 H         1 V90         0.0265
     46 H20       -32.3160   11.3667  -88.6028 H         1 V90         0.0266
     47 H21       -31.8742    9.8930  -87.6757 H         1 V90         0.0266
     48 H22       -29.4703   10.3399  -88.4301 H         1 V90         0.0287
     49 H23       -30.6402    9.7194  -89.6437 H         1 V90         0.0287
@<TRIPOS>BOND
     1    1    2 1  
     2    2    3 ar 
     3    2   10 ar 
     4    3    4 1  
     5    3    8 ar 
     6    4    5 1  
     7    5    6 1  
     8    6    7 1  
     9    8    9 1  
    10    8   16 ar 
    11   10   11 ar 
    12   10   18 1  
    13   11   12 1  
    14   11   16 ar 
    15   12   13 2  
    16   12   14 am 
    17   12   15 2  
    18   16   17 1  
    19   18   19 1  
    20   19   20 1  
    21   19   26 1  
    22   20   21 1  
    23   21   22 1  
    24   22   23 1  
    25   23   24 1  
    26   24   25 1  
    27   25   26 1  
    28    5   27 1  
    29    5   28 1  
    30    6   29 1  
    31    6   30 1  
    32    7   31 1  
    33   14   32 1  
    34   14   33 1  
    35   18   34 1  
    36   19   35 1  
    37   20   36 1  
    38   20   37 1  
    39   21   38 1  
    40   21   39 1  
    41   22   40 1  
    42   22   41 1  
    43   23   42 1  
    44   23   43 1  
    45   24   44 1  
    46   24   45 1  
    47   25   46 1  
    48   25   47 1  
    49   26   48 1  
    50   26   49 1  
@<TRIPOS>SUBSTRUCTURE
     1 V90         1

