### 
### Created by X-TOOL on Wed Jan  1 15:39:36 2020
### 

@<TRIPOS>MOLECULE
6fe1_ligand
   51    52     1     0     0
SMALL
GAST_HUCK


@<TRIPOS>ATOM
      1 F20        11.7100  -25.7520  -55.6830 F         1 V14        -0.1949
      2 C5         11.2210  -26.2820  -56.8000 C.ar      1 V14         0.1707
      3 C4          9.8130  -26.7280  -56.8110 C.ar      1 V14         0.1616
      4 S7          8.7780  -26.4080  -55.5870 S.o2      1 V14         0.0636
      5 O9          8.9670  -27.2010  -54.4020 O.2       1 V14        -0.1519
      6 N10         7.2800  -26.5260  -56.1820 N.am      1 V14        -0.2621
      7 O8          8.9550  -24.9930  -55.3500 O.2       1 V14        -0.1519
      8 C3          9.3460  -27.3400  -58.0710 C.ar      1 V14         0.1773
      9 F12         8.1260  -27.7760  -58.2240 F         1 V14        -0.1943
     10 C2         10.1720  -27.5110  -59.2540 C.ar      1 V14         0.1761
     11 F13         9.6450  -28.0530  -60.3670 F         1 V14        -0.1890
     12 C6         12.0860  -26.4400  -58.0210 C.ar      1 V14         0.0935
     13 C1         11.5590  -27.0890  -59.2420 C.ar      1 V14         0.1354
     14 S11        12.3940  -27.2640  -60.6330 S.o2      1 V14        -0.0053
     15 O16        13.6530  -26.5840  -60.5460 O.2       1 V14        -0.1719
     16 O17        11.5980  -26.6160  -61.6300 O.2       1 V14        -0.1719
     17 C15        12.6010  -28.8780  -61.0410 C.3       1 V14         0.0913
     18 C18        13.6200  -29.5700  -60.1530 C.3       1 V14         0.0637
     19 O21        12.9580  -29.9140  -58.9490 O.3       1 V14        -0.3934
     20 N19        13.4020  -26.1890  -58.1310 N.pl3     1 V14        -0.3213
     21 C14        14.4680  -26.2890  -57.1730 C.3       1 V14         0.0338
     22 C28        14.2620  -27.4870  -56.2340 C.3       1 V14        -0.0309
     23 C27        15.5580  -28.1430  -55.7560 C.3       1 V14        -0.0510
     24 C26        16.3000  -27.4930  -54.5850 C.3       1 V14        -0.0530
     25 C25        15.7320  -26.1930  -53.9880 C.3       1 V14        -0.0531
     26 C24        16.2790  -24.9170  -54.6180 C.3       1 V14        -0.0530
     27 C23        16.2100  -24.8600  -56.1270 C.3       1 V14        -0.0510
     28 C22        14.7490  -24.9300  -56.5650 C.3       1 V14        -0.0309
     29 H1          6.4919  -26.3653  -55.5878 H         1 V14         0.1633
     30 H2          7.1412  -26.7597  -57.1444 H         1 V14         0.1633
     31 H3         12.9426  -28.9382  -62.0849 H         1 V14         0.0524
     32 H4         11.6353  -29.3950  -60.9408 H         1 V14         0.0524
     33 H5         14.4591  -28.8909  -59.9414 H         1 V14         0.0573
     34 H6         13.9979  -30.4767  -60.6480 H         1 V14         0.0573
     35 H7         12.2323  -30.4956  -59.1430 H         1 V14         0.2095
     36 H8         13.6975  -25.8694  -59.0645 H         1 V14         0.1735
     37 H9         15.3752  -26.5359  -57.7440 H         1 V14         0.0545
     38 H10        13.6690  -28.2446  -56.7673 H         1 V14         0.0287
     39 H11        13.7054  -27.1405  -55.3508 H         1 V14         0.0287
     40 H12        16.2496  -28.1636  -56.6111 H         1 V14         0.0266
     41 H13        15.3132  -29.1730  -55.4575 H         1 V14         0.0266
     42 H14        17.3214  -27.2733  -54.9292 H         1 V14         0.0265
     43 H15        16.3381  -28.2340  -53.7729 H         1 V14         0.0265
     44 H16        15.9697  -26.1753  -52.9142 H         1 V14         0.0265
     45 H17        14.6402  -26.2016  -54.1218 H         1 V14         0.0265
     46 H18        17.3338  -24.8172  -54.3222 H         1 V14         0.0265
     47 H19        15.7044  -24.0679  -54.2194 H         1 V14         0.0265
     48 H20        16.7631  -25.7100  -56.5531 H         1 V14         0.0266
     49 H21        16.6554  -23.9184  -56.4805 H         1 V14         0.0266
     50 H22        14.0970  -24.7769  -55.6924 H         1 V14         0.0287
     51 H23        14.5523  -24.1466  -57.3117 H         1 V14         0.0287
@<TRIPOS>BOND
     1    1    2 1  
     2    2    3 ar 
     3    2   12 ar 
     4    3    4 1  
     5    3    8 ar 
     6    4    5 2  
     7    4    6 am 
     8    4    7 2  
     9    8    9 1  
    10    8   10 ar 
    11   10   11 1  
    12   10   13 ar 
    13   12   13 ar 
    14   12   20 1  
    15   13   14 1  
    16   14   15 2  
    17   14   16 2  
    18   14   17 1  
    19   17   18 1  
    20   18   19 1  
    21   20   21 1  
    22   21   22 1  
    23   21   28 1  
    24   22   23 1  
    25   23   24 1  
    26   24   25 1  
    27   25   26 1  
    28   26   27 1  
    29   27   28 1  
    30    6   29 1  
    31    6   30 1  
    32   17   31 1  
    33   17   32 1  
    34   18   33 1  
    35   18   34 1  
    36   19   35 1  
    37   20   36 1  
    38   21   37 1  
    39   22   38 1  
    40   22   39 1  
    41   23   40 1  
    42   23   41 1  
    43   24   42 1  
    44   24   43 1  
    45   25   44 1  
    46   25   45 1  
    47   26   46 1  
    48   26   47 1  
    49   27   48 1  
    50   27   49 1  
    51   28   50 1  
    52   28   51 1  
@<TRIPOS>SUBSTRUCTURE
     1 V14         1

