### 
### Created by X-TOOL on Mon Aug  2 16:13:23 2021
### 

@<TRIPOS>MOLECULE
6fe5_ligand
   38    37     1     0     0
SMALL
GAST_HUCK


@<TRIPOS>ATOM
      1 OE1        13.1030   46.9940   39.8140 O.co2     1 D6E        -0.5690
      2 CD         13.8640   47.5640   40.6240 C.2       1 D6E         0.0350
      3 OE2        13.8560   48.7940   40.8410 O.co2     1 D6E        -0.5690
      4 CG         15.0650   46.7920   41.1590 C.3       1 D6E         0.0038
      5 CB         14.8010   45.2630   41.3540 C.3       1 D6E        -0.0066
      6 CA         16.1530   44.5590   41.6920 C.3       1 D6E         0.0962
      7 C          17.1090   44.6850   40.4570 C.2       1 D6E         0.0600
      8 OXT        16.9800   43.8240   39.5470 O.co2     1 D6E        -0.5666
      9 O          17.9920   45.5850   40.4310 O.co2     1 D6E        -0.5666
     10 N          16.8350   45.2030   42.8170 N.am      1 D6E        -0.2575
     11 CAR        18.0990   44.8640   43.1620 C.2       1 D6E         0.2608
     12 OAF        18.5930   43.8100   42.7300 O.2       1 D6E        -0.4006
     13 NAN        18.6780   45.6370   44.0590 N.am      1 D6E        -0.2576
     14 CAU        20.0620   45.4250   44.5220 C.3       1 D6E         0.0949
     15 CAQ        20.2220   46.0070   45.9090 C.2       1 D6E         0.0599
     16 OAI        19.7790   47.1630   46.1180 O.co2     1 D6E        -0.5666
     17 OAE        20.7420   45.2280   46.7370 O.co2     1 D6E        -0.5666
     18 CAL        20.9430   46.1700   43.4770 C.3       1 D6E        -0.0158
     19 CAS        22.4100   46.2990   43.9050 C.3       1 D6E        -0.0431
     20 CAB        23.1790   47.1410   42.8670 C.3       1 D6E        -0.0625
     21 CAA        23.0390   44.8840   43.9490 C.3       1 D6E        -0.0625
     22 H1         15.3472   47.2213   42.1317 H         1 D6E         0.0432
     23 H2         15.8974   46.9118   40.4499 H         1 D6E         0.0432
     24 H3         14.3843   44.8386   40.4287 H         1 D6E         0.0323
     25 H4         14.0894   45.1128   42.1793 H         1 D6E         0.0323
     26 H5         15.9653   43.5007   41.9261 H         1 D6E         0.0724
     27 H6         16.3567   45.9078   43.3410 H         1 D6E         0.1869
     28 H7         18.1566   46.3996   44.4418 H         1 D6E         0.1869
     29 H8         20.3111   44.3538   44.5416 H         1 D6E         0.0723
     30 H9         20.5319   47.1796   43.3295 H         1 D6E         0.0308
     31 H10        20.9034   45.6157   42.5277 H         1 D6E         0.0308
     32 H11        22.4721   46.7735   44.8955 H         1 D6E         0.0297
     33 H12        24.2308   47.2324   43.1757 H         1 D6E         0.0232
     34 H13        22.7282   48.1421   42.8004 H         1 D6E         0.0232
     35 H14        23.1267   46.6491   41.8845 H         1 D6E         0.0232
     36 H15        22.5029   44.2672   44.6853 H         1 D6E         0.0232
     37 H16        24.0976   44.9621   44.2375 H         1 D6E         0.0232
     38 H17        22.9631   44.4179   42.9555 H         1 D6E         0.0232
@<TRIPOS>BOND
     1    1    2 ar 
     2    2    3 ar 
     3    2    4 1  
     4    4    5 1  
     5    5    6 1  
     6    6    7 1  
     7    6   10 1  
     8    7    8 ar 
     9    7    9 ar 
    10   10   11 am 
    11   11   12 2  
    12   11   13 am 
    13   13   14 1  
    14   14   15 1  
    15   14   18 1  
    16   15   16 ar 
    17   15   17 ar 
    18   18   19 1  
    19   19   20 1  
    20   19   21 1  
    21    4   22 1  
    22    4   23 1  
    23    5   24 1  
    24    5   25 1  
    25    6   26 1  
    26   10   27 1  
    27   13   28 1  
    28   14   29 1  
    29   18   30 1  
    30   18   31 1  
    31   19   32 1  
    32   20   33 1  
    33   20   34 1  
    34   20   35 1  
    35   21   36 1  
    36   21   37 1  
    37   21   38 1  
@<TRIPOS>SUBSTRUCTURE
     1 D6E         1

