### 
### Created by X-TOOL on Wed Jan  1 15:39:37 2020
### 

@<TRIPOS>MOLECULE
6fer_ligand
   56    60     1     0     0
SMALL
GAST_HUCK


@<TRIPOS>ATOM
      1 N3         51.0670  -26.8710   49.7940 N.ar      1 D6Q        -0.2870
      2 C4         52.0270  -26.6790   48.8290 C.ar      1 D6Q         0.0646
      3 C7         53.5820  -25.7140   47.4570 C.2       1 D6Q         0.1174
      4 C8         52.6360  -25.4120   48.5020 C.ar      1 D6Q         0.0663
      5 C10        50.6610  -23.3220   50.9650 C.2       1 D6Q         0.2154
      6 N12        51.2440  -22.9280   52.1860 N.am      1 D6Q        -0.2736
      7 C13        50.7120  -21.6940   52.7720 C.3       1 D6Q         0.0230
      8 C15        52.9570  -20.5600   52.1370 C.3       1 D6Q         0.0372
      9 C17        52.7440  -23.0400   52.3520 C.3       1 D6Q         0.0230
     10 C21        53.3840  -20.2350   53.5730 C.2       1 D6Q         0.2100
     11 C24        55.8150  -18.5600   54.9180 C.2       1 D6Q         0.2065
     12 C28        57.9380  -19.1420   57.4560 C.3       1 D6Q         0.4095
     13 C1         51.2340  -24.4390   50.1790 C.ar      1 D6Q         0.0791
     14 C14        51.3970  -20.5080   52.0430 C.3       1 D6Q        -0.0558
     15 C16        53.5210  -21.8780   51.6760 C.3       1 D6Q        -0.0558
     16 C18        53.5330  -19.4000   51.4060 C.ar      1 D6Q         0.0067
     17 C19        53.8960  -18.3890   52.3100 C.ar      1 D6Q         0.0944
     18 C2         50.7070  -25.7400   50.4340 C.ar      1 D6Q         0.0314
     19 C23        54.3170  -18.2780   54.8160 C.3       1 D6Q         0.1503
     20 C27        57.8710  -18.2290   56.2210 C.3       1 D6Q         0.1260
     21 C32        54.2730  -17.1480   51.9060 C.ar      1 D6Q        -0.0144
     22 C33        54.3190  -16.8800   50.5330 C.ar      1 D6Q        -0.0150
     23 C34        54.0130  -17.8620   49.6220 C.ar      1 D6Q         0.1769
     24 C35        53.6230  -19.1550   50.0700 C.ar      1 D6Q         0.1775
     25 C9         52.2180  -24.2540   49.2060 C.ar      1 D6Q        -0.0073
     26 F29        57.6560  -18.5030   58.5840 F         1 D6Q        -0.1685
     27 F30        57.0260  -20.1130   57.3320 F         1 D6Q        -0.1685
     28 F31        59.1190  -19.7290   57.6570 F         1 D6Q        -0.1685
     29 F36        53.4030  -20.1030   49.1980 F         1 D6Q        -0.1654
     30 F37        54.0860  -17.5960   48.3070 F         1 D6Q        -0.1884
     31 N20        53.8600  -18.9100   53.6040 N.am      1 D6Q        -0.1905
     32 N26        56.4620  -18.0320   56.0230 N.am      1 D6Q        -0.2761
     33 N5         52.6090  -27.6140   47.9960 N.2       1 D6Q        -0.3141
     34 N6         53.5460  -27.0210   47.1750 N.pl3     1 D6Q        -0.2418
     35 O11        49.6850  -22.7380   50.5600 O.2       1 D6Q        -0.3814
     36 O22        53.3730  -20.9090   54.5880 O.2       1 D6Q        -0.3220
     37 O25        56.4050  -19.2100   54.0540 O.2       1 D6Q        -0.3941
     38 H1         54.2295  -24.9864   46.9698 H         1 D6Q         0.1383
     39 H2         50.9407  -21.6582   53.8473 H         1 D6Q         0.0510
     40 H3         49.6226  -21.6470   52.6270 H         1 D6Q         0.0510
     41 H4         53.0756  -23.9890   51.9055 H         1 D6Q         0.0510
     42 H5         52.9782  -23.0388   53.4268 H         1 D6Q         0.0510
     43 H6         51.0486  -19.5682   52.4961 H         1 D6Q         0.0145
     44 H7         51.1077  -20.5330   50.9820 H         1 D6Q         0.0145
     45 H8         54.5840  -21.9385   51.9524 H         1 D6Q         0.0145
     46 H9         53.4211  -21.9573   50.5834 H         1 D6Q         0.0145
     47 H10        49.9531  -25.8267   51.2080 H         1 D6Q         0.0879
     48 H11        54.1373  -17.1938   54.7695 H         1 D6Q         0.0852
     49 H12        53.7914  -18.6999   55.6853 H         1 D6Q         0.0852
     50 H13        58.3260  -18.7171   55.3465 H         1 D6Q         0.0609
     51 H14        58.3784  -17.2719   56.4121 H         1 D6Q         0.0609
     52 H15        54.5320  -16.3836   52.6296 H         1 D6Q         0.0547
     53 H16        54.5978  -15.8915   50.1862 H         1 D6Q         0.0786
     54 H17        52.6401  -23.2771   48.9996 H         1 D6Q         0.0800
     55 H18        55.9398  -17.5052   56.6937 H         1 D6Q         0.1855
     56 H19        54.1190  -27.5019   46.4670 H         1 D6Q         0.2937
@<TRIPOS>BOND
     1    1    2 ar 
     2   18    1 ar 
     3    4    2 ar 
     4    2   33 2  
     5    4    3 2  
     6    3   34 1  
     7   25    4 ar 
     8    6    5 am 
     9    5   13 1  
    10    5   35 2  
    11    7    6 1  
    12    9    6 1  
    13   14    7 1  
    14   10    8 1  
    15    8   14 1  
    16    8   15 1  
    17   16    8 1  
    18   15    9 1  
    19   31   10 am 
    20   10   36 2  
    21   11   19 1  
    22   32   11 am 
    23   11   37 2  
    24   20   12 1  
    25   12   26 1  
    26   12   27 1  
    27   12   28 1  
    28   13   18 ar 
    29   13   25 ar 
    30   17   16 ar 
    31   16   24 ar 
    32   17   21 ar 
    33   31   17 1  
    34   19   31 1  
    35   20   32 1  
    36   21   22 ar 
    37   22   23 ar 
    38   23   24 ar 
    39   23   30 1  
    40   24   29 1  
    41   33   34 1  
    42    3   38 1  
    43    7   39 1  
    44    7   40 1  
    45    9   41 1  
    46    9   42 1  
    47   14   43 1  
    48   14   44 1  
    49   15   45 1  
    50   15   46 1  
    51   18   47 1  
    52   19   48 1  
    53   19   49 1  
    54   20   50 1  
    55   20   51 1  
    56   21   52 1  
    57   22   53 1  
    58   25   54 1  
    59   32   55 1  
    60   34   56 1  
@<TRIPOS>SUBSTRUCTURE
     1 D6Q         1

