### 
### Created by X-TOOL on Wed Jan  1 15:39:38 2020
### 

@<TRIPOS>MOLECULE
6few_ligand
   59    63     1     0     0
SMALL
GAST_HUCK


@<TRIPOS>ATOM
      1 C4         -3.7430   -4.6530   17.0610 C.3       1 D6W         0.0002
      2 C5         -4.0600   -3.2980   16.4330 C.3       1 D6W         0.0349
      3 C8         -3.6440   -8.1020   16.5050 C.3       1 D6W         0.1164
      4 C10        -3.7870   -6.1800   15.1040 C.2       1 D6W         0.2301
      5 C13        -4.2520   -8.2660   19.3170 C.ar      1 D6W        -0.0444
      6 C15        -5.3770   -7.4750   21.3290 C.ar      1 D6W        -0.0751
      7 C17        -5.5300   -6.2190   19.2800 C.ar      1 D6W        -0.0444
      8 C20        -5.5570   -1.3040   18.2070 C.ar      1 D6W         0.0511
      9 C21        -4.7970   -1.8530   19.2220 C.ar      1 D6W        -0.0269
     10 C22        -4.2070   -0.9850   20.1310 C.ar      1 D6W         0.0384
     11 C24        -5.2000    0.9730   18.9900 C.ar      1 D6W        -0.0531
     12 C26        -3.3640   -1.1740   21.2540 C.2       1 D6W         0.1104
     13 C1         -6.1690   -4.0140   15.4560 C.3       1 D6W         0.0349
     14 C2         -5.9870   -5.4250   16.0340 C.3       1 D6W         0.0002
     15 C3         -4.5260   -5.7960   16.3740 C.3       1 D6W         0.1349
     16 N6         -5.5280   -3.1120   16.4240 N.am      1 D6W        -0.2725
     17 N7         -4.4660   -7.0580   17.1880 N.pl3     1 D6W        -0.2776
     18 N9         -3.5750   -7.5540   15.1030 N.am      1 D6W        -0.2314
     19 O11        -3.4240   -5.4470   14.2140 O.2       1 D6W        -0.3417
     20 C12        -4.7320   -7.1760   18.6170 C.ar      1 D6W         0.0411
     21 C14        -4.5790   -8.4060   20.6770 C.ar      1 D6W        -0.0737
     22 C16        -5.8540   -6.3720   20.6380 C.ar      1 D6W        -0.0737
     23 C18        -6.2390   -2.1640   17.1920 C.2       1 D6W         0.2074
     24 O19        -7.4440   -2.0020   17.0010 O.2       1 D6W        -0.3845
     25 C23        -4.4140    0.4170   20.0150 C.ar      1 D6W        -0.0092
     26 C25        -5.7590    0.0940   18.0870 C.ar      1 D6W        -0.0419
     27 N27        -3.0680    0.0240   21.8090 N.pl3     1 D6W        -0.2442
     28 N28        -3.6960    0.9890   21.0640 N.2       1 D6W        -0.3319
     29 C29        -2.7460   -8.2060   14.1080 C.3       1 D6W         0.1248
     30 C30        -1.2540   -7.9150   14.3170 C.2       1 D6W         0.1987
     31 O31        -0.8270   -7.0460   15.0960 O.2       1 D6W        -0.3948
     32 N32        -0.3840   -8.6910   13.5660 N.am      1 D6W        -0.2883
     33 C33         1.0620   -8.4870   13.6970 C.3       1 D6W         0.0196
     34 H1         -4.0142   -4.6248   18.1267 H         1 D6W         0.0296
     35 H2         -2.6651   -4.8490   16.9620 H         1 D6W         0.0296
     36 H3         -3.6768   -3.2688   15.4023 H         1 D6W         0.0521
     37 H4         -3.5890   -2.4974   17.0222 H         1 D6W         0.0521
     38 H5         -4.1391   -9.0840   16.5294 H         1 D6W         0.0787
     39 H6         -2.6435   -8.1845   16.9546 H         1 D6W         0.0787
     40 H7         -3.6306   -9.0045   18.8234 H         1 D6W         0.0515
     41 H8         -5.6262   -7.6104   22.3753 H         1 D6W         0.0505
     42 H9         -5.8968   -5.3566   18.7352 H         1 D6W         0.0515
     43 H10        -4.6658   -2.9258   19.3058 H         1 D6W         0.0680
     44 H11        -5.3589    2.0426   18.9135 H         1 D6W         0.0630
     45 H12        -3.0082   -2.1376   21.6157 H         1 D6W         0.1370
     46 H13        -7.2377   -3.7740   15.3551 H         1 D6W         0.0521
     47 H14        -5.6809   -3.9343   14.4735 H         1 D6W         0.0521
     48 H15        -6.3623   -6.1493   15.2961 H         1 D6W         0.0296
     49 H16        -6.5831   -5.4981   16.9556 H         1 D6W         0.0296
     50 H17        -4.2002   -9.2588   21.2286 H         1 D6W         0.0583
     51 H18        -6.4705   -5.6354   21.1404 H         1 D6W         0.0583
     52 H19        -6.3625    0.4779   17.2724 H         1 D6W         0.0669
     53 H20        -2.4789    0.1822   22.6390 H         1 D6W         0.2935
     54 H21        -3.0407   -7.8472   13.1108 H         1 D6W         0.0768
     55 H22        -2.9071   -9.2924   14.1692 H         1 D6W         0.0768
     56 H23        -0.7402   -9.3845   12.9398 H         1 D6W         0.1848
     57 H24         1.5924   -9.1845   13.0320 H         1 D6W         0.0484
     58 H25         1.3654   -8.6708   14.7382 H         1 D6W         0.0484
     59 H26         1.3131   -7.4528   13.4190 H         1 D6W         0.0484
@<TRIPOS>BOND
     1    1    2 1  
     2   15    1 1  
     3    2   16 1  
     4   17    3 1  
     5    3   18 1  
     6   15    4 1  
     7    4   18 am 
     8    4   19 2  
     9   20    5 ar 
    10    5   21 ar 
    11   21    6 ar 
    12   22    6 ar 
    13   20    7 ar 
    14    7   22 ar 
    15    8    9 ar 
    16   23    8 1  
    17    8   26 ar 
    18    9   10 ar 
    19   10   12 2  
    20   10   25 ar 
    21   11   25 ar 
    22   26   11 ar 
    23   12   27 1  
    24   14   13 1  
    25   13   16 1  
    26   15   14 1  
    27   17   15 1  
    28   16   23 am 
    29   17   20 1  
    30   18   29 1  
    31   23   24 2  
    32   25   28 2  
    33   27   28 1  
    34   29   30 1  
    35   30   31 2  
    36   30   32 am 
    37   32   33 1  
    38    1   34 1  
    39    1   35 1  
    40    2   36 1  
    41    2   37 1  
    42    3   38 1  
    43    3   39 1  
    44    5   40 1  
    45    6   41 1  
    46    7   42 1  
    47    9   43 1  
    48   11   44 1  
    49   12   45 1  
    50   13   46 1  
    51   13   47 1  
    52   14   48 1  
    53   14   49 1  
    54   21   50 1  
    55   22   51 1  
    56   26   52 1  
    57   27   53 1  
    58   29   54 1  
    59   29   55 1  
    60   32   56 1  
    61   33   57 1  
    62   33   58 1  
    63   33   59 1  
@<TRIPOS>SUBSTRUCTURE
     1 D6W         1

