### 
### Created by X-TOOL on Wed Jan  1 15:39:34 2020
### 

@<TRIPOS>MOLECULE
6fex_ligand
   56    60     1     0     0
SMALL
GAST_HUCK


@<TRIPOS>ATOM
      1 C4        -15.4460   -8.9410  -11.3760 C.ar      1 D6Z        -0.0442
      2 C5        -15.0500   -8.6430  -12.6670 C.ar      1 D6Z        -0.0062
      3 C6        -15.2370   -7.3550  -13.1410 C.ar      1 D6Z         0.1014
      4 C8        -14.3150   -7.6100  -15.4780 C.3       1 D6Z         0.1515
      5 C13        -9.9670   -8.1910  -17.3230 C.3       1 D6Z         0.4095
      6 C17       -15.2410   -5.5310  -14.4980 C.2       1 D6Z         0.2145
      7 C20       -15.1780   -3.8840  -12.5460 C.3       1 D6Z        -0.0543
      8 C21       -15.5280   -2.5800  -13.2390 C.3       1 D6Z         0.0233
      9 C24       -17.3840   -4.7750  -13.4780 C.3       1 D6Z        -0.0543
     10 C26       -17.0270   -0.5600  -11.7160 C.ar      1 D6Z         0.1103
     11 C28       -16.6470    1.5770  -10.7530 C.ar      1 D6Z        -0.0109
     12 C12       -10.6850   -8.5430  -16.0670 C.3       1 D6Z         0.1260
     13 C19       -15.8950   -5.1000  -13.1790 C.3       1 D6Z         0.0385
     14 C2        -16.1640   -6.6800  -11.0600 C.ar      1 D6Z         0.0199
     15 C23       -17.5670   -3.4400  -14.1840 C.3       1 D6Z         0.0233
     16 C25       -17.7150   -1.4750  -12.6920 C.2       1 D6Z         0.2211
     17 C27       -17.2770    0.8050  -11.7080 C.ar      1 D6Z        -0.0225
     18 C29       -15.8180    0.9310   -9.8390 C.ar      1 D6Z         0.1179
     19 C3        -16.0020   -7.9670  -10.5670 C.ar      1 D6Z        -0.0390
     20 C30       -15.6150   -0.4520   -9.8620 C.ar      1 D6Z         0.0823
     21 C32       -14.7440   -0.7590   -8.7920 C.2       1 D6Z         0.0413
     22 C36       -15.7950   -6.3570  -12.3500 C.ar      1 D6Z        -0.0187
     23 C9        -12.8010   -7.5400  -15.3740 C.2       1 D6Z         0.2067
     24 F14       -10.0640   -6.9170  -17.6050 F         1 D6Z        -0.1685
     25 F15        -8.6600   -8.4470  -17.2430 F         1 D6Z        -0.1685
     26 F16       -10.4610   -8.8390  -18.3850 F         1 D6Z        -0.1685
     27 N11       -12.1240   -8.3700  -16.1650 N.am      1 D6Z        -0.2761
     28 N22       -16.9850   -2.4020  -13.3360 N.am      1 D6Z        -0.2734
     29 N31       -16.2510   -1.1720  -10.8070 N.ar      1 D6Z        -0.2843
     30 N33       -14.4030    0.3560   -8.1620 N.2       1 D6Z        -0.1948
     31 N34       -15.0590    1.3680   -8.7930 N.pl3     1 D6Z        -0.2015
     32 N7        -14.9380   -6.8550  -14.4030 N.am      1 D6Z        -0.1862
     33 O10       -12.2560   -6.7710  -14.5830 O.2       1 D6Z        -0.3941
     34 O18       -15.0440   -4.8230  -15.4720 O.2       1 D6Z        -0.3189
     35 O35       -18.9200   -1.3810  -12.8260 O.2       1 D6Z        -0.3812
     36 BR1       -16.9540   -5.3990   -9.8910 Br        1 D6Z        -0.0328
     37 H1        -15.3194   -9.9477  -10.9945 H         1 D6Z         0.0805
     38 H2        -14.6016   -9.4032  -13.2963 H         1 D6Z         0.0618
     39 H3        -14.6335   -8.6609  -15.4132 H         1 D6Z         0.0855
     40 H4        -14.6306   -7.1901  -16.4445 H         1 D6Z         0.0855
     41 H5        -15.4720   -3.8119  -11.4885 H         1 D6Z         0.0148
     42 H6        -14.0913   -4.0398  -12.6147 H         1 D6Z         0.0148
     43 H7        -15.0993   -2.5860  -14.2520 H         1 D6Z         0.0510
     44 H8        -15.1020   -1.7436  -12.6655 H         1 D6Z         0.0510
     45 H9        -17.9354   -4.7476  -12.5266 H         1 D6Z         0.0148
     46 H10       -17.7954   -5.5698  -14.1176 H         1 D6Z         0.0148
     47 H11       -16.7926    2.6505  -10.7155 H         1 D6Z         0.0703
     48 H12       -10.3096   -7.9000  -15.2573 H         1 D6Z         0.0609
     49 H13       -10.4747   -9.5956  -15.8268 H         1 D6Z         0.0609
     50 H14       -18.6381   -3.2413  -14.3367 H         1 D6Z         0.0510
     51 H15       -17.0551   -3.4583  -15.1574 H         1 D6Z         0.0510
     52 H16       -17.9485    1.2525  -12.4318 H         1 D6Z         0.0702
     53 H17       -16.3089   -8.2070   -9.5554 H         1 D6Z         0.0622
     54 H18       -14.4049   -1.7591   -8.5259 H         1 D6Z         0.0745
     55 H19       -12.6255   -8.8945  -16.8531 H         1 D6Z         0.1855
     56 H20       -14.9899    2.3563   -8.5114 H         1 D6Z         0.2500
@<TRIPOS>BOND
     1    2    1 ar 
     2    1   19 ar 
     3    3    2 ar 
     4    3   22 ar 
     5   32    3 1  
     6   23    4 1  
     7    4   32 1  
     8   12    5 1  
     9    5   24 1  
    10    5   25 1  
    11    5   26 1  
    12    6   13 1  
    13   32    6 am 
    14    6   34 2  
    15    7    8 1  
    16   13    7 1  
    17    8   28 1  
    18   13    9 1  
    19    9   15 1  
    20   16   10 1  
    21   10   17 ar 
    22   10   29 ar 
    23   17   11 ar 
    24   11   18 ar 
    25   27   12 1  
    26   13   22 1  
    27   14   19 ar 
    28   22   14 ar 
    29   14   36 1  
    30   15   28 1  
    31   28   16 am 
    32   16   35 2  
    33   20   18 ar 
    34   18   31 1  
    35   20   21 1  
    36   29   20 ar 
    37   21   30 2  
    38   23   27 am 
    39   23   33 2  
    40   30   31 1  
    41    1   37 1  
    42    2   38 1  
    43    4   39 1  
    44    4   40 1  
    45    7   41 1  
    46    7   42 1  
    47    8   43 1  
    48    8   44 1  
    49    9   45 1  
    50    9   46 1  
    51   11   47 1  
    52   12   48 1  
    53   12   49 1  
    54   15   50 1  
    55   15   51 1  
    56   17   52 1  
    57   19   53 1  
    58   21   54 1  
    59   27   55 1  
    60   31   56 1  
@<TRIPOS>SUBSTRUCTURE
     1 D6Z         1

