### 
### Created by X-TOOL on Mon Aug  2 16:13:23 2021
### 

@<TRIPOS>MOLECULE
6ffe_ligand
   45    48     1     0     0
SMALL
GAST_HUCK


@<TRIPOS>ATOM
      1 C10        41.8770   17.0480    9.3840 C.3       1 D7Q         0.0551
      2 C17        40.1100   18.1850   12.0730 C.ar      1 D7Q        -0.0074
      3 C20        38.3340   16.7950   12.9350 C.ar      1 D7Q        -0.0659
      4 C22        38.6290   17.1960   14.2190 C.ar      1 D7Q        -0.0651
      5 C24        39.6590   18.0900   14.4490 C.ar      1 D7Q        -0.0542
      6 C26        40.4080   18.5910   13.3830 C.ar      1 D7Q         0.0135
      7 C01        39.1830   15.3610    5.8160 C.3       1 D7Q         0.0312
      8 C05        40.5050   15.4640    6.5140 C.2       1 D7Q         0.2001
      9 O06        41.3100   14.5470    6.4610 O.2       1 D7Q        -0.3866
     10 N07        40.7920   16.6100    7.2290 N.am      1 D7Q        -0.2187
     11 C08        42.1000   16.6770    7.9250 C.3       1 D7Q         0.0928
     12 N13        40.7040   17.8760    9.6900 N.pl3     1 D7Q        -0.2995
     13 C14        40.8950   18.6950   10.8880 C.3       1 D7Q         0.0604
     14 C18        39.0670   17.2850   11.8700 C.ar      1 D7Q        -0.0547
     15 C27        41.5090   19.5510   13.6820 C.2       1 D7Q         0.0587
     16 O28        42.4330   19.0890   14.4710 O.co2     1 D7Q        -0.5630
     17 O30        41.5320   20.6800   13.2080 O.co2     1 D7Q        -0.5630
     18 C31        39.9250   18.4020    8.5970 C.ar      1 D7Q         0.0657
     19 C32        39.1170   19.5240    8.7770 C.ar      1 D7Q        -0.0569
     20 C34        38.3700   20.0060    7.7170 C.ar      1 D7Q        -0.0893
     21 C36        38.4110   19.3790    6.4900 C.ar      1 D7Q        -0.0890
     22 C38        39.2040   18.2610    6.2970 C.ar      1 D7Q        -0.0520
     23 C40        39.9480   17.7500    7.3560 C.ar      1 D7Q         0.0892
     24 C41        43.1020   17.5610    7.1920 C.3       1 D7Q         0.0249
     25 C43        43.9980   16.9330    6.1710 C.2       1 D7Q        -0.0778
     26 C46        44.5580   17.3550    7.4820 C.2       1 D7Q        -0.0778
     27 H1         42.7676   17.5949    9.7271 H         1 D7Q         0.0538
     28 H2         41.7797   16.1118    9.9532 H         1 D7Q         0.0538
     29 H3         37.5259   16.0942   12.7590 H         1 D7Q         0.0621
     30 H4         38.0524   16.8099   15.0518 H         1 D7Q         0.0566
     31 H5         39.8856   18.4030   15.4618 H         1 D7Q         0.0633
     32 H6         38.6070   16.2830    5.9837 H         1 D7Q         0.0471
     33 H7         38.6238   14.5018    6.2147 H         1 D7Q         0.0471
     34 H8         39.3477   15.2227    4.7372 H         1 D7Q         0.0471
     35 H9         42.5244   15.6622    7.9175 H         1 D7Q         0.0645
     36 H10        41.9639   18.6952   11.1475 H         1 D7Q         0.0681
     37 H11        40.5711   19.7227   10.6671 H         1 D7Q         0.0681
     38 H12        38.8264   16.9641   10.8629 H         1 D7Q         0.0564
     39 H13        39.0744   20.0158    9.7421 H         1 D7Q         0.0466
     40 H14        37.7478   20.8833    7.8523 H         1 D7Q         0.0454
     41 H15        37.8172   19.7648    5.6693 H         1 D7Q         0.0466
     42 H16        39.2453   17.7851    5.3239 H         1 D7Q         0.0459
     43 H17        42.6895   18.5690    7.0379 H         1 D7Q         0.0413
     44 H18        44.1378   16.4900    5.1861 H         1 D7Q         0.0576
     45 H19        45.4063   17.4471    8.1586 H         1 D7Q         0.0576
@<TRIPOS>BOND
     1    1   11 1  
     2   12    1 1  
     3    2    6 ar 
     4   13    2 1  
     5    2   14 ar 
     6    3    4 ar 
     7   14    3 ar 
     8    5    4 ar 
     9    6    5 ar 
    10    6   15 1  
    11    8    7 1  
    12    8    9 2  
    13   10    8 am 
    14   11   10 1  
    15   10   23 1  
    16   11   24 1  
    17   12   13 1  
    18   12   18 1  
    19   15   16 ar 
    20   15   17 ar 
    21   18   19 ar 
    22   18   23 ar 
    23   19   20 ar 
    24   20   21 ar 
    25   21   22 ar 
    26   22   23 ar 
    27   24   25 1  
    28   24   26 1  
    29   25   26 2  
    30    1   27 1  
    31    1   28 1  
    32    3   29 1  
    33    4   30 1  
    34    5   31 1  
    35    7   32 1  
    36    7   33 1  
    37    7   34 1  
    38   11   35 1  
    39   13   36 1  
    40   13   37 1  
    41   14   38 1  
    42   19   39 1  
    43   20   40 1  
    44   21   41 1  
    45   22   42 1  
    46   24   43 1  
    47   25   44 1  
    48   26   45 1  
@<TRIPOS>SUBSTRUCTURE
     1 D7Q         1

