### 
### Created by X-TOOL on Mon Aug  2 16:13:23 2021
### 

@<TRIPOS>MOLECULE
6fff_ligand
   59    63     1     0     0
SMALL
GAST_HUCK


@<TRIPOS>ATOM
      1 C10        42.7010   16.7180    9.3310 C.3       1 D7H         0.0552
      2 C17        40.7970   17.7650   12.1370 C.ar      1 D7H        -0.0178
      3 C20        38.8290   16.5980   12.9170 C.ar      1 D7H        -0.0754
      4 C22        39.1040   16.9830   14.2100 C.ar      1 D7H        -0.0754
      5 C24        40.2210   17.7530   14.4790 C.ar      1 D7H        -0.0646
      6 C26        41.0800   18.1530   13.4570 C.ar      1 D7H        -0.0139
      7 C01        39.6790   15.0900    5.8700 C.3       1 D7H         0.0316
      8 C05        41.0320   15.0830    6.5120 C.2       1 D7H         0.2022
      9 O06        41.7810   14.1270    6.3980 O.2       1 D7H        -0.3854
     10 N07        41.4140   16.1890    7.2340 N.am      1 D7H        -0.2155
     11 C08        42.7370   16.2150    7.8960 C.3       1 D7H         0.0942
     12 N13        41.4630   17.3700    9.7730 N.pl3     1 D7H        -0.3005
     13 C14        41.6970   18.1550   10.9860 C.3       1 D7H         0.0557
     14 C18        39.6680   16.9860   11.8880 C.ar      1 D7H        -0.0649
     15 C27        42.2920   18.9950   13.7840 C.3       1 D7H         0.0758
     16 O30        42.2030   20.2980   13.2330 O.3       1 D7H        -0.3837
     17 C32        40.6900   17.9520    8.6970 C.ar      1 D7H         0.0697
     18 C33        39.9590   19.1070    8.9440 C.ar      1 D7H        -0.0450
     19 C35        39.1830   19.6960    7.9470 C.ar      1 D7H        -0.0296
     20 C36        39.1730   19.1120    6.6830 C.ar      1 D7H        -0.0755
     21 C38        39.8880   17.9580    6.4180 C.ar      1 D7H        -0.0465
     22 C40        40.6300   17.3580    7.4310 C.ar      1 D7H         0.0944
     23 C41        38.4530   20.9540    8.2250 C.ar      1 D7H         0.0249
     24 C42        37.2100   21.2620    7.6880 C.ar      1 D7H         0.0370
     25 N44        36.5590   22.4030    7.9360 N.ar      1 D7H        -0.2475
     26 C45        37.2040   23.2370    8.7500 C.ar      1 D7H         0.1994
     27 N46        38.3940   23.0500    9.3140 N.ar      1 D7H        -0.2475
     28 C47        38.9840   21.9390    9.0430 C.ar      1 D7H         0.0370
     29 C49        36.5190   24.5510    9.0560 C.2       1 D7H         0.2433
     30 N50        37.3590   25.5800    9.1230 N.am      1 D7H        -0.2955
     31 O53        35.2970   24.6480    9.2460 O.2       1 D7H        -0.3730
     32 C54        43.6840   17.1080    7.1120 C.3       1 D7H         0.0253
     33 C56        45.1490   16.8710    7.3000 C.2       1 D7H        -0.0778
     34 C59        44.5090   16.5320    6.0000 C.2       1 D7H        -0.0778
     35 H1         43.5196   17.4430    9.4501 H         1 D7H         0.0538
     36 H2         42.8764   15.8553    9.9905 H         1 D7H         0.0538
     37 H3         37.9558   15.9914   12.7056 H         1 D7H         0.0541
     38 H4         38.4453   16.6827   15.0169 H         1 D7H         0.0541
     39 H5         40.4315   18.0498   15.5001 H         1 D7H         0.0538
     40 H6         39.1710   16.0392    6.0956 H         1 D7H         0.0472
     41 H7         39.0828   14.2529    6.2620 H         1 D7H         0.0472
     42 H8         39.7894   14.9831    4.7808 H         1 D7H         0.0472
     43 H9         43.1321   15.1884    7.9012 H         1 D7H         0.0650
     44 H10        42.7424   18.0126   11.2971 H         1 D7H         0.0657
     45 H11        41.5250   19.2162   10.7530 H         1 D7H         0.0657
     46 H12        39.4442   16.6797   10.8725 H         1 D7H         0.0538
     47 H13        43.1871   18.4997   13.3796 H         1 D7H         0.0706
     48 H14        42.3813   19.0780   14.8772 H         1 D7H         0.0706
     49 H15        42.1319   20.2367   12.2877 H         1 D7H         0.2124
     50 H16        39.9926   19.5581    9.9291 H         1 D7H         0.0485
     51 H17        38.5931   19.5711    5.8905 H         1 D7H         0.0503
     52 H18        39.8705   17.5228    5.4254 H         1 D7H         0.0476
     53 H19        36.7418   20.5374    7.0316 H         1 D7H         0.0932
     54 H20        39.9589   21.7620    9.4827 H         1 D7H         0.0932
     55 H21        37.0118   26.4968    9.3201 H         1 D7H         0.1814
     56 H22        38.3378   25.4368    8.9763 H         1 D7H         0.1814
     57 H23        43.2743   18.1256    7.0311 H         1 D7H         0.0413
     58 H24        46.0367   16.9147    7.9293 H         1 D7H         0.0576
     59 H25        44.5845   16.1471    4.9841 H         1 D7H         0.0576
@<TRIPOS>BOND
     1    1   11 1  
     2   12    1 1  
     3    2    6 ar 
     4   13    2 1  
     5    2   14 ar 
     6    3    4 ar 
     7   14    3 ar 
     8    5    4 ar 
     9    6    5 ar 
    10    6   15 1  
    11    8    7 1  
    12    8    9 2  
    13   10    8 am 
    14   11   10 1  
    15   10   22 1  
    16   11   32 1  
    17   12   13 1  
    18   12   17 1  
    19   15   16 1  
    20   17   18 ar 
    21   17   22 ar 
    22   18   19 ar 
    23   19   20 ar 
    24   19   23 1  
    25   20   21 ar 
    26   21   22 ar 
    27   23   24 ar 
    28   23   28 ar 
    29   24   25 ar 
    30   25   26 ar 
    31   26   27 ar 
    32   26   29 1  
    33   27   28 ar 
    34   29   30 am 
    35   29   31 2  
    36   32   33 1  
    37   32   34 1  
    38   33   34 2  
    39    1   35 1  
    40    1   36 1  
    41    3   37 1  
    42    4   38 1  
    43    5   39 1  
    44    7   40 1  
    45    7   41 1  
    46    7   42 1  
    47   11   43 1  
    48   13   44 1  
    49   13   45 1  
    50   14   46 1  
    51   15   47 1  
    52   15   48 1  
    53   16   49 1  
    54   18   50 1  
    55   20   51 1  
    56   21   52 1  
    57   24   53 1  
    58   28   54 1  
    59   30   55 1  
    60   30   56 1  
    61   32   57 1  
    62   33   58 1  
    63   34   59 1  
@<TRIPOS>SUBSTRUCTURE
     1 D7H         1

