### 
### Created by X-TOOL on Mon Aug  2 16:13:23 2021
### 

@<TRIPOS>MOLECULE
6ffg_ligand
   61    65     1     0     0
SMALL
GAST_HUCK


@<TRIPOS>ATOM
      1 C10        42.1620   16.9200    9.5740 C.3       1 D7B         0.0550
      2 C17        40.5540   18.1640   12.1520 C.ar      1 D7B        -0.0178
      3 C20        38.7590   16.6790   12.7840 C.ar      1 D7B        -0.0754
      4 C22        38.9370   17.0150   14.1070 C.ar      1 D7B        -0.0754
      5 C24        39.9170   17.9210   14.4630 C.ar      1 D7B        -0.0646
      6 C26        40.7370   18.5050   13.5000 C.ar      1 D7B        -0.0139
      7 C01        39.3240   15.5150    6.0220 C.3       1 D7B         0.0313
      8 C05        40.6620   15.5000    6.6890 C.2       1 D7B         0.2008
      9 O06        41.4190   14.5490    6.5860 O.2       1 D7B        -0.3861
     10 N07        41.0120   16.5940    7.4380 N.am      1 D7B        -0.2185
     11 C08        42.3420   16.5930    8.0990 C.3       1 D7B         0.0932
     12 N13        41.2600   18.0430    9.7900 N.pl3     1 D7B        -0.3014
     13 C14        41.4060   18.7560   11.0570 C.3       1 D7B         0.0556
     14 C18        39.5610   17.2490   11.8140 C.ar      1 D7B        -0.0649
     15 C27        41.8010   19.4930   13.9130 C.3       1 D7B         0.0758
     16 O30        43.0900   18.9040   13.9510 O.3       1 D7B        -0.3837
     17 C32        40.3640   18.4820    8.7850 C.ar      1 D7B         0.0641
     18 C33        39.6240   19.6390    9.0000 C.ar      1 D7B        -0.0535
     19 C35        38.7350   20.0900    8.0280 C.ar      1 D7B        -0.0577
     20 C36        38.6040   19.3690    6.8450 C.ar      1 D7B        -0.0840
     21 C38        39.3390   18.2180    6.6260 C.ar      1 D7B        -0.0520
     22 C40        40.2180   17.7640    7.6020 C.ar      1 D7B         0.0892
     23 C41        37.9450   21.3260    8.2500 C.2       1 D7B        -0.0548
     24 C42        36.7060   21.4960    7.7540 C.2       1 D7B        -0.0463
     25 C44        35.8530   22.7210    7.9470 C.3       1 D7B        -0.0150
     26 N47        36.6590   23.8500    8.4230 N.4       1 D7B         0.2387
     27 C49        37.5630   23.4290    9.4830 C.3       1 D7B        -0.0259
     28 C52        38.5950   22.4000    9.0670 C.3       1 D7B         0.0099
     29 C55        43.2660   17.5380    7.3400 C.3       1 D7B         0.0251
     30 C57        44.7420   17.3190    7.4590 C.2       1 D7B        -0.0778
     31 C60        44.0510   17.0000    6.1810 C.2       1 D7B        -0.0778
     32 H1         43.1440   17.1688   10.0026 H         1 D7B         0.0538
     33 H2         41.7526   16.0356   10.0841 H         1 D7B         0.0538
     34 H3         37.9904   15.9679   12.5035 H         1 D7B         0.0541
     35 H4         38.3084   16.5688   14.8691 H         1 D7B         0.0541
     36 H5         40.0500   18.1814   15.5068 H         1 D7B         0.0538
     37 H6         38.8127   16.4626    6.2471 H         1 D7B         0.0471
     38 H7         38.7194   14.6748    6.3940 H         1 D7B         0.0471
     39 H8         39.4555   15.4188    4.9341 H         1 D7B         0.0471
     40 H9         42.7710   15.5823    8.0324 H         1 D7B         0.0647
     41 H10        42.4604   18.7124   11.3673 H         1 D7B         0.0657
     42 H11        41.1107   19.8051   10.9079 H         1 D7B         0.0657
     43 H12        39.4147   16.9796   10.7742 H         1 D7B         0.0538
     44 H13        41.5576   19.8785   14.9141 H         1 D7B         0.0706
     45 H14        41.8120   20.3242   13.1926 H         1 D7B         0.0706
     46 H15        43.7277   19.5570   14.2143 H         1 D7B         0.2124
     47 H16        39.7393   20.1909    9.9258 H         1 D7B         0.0439
     48 H17        37.9150   19.7149    6.0830 H         1 D7B         0.0455
     49 H18        39.2298   17.6718    5.6961 H         1 D7B         0.0463
     50 H19        36.2864   20.6815    7.1654 H         1 D7B         0.0518
     51 H20        35.0690   22.5011    8.6865 H         1 D7B         0.0951
     52 H21        35.3871   22.9903    6.9876 H         1 D7B         0.0951
     53 H22        36.0461   24.5676    8.7771 H         1 D7B         0.2027
     54 H23        37.1986   24.2178    7.6552 H         1 D7B         0.2027
     55 H24        36.9600   22.9992   10.2964 H         1 D7B         0.0833
     56 H25        38.0956   24.3180    9.8517 H         1 D7B         0.0833
     57 H26        39.3775   22.8898    8.4689 H         1 D7B         0.0435
     58 H27        39.0460   21.9524    9.9649 H         1 D7B         0.0435
     59 H28        42.8425   18.5528    7.3118 H         1 D7B         0.0413
     60 H29        45.6556   17.3619    8.0502 H         1 D7B         0.0576
     61 H30        44.0881   16.6393    5.1541 H         1 D7B         0.0576
@<TRIPOS>BOND
     1    1   11 1  
     2   12    1 1  
     3    2    6 ar 
     4   13    2 1  
     5    2   14 ar 
     6    3    4 ar 
     7   14    3 ar 
     8    5    4 ar 
     9    6    5 ar 
    10    6   15 1  
    11    8    7 1  
    12    8    9 2  
    13   10    8 am 
    14   11   10 1  
    15   10   22 1  
    16   11   29 1  
    17   12   13 1  
    18   12   17 1  
    19   15   16 1  
    20   17   18 ar 
    21   17   22 ar 
    22   18   19 ar 
    23   19   20 ar 
    24   19   23 1  
    25   20   21 ar 
    26   21   22 ar 
    27   23   24 2  
    28   23   28 1  
    29   24   25 1  
    30   25   26 1  
    31   26   27 1  
    32   27   28 1  
    33   29   30 1  
    34   29   31 1  
    35   30   31 2  
    36    1   32 1  
    37    1   33 1  
    38    3   34 1  
    39    4   35 1  
    40    5   36 1  
    41    7   37 1  
    42    7   38 1  
    43    7   39 1  
    44   11   40 1  
    45   13   41 1  
    46   13   42 1  
    47   14   43 1  
    48   15   44 1  
    49   15   45 1  
    50   16   46 1  
    51   18   47 1  
    52   20   48 1  
    53   21   49 1  
    54   24   50 1  
    55   25   51 1  
    56   25   52 1  
    57   26   53 1  
    58   26   54 1  
    59   27   55 1  
    60   27   56 1  
    61   28   57 1  
    62   28   58 1  
    63   29   59 1  
    64   30   60 1  
    65   31   61 1  
@<TRIPOS>SUBSTRUCTURE
     1 D7B         1

