### 
### Created by X-TOOL on Wed Jan  1 15:39:38 2020
### 

@<TRIPOS>MOLECULE
6ffh_ligand
   30    31     1     0     0
SMALL
GAST_HUCK


@<TRIPOS>ATOM
      1 C13       -24.7300   14.9890   40.5420 C.ar      1 D7W        -0.0278
      2 C15       -26.0680   13.2310   39.4650 C.ar      1 D7W        -0.0634
      3 C17       -25.3290   13.0150   41.8050 C.ar      1 D7W        -0.0414
      4 C01       -21.8010   18.2650   47.0810 C.3       1 D7W         0.1420
      5 C03       -22.9770   20.3070   46.0330 C.3       1 D7W         0.2369
      6 C04       -23.8810   20.5150   44.8160 C.2       1 D7W         0.2531
      7 C07       -23.3380   18.2470   44.8980 C.cat     1 D7W         0.3823
      8 C09       -23.9670   16.2100   43.3780 C.2       1 D7W         0.2946
      9 C12       -24.6720   14.2710   41.7690 C.ar      1 D7W         0.0670
     10 C14       -25.4180   14.4660   39.4340 C.ar      1 D7W         0.0268
     11 C16       -26.0130   12.5120   40.6750 C.ar      1 D7W        -0.0752
     12 N02       -22.6610   18.8490   46.0380 N.pl3     1 D7W        -0.1584
     13 N06       -24.0350   19.2050   44.1980 N.am      1 D7W        -0.1887
     14 N08       -23.2730   16.8190   44.5490 N.am      1 D7W        -0.1747
     15 N11       -23.9440   14.8060   42.9730 N.am      1 D7W        -0.2194
     16 O05       -24.3580   21.5820   44.4650 O.2       1 D7W        -0.3893
     17 O10       -24.6240   16.9670   42.6880 O.2       1 D7W        -0.3902
     18 CL1       -25.4700   15.4180   37.8940 Cl        1 D7W        -0.0749
     19 H1        -24.2374   15.9512   40.4609 H         1 D7W         0.0506
     20 H2        -26.5908   12.8433   38.5981 H         1 D7W         0.0492
     21 H3        -25.3063   12.4292   42.7168 H         1 D7W         0.0503
     22 H4        -21.4786   19.0551   47.7752 H         1 D7W         0.1037
     23 H5        -20.9180   17.8052   46.6132 H         1 D7W         0.1037
     24 H6        -22.3640   17.4986   47.6338 H         1 D7W         0.1037
     25 H7        -23.5017   20.5915   46.9570 H         1 D7W         0.1329
     26 H8        -22.0564   20.9012   45.9363 H         1 D7W         0.1329
     27 H9        -26.5073   11.5495   40.7412 H         1 D7W         0.0577
     28 H10       -24.5748   19.0259   43.3755 H         1 D7W         0.1952
     29 H11       -22.7286   16.2185   45.1346 H         1 D7W         0.1952
     30 H12       -23.4144   14.1640   43.5274 H         1 D7W         0.2255
@<TRIPOS>BOND
     1    9    1 ar 
     2    1   10 ar 
     3   10    2 ar 
     4   11    2 ar 
     5    9    3 ar 
     6    3   11 ar 
     7   12    4 1  
     8    6    5 1  
     9   12    5 1  
    10   13    6 am 
    11    6   16 2  
    12    7   12 ar 
    13    7   13 ar 
    14   14    7 ar 
    15    8   14 am 
    16   15    8 am 
    17    8   17 2  
    18    9   15 1  
    19   10   18 1  
    20    1   19 1  
    21    2   20 1  
    22    3   21 1  
    23    4   22 1  
    24    4   23 1  
    25    4   24 1  
    26    5   25 1  
    27    5   26 1  
    28   11   27 1  
    29   13   28 1  
    30   14   29 1  
    31   15   30 1  
@<TRIPOS>SUBSTRUCTURE
     1 D7W         1

