### 
### Created by X-TOOL on Wed Jan  1 15:39:38 2020
### 

@<TRIPOS>MOLECULE
6ffi_ligand
   30    31     1     0     0
SMALL
GAST_HUCK


@<TRIPOS>ATOM
      1 C1        -24.8300   -8.5700   41.6220 C.ar      1 D8B        -0.0267
      2 N1        -24.8130   -6.7200   40.0570 N.ar      1 D8B        -0.2860
      3 C11       -22.0360   -3.8660   46.0400 C.ar      1 D8B        -0.0685
      4 C12       -22.6370   -2.5930   46.0690 C.ar      1 D8B        -0.0323
      5 C13       -23.6470   -2.2660   45.1400 C.ar      1 D8B         0.0923
      6 C14       -24.0610   -3.2060   44.1780 C.ar      1 D8B        -0.0172
      7 C15       -24.3090   -0.5020   43.7800 C.3       1 D8B         0.0593
      8 C2        -24.6390   -7.2120   41.3010 C.ar      1 D8B         0.0865
      9 C3        -25.1870   -7.5600   39.0780 C.ar      1 D8B         0.0240
     10 C4        -25.4030   -8.9330   39.2980 C.ar      1 D8B        -0.0336
     11 C5        -25.2200   -9.4470   40.5950 C.ar      1 D8B        -0.0485
     12 C6        -25.3670   -6.9480   37.7070 C.3       1 D8B        -0.0157
     13 C7        -24.2360   -6.2680   42.3270 C.1       1 D8B        -0.0436
     14 C8        -23.8880   -5.4530   43.1630 C.1       1 D8B        -0.0576
     15 C9        -23.4630   -4.4810   44.1510 C.ar      1 D8B         0.0194
     16 C10       -22.4500   -4.8090   45.0780 C.ar      1 D8B        -0.0562
     17 O1        -24.2200   -1.0330   45.1760 O.3       1 D8B        -0.3212
     18 H1        -24.6803   -8.9292   42.6337 H         1 D8B         0.0663
     19 H2        -21.2598   -4.1191   46.7531 H         1 D8B         0.0592
     20 H3        -22.3231   -1.8631   46.8064 H         1 D8B         0.0550
     21 H4        -24.8346   -2.9506   43.4629 H         1 D8B         0.0555
     22 H5        -24.7713    0.4960   43.7961 H         1 D8B         0.0577
     23 H6        -24.9219   -1.1802   43.1681 H         1 D8B         0.0577
     24 H7        -23.2992   -0.4314   43.3495 H         1 D8B         0.0577
     25 H8        -25.7046   -9.5822   38.4840 H         1 D8B         0.0645
     26 H9        -25.3769  -10.5001   40.7985 H         1 D8B         0.0715
     27 H10       -25.6718   -7.7285   36.9942 H         1 D8B         0.0420
     28 H11       -24.4175   -6.5010   37.3774 H         1 D8B         0.0420
     29 H12       -26.1427   -6.1694   37.7520 H         1 D8B         0.0420
     30 H13       -21.9890   -5.7897   45.0497 H         1 D8B         0.0543
@<TRIPOS>BOND
     1    8    1 ar 
     2    1   11 ar 
     3    8    2 ar 
     4    2    9 ar 
     5    4    3 ar 
     6    3   16 ar 
     7    5    4 ar 
     8    6    5 ar 
     9    5   17 1  
    10   15    6 ar 
    11   17    7 1  
    12   13    8 1  
    13    9   10 ar 
    14    9   12 1  
    15   11   10 ar 
    16   14   13 3  
    17   14   15 1  
    18   15   16 ar 
    19    1   18 1  
    20    3   19 1  
    21    4   20 1  
    22    6   21 1  
    23    7   22 1  
    24    7   23 1  
    25    7   24 1  
    26   10   25 1  
    27   11   26 1  
    28   12   27 1  
    29   12   28 1  
    30   12   29 1  
    31   16   30 1  
@<TRIPOS>SUBSTRUCTURE
     1 D8B         1

