### 
### Created by X-TOOL on Wed Jan  1 15:39:35 2020
### 

@<TRIPOS>MOLECULE
6ffn_ligand
   74    77     1     0     0
SMALL
GAST_HUCK


@<TRIPOS>ATOM
      1 C2        -28.1150    4.6940    0.1570 C.3       1 D8K         0.1398
      2 C3        -28.1130    5.5750    1.4290 C.3       1 D8K         0.0196
      3 C12       -26.1750    6.5280   -2.6690 C.3       1 D8K         0.0672
      4 C13       -26.1450    8.0440   -2.8230 C.3       1 D8K         0.0673
      5 C14       -26.2640    5.8450   -4.0720 C.3       1 D8K        -0.0108
      6 C15       -25.5810    4.4680   -3.9650 C.3       1 D8K         0.0397
      7 C16       -29.4190    5.5530    2.2220 C.ar      1 D8K        -0.0424
      8 C17       -29.3290    5.3710    3.6160 C.ar      1 D8K        -0.0618
      9 C18       -30.4900    5.3260    4.3950 C.ar      1 D8K        -0.0349
     10 C19       -31.7420    5.4770    3.7810 C.ar      1 D8K         0.1248
     11 C20       -31.8240    5.6810    2.3970 C.ar      1 D8K        -0.0349
     12 C21       -30.6620    5.7120    1.6080 C.ar      1 D8K        -0.0618
     13 C23       -25.6950    3.5620   -5.1650 C.2       1 D8K         0.1808
     14 C26       -29.4000   -0.6430   -0.7740 C.2       1 D8K         0.2113
     15 C27       -30.2760   -1.3690   -1.7210 C.2       1 D8K         0.1131
     16 N1        -27.8910    3.2600    0.3180 N.am      1 D8K        -0.2619
     17 C4        -27.8400    2.3320   -0.6840 C.2       1 D8K         0.2060
     18 O5        -28.0450    2.6560   -1.8500 O.2       1 D8K        -0.3943
     19 C6        -27.4780    0.8810   -0.4400 C.3       1 D8K         0.1505
     20 N7        -28.3740    0.0950   -1.2780 N.am      1 D8K        -0.2630
     21 C8        -25.9650    0.6510   -0.8360 C.3       1 D8K         0.0711
     22 C9        -27.0260    5.1870   -0.7580 C.2       1 D8K         0.2039
     23 N10       -27.2560    6.0370   -1.7910 N.am      1 D8K        -0.2795
     24 O11       -25.8870    4.7700   -0.4680 O.2       1 D8K        -0.3943
     25 N22       -25.5980    1.0680   -2.2390 N.am      1 D8K        -0.2805
     26 O24       -26.4690    3.8570   -6.1160 O.2       1 D8K        -0.3967
     27 F25       -32.8580    5.4270    4.5080 F         1 D8K        -0.1893
     28 O28       -29.6570   -0.7520    0.4220 O.2       1 D8K        -0.3853
     29 N29       -30.0370   -1.4480   -2.9800 N.2       1 D8K        -0.1328
     30 O30       -31.1150   -2.2100   -3.5280 O.3       1 D8K        -0.1606
     31 C31       -31.9360   -2.4810   -2.5170 C.2       1 D8K         0.1392
     32 C32       -31.5410   -2.0090   -1.3450 C.2       1 D8K        -0.0165
     33 C33       -33.1960   -3.2540   -2.7860 C.3       1 D8K         0.0097
     34 C34       -24.4180    1.7130   -2.5950 C.2       1 D8K         0.2021
     35 O35       -23.5650    2.0190   -1.7650 O.2       1 D8K        -0.3945
     36 C36       -23.9670    2.1580   -3.9960 C.3       1 D8K         0.1336
     37 C37       -23.0100    1.1510   -4.6890 C.3       1 D8K        -0.0104
     38 C38       -23.9560    0.3850   -5.6370 C.3       1 D8K        -0.0281
     39 C39       -24.9010    1.4760   -6.2020 C.3       1 D8K         0.0369
     40 N40       -24.9090    2.4470   -5.1180 N.am      1 D8K        -0.2517
     41 O41       -26.1040    8.6800   -1.5410 O.3       1 D8K        -0.3927
     42 H1        -29.0930    4.8257   -0.3289 H         1 D8K         0.0822
     43 H2        -27.9132    6.6135    1.1264 H         1 D8K         0.0466
     44 H3        -27.3057    5.2234    2.0883 H         1 D8K         0.0466
     45 H4        -25.2220    6.2296   -2.2078 H         1 D8K         0.0580
     46 H5        -27.0477    8.3708   -3.3599 H         1 D8K         0.0580
     47 H6        -25.2523    8.3314   -3.3978 H         1 D8K         0.0580
     48 H7        -25.7484    6.4619   -4.8227 H         1 D8K         0.0313
     49 H8        -27.3177    5.7193   -4.3617 H         1 D8K         0.0313
     50 H9        -26.0238    3.9418   -3.1065 H         1 D8K         0.0503
     51 H10       -24.5109    4.6401   -3.7774 H         1 D8K         0.0503
     52 H11       -28.3579    5.2656    4.0861 H         1 D8K         0.0547
     53 H12       -30.4225    5.1754    5.4664 H         1 D8K         0.0587
     54 H13       -32.7932    5.8162    1.9308 H         1 D8K         0.0587
     55 H14       -30.7301    5.8576    0.5360 H         1 D8K         0.0547
     56 H15       -27.7625    2.9247    1.2513 H         1 D8K         0.1885
     57 H16       -27.6240    0.6191    0.6183 H         1 D8K         0.0820
     58 H17       -28.2285    0.0981   -2.2674 H         1 D8K         0.1878
     59 H18       -25.7450   -0.4217   -0.7312 H         1 D8K         0.0568
     60 H19       -25.3390    1.2238   -0.1360 H         1 D8K         0.0568
     61 H20       -28.1925    6.3421   -1.9639 H         1 D8K         0.1855
     62 H21       -26.2522    0.8655   -2.9677 H         1 D8K         0.1854
     63 H22       -32.0224   -2.0771   -0.3706 H         1 D8K         0.0312
     64 H23       -33.7519   -3.3875   -1.8463 H         1 D8K         0.0449
     65 H24       -32.9399   -4.2389   -3.2035 H         1 D8K         0.0449
     66 H25       -33.8187   -2.7016   -3.5051 H         1 D8K         0.0449
     67 H26       -23.4143    3.0908   -3.8105 H         1 D8K         0.0802
     68 H27       -22.5483    0.4732   -3.9559 H         1 D8K         0.0313
     69 H28       -22.2226    1.6742   -5.2514 H         1 D8K         0.0313
     70 H29       -24.5266   -0.3768   -5.0857 H         1 D8K         0.0287
     71 H30       -23.3890   -0.0966   -6.4473 H         1 D8K         0.0287
     72 H31       -25.9084    1.0762   -6.3900 H         1 D8K         0.0524
     73 H32       -24.5009    1.9127   -7.1289 H         1 D8K         0.0524
     74 H33       -26.8752    8.4359   -1.0428 H         1 D8K         0.2095
@<TRIPOS>BOND
     1    1    2 1  
     2    1   16 1  
     3   22    1 1  
     4    2    7 1  
     5    3    4 1  
     6    3    5 1  
     7   23    3 1  
     8    4   41 1  
     9    5    6 1  
    10    6   13 1  
    11    7    8 ar 
    12    7   12 ar 
    13    8    9 ar 
    14    9   10 ar 
    15   11   10 ar 
    16   10   27 1  
    17   12   11 ar 
    18   13   26 2  
    19   13   40 am 
    20   14   15 1  
    21   20   14 am 
    22   14   28 2  
    23   15   29 2  
    24   15   32 1  
    25   16   17 am 
    26   17   18 2  
    27   17   19 1  
    28   19   20 1  
    29   19   21 1  
    30   21   25 1  
    31   22   23 am 
    32   22   24 2  
    33   25   34 am 
    34   29   30 1  
    35   30   31 1  
    36   31   32 2  
    37   31   33 1  
    38   34   35 2  
    39   34   36 1  
    40   36   37 1  
    41   36   40 1  
    42   37   38 1  
    43   38   39 1  
    44   39   40 1  
    45    1   42 1  
    46    2   43 1  
    47    2   44 1  
    48    3   45 1  
    49    4   46 1  
    50    4   47 1  
    51    5   48 1  
    52    5   49 1  
    53    6   50 1  
    54    6   51 1  
    55    8   52 1  
    56    9   53 1  
    57   11   54 1  
    58   12   55 1  
    59   16   56 1  
    60   19   57 1  
    61   20   58 1  
    62   21   59 1  
    63   21   60 1  
    64   23   61 1  
    65   25   62 1  
    66   32   63 1  
    67   33   64 1  
    68   33   65 1  
    69   33   66 1  
    70   36   67 1  
    71   37   68 1  
    72   37   69 1  
    73   38   70 1  
    74   38   71 1  
    75   39   72 1  
    76   39   73 1  
    77   41   74 1  
@<TRIPOS>SUBSTRUCTURE
     1 D8K         1

