### 
### Created by X-TOOL on Wed Jan  1 15:39:35 2020
### 

@<TRIPOS>MOLECULE
6ffs_ligand
   72    74     1     0     0
SMALL
GAST_HUCK


@<TRIPOS>ATOM
      1 C2        -28.2950    4.6700    0.2210 C.3       1 D8E         0.1398
      2 C3        -28.3060    5.5320    1.5080 C.3       1 D8E         0.0196
      3 C13       -26.2790    6.4190   -2.5500 C.3       1 D8E         0.0672
      4 C14       -26.2770    7.9250   -2.6120 C.3       1 D8E         0.0673
      5 C15       -26.3040    5.7560   -3.9690 C.3       1 D8E        -0.0108
      6 C17       -25.6250    4.3630   -3.9540 C.3       1 D8E         0.0396
      7 C18       -25.8230    3.5150   -5.1830 C.2       1 D8E         0.1783
      8 C21       -29.5840    5.4550    2.3380 C.ar      1 D8E        -0.0424
      9 C22       -29.4930    5.2660    3.7250 C.ar      1 D8E        -0.0618
     10 C23       -30.6470    5.1920    4.5090 C.ar      1 D8E        -0.0349
     11 C24       -31.9000    5.3150    3.9060 C.ar      1 D8E         0.1248
     12 C25       -31.9920    5.5240    2.5300 C.ar      1 D8E        -0.0349
     13 C26       -30.8360    5.5970    1.7450 C.ar      1 D8E        -0.0618
     14 C27       -24.3480    2.1430   -3.8590 C.3       1 D8E         0.0336
     15 C28       -24.8370    1.0530   -2.8580 C.3       1 D8E        -0.0323
     16 C29       -25.5820    1.6060   -1.5980 C.3       1 D8E        -0.0470
     17 N1        -28.0240    3.2350    0.4150 N.am      1 D8E        -0.2620
     18 C4        -28.0510    2.2630   -0.5430 C.2       1 D8E         0.2040
     19 O5        -28.3560    2.5640   -1.6910 O.2       1 D8E        -0.3944
     20 C6        -27.7190    0.7820   -0.3530 C.3       1 D8E         0.1305
     21 N7        -28.5980    0.0270   -1.2340 N.am      1 D8E        -0.2649
     22 C8        -26.2280    0.5040   -0.7040 C.3       1 D8E        -0.0124
     23 C9        -29.6360   -0.6790   -0.7400 C.2       1 D8E         0.2113
     24 C10       -27.1760    5.1580   -0.6510 C.2       1 D8E         0.2039
     25 N11       -27.4050    5.9370   -1.7330 N.am      1 D8E        -0.2795
     26 O12       -26.0480    4.8370   -0.2930 O.2       1 D8E        -0.3943
     27 O16       -26.1930    8.6800   -1.5190 O.3       1 D8E        -0.3927
     28 O19       -26.5210    3.9170   -6.1430 O.2       1 D8E        -0.3969
     29 N20       -25.1390    2.3370   -5.0950 N.am      1 D8E        -0.2763
     30 F30       -33.0080    5.2470    4.6400 F         1 D8E        -0.1893
     31 C31       -30.5030   -1.3980   -1.6860 C.2       1 D8E         0.1131
     32 O32       -29.9190   -0.7540    0.4400 O.2       1 D8E        -0.3853
     33 N33       -30.1910   -1.5450   -2.9090 N.2       1 D8E        -0.1328
     34 O34       -31.2650   -2.2700   -3.4910 O.3       1 D8E        -0.1606
     35 C35       -32.1480   -2.4600   -2.5170 C.2       1 D8E         0.1392
     36 C36       -31.8030   -1.9640   -1.3400 C.2       1 D8E        -0.0165
     37 C37       -33.4170   -3.1950   -2.8370 C.3       1 D8E         0.0097
     38 C38       -25.1520    1.3360   -6.1400 C.3       1 D8E         0.0225
     39 H1        -29.2637    4.7879   -0.2867 H         1 D8E         0.0822
     40 H2        -28.1550    6.5813    1.2146 H         1 D8E         0.0466
     41 H3        -27.4693    5.2046    2.1426 H         1 D8E         0.0466
     42 H4        -25.3464    6.1076   -2.0568 H         1 D8E         0.0580
     43 H5        -27.2133    8.2128   -3.1125 H         1 D8E         0.0580
     44 H6        -25.4219    8.2050   -3.2448 H         1 D8E         0.0580
     45 H7        -25.7705    6.4066   -4.6775 H         1 D8E         0.0313
     46 H8        -27.3492    5.6412   -4.2921 H         1 D8E         0.0313
     47 H9        -26.0222    3.8049   -3.0933 H         1 D8E         0.0503
     48 H10       -24.5438    4.5177   -3.8233 H         1 D8E         0.0503
     49 H11       -28.5191    5.1766    4.1925 H         1 D8E         0.0547
     50 H12       -30.5698    5.0399    5.5795 H         1 D8E         0.0587
     51 H13       -32.9657    5.6306    2.0656 H         1 D8E         0.0587
     52 H14       -30.9149    5.7638    0.6768 H         1 D8E         0.0547
     53 H15       -23.3240    1.8781   -4.1609 H         1 D8E         0.0522
     54 H16       -24.3352    3.1026   -3.3215 H         1 D8E         0.0522
     55 H17       -23.9596    0.4852   -2.5149 H         1 D8E         0.0285
     56 H18       -25.5230    0.3800   -3.3931 H         1 D8E         0.0285
     57 H19       -26.3778    2.2851   -1.9379 H         1 D8E         0.0268
     58 H20       -24.8584    2.1657   -0.9871 H         1 D8E         0.0268
     59 H21       -27.7969    2.9430    1.3441 H         1 D8E         0.1885
     60 H22       -27.9021    0.4920    0.6922 H         1 D8E         0.0800
     61 H23       -28.4300    0.0317   -2.2198 H         1 D8E         0.1877
     62 H24       -25.6565    0.4373    0.2335 H         1 D8E         0.0312
     63 H25       -26.1695   -0.4558   -1.2381 H         1 D8E         0.0312
     64 H26       -28.3418    6.1862   -1.9786 H         1 D8E         0.1855
     65 H27       -26.9298    8.4934   -0.9492 H         1 D8E         0.2095
     66 H28       -32.3344   -1.9749   -0.3895 H         1 D8E         0.0312
     67 H29       -34.0365   -3.2685   -1.9310 H         1 D8E         0.0449
     68 H30       -33.1745   -4.2053   -3.1983 H         1 D8E         0.0449
     69 H31       -33.9700   -2.6499   -3.6161 H         1 D8E         0.0449
     70 H32       -25.7972    1.6746   -6.9641 H         1 D8E         0.0486
     71 H33       -25.5398    0.3892   -5.7361 H         1 D8E         0.0486
     72 H34       -24.1290    1.1833   -6.5143 H         1 D8E         0.0486
@<TRIPOS>BOND
     1    1    2 1  
     2   17    1 1  
     3    1   24 1  
     4    2    8 1  
     5    3    4 1  
     6    5    3 1  
     7    3   25 1  
     8    4   27 1  
     9    6    5 1  
    10    7    6 1  
    11    7   28 2  
    12   29    7 am 
    13    8    9 ar 
    14    8   13 ar 
    15    9   10 ar 
    16   10   11 ar 
    17   12   11 ar 
    18   11   30 1  
    19   13   12 ar 
    20   15   14 1  
    21   14   29 1  
    22   16   15 1  
    23   22   16 1  
    24   18   17 am 
    25   18   19 2  
    26   20   18 1  
    27   20   21 1  
    28   20   22 1  
    29   21   23 am 
    30   23   31 1  
    31   23   32 2  
    32   24   25 am 
    33   24   26 2  
    34   29   38 1  
    35   31   33 2  
    36   31   36 1  
    37   33   34 1  
    38   34   35 1  
    39   35   36 2  
    40   35   37 1  
    41    1   39 1  
    42    2   40 1  
    43    2   41 1  
    44    3   42 1  
    45    4   43 1  
    46    4   44 1  
    47    5   45 1  
    48    5   46 1  
    49    6   47 1  
    50    6   48 1  
    51    9   49 1  
    52   10   50 1  
    53   12   51 1  
    54   13   52 1  
    55   14   53 1  
    56   14   54 1  
    57   15   55 1  
    58   15   56 1  
    59   16   57 1  
    60   16   58 1  
    61   17   59 1  
    62   20   60 1  
    63   21   61 1  
    64   22   62 1  
    65   22   63 1  
    66   25   64 1  
    67   27   65 1  
    68   36   66 1  
    69   37   67 1  
    70   37   68 1  
    71   37   69 1  
    72   38   70 1  
    73   38   71 1  
    74   38   72 1  
@<TRIPOS>SUBSTRUCTURE
     1 D8E         1

