### 
### Created by X-TOOL on Wed Jan  1 15:39:38 2020
### 

@<TRIPOS>MOLECULE
6fg6_ligand
   32    32     1     0     0
SMALL
GAST_HUCK


@<TRIPOS>ATOM
      1 C01        33.8630  -37.5910   29.3710 C.3       1 D8Q         0.0227
      2 C03        35.9580  -39.0200   29.2300 C.3       1 D8Q         0.0532
      3 C04        36.6790  -40.2660   28.7220 C.3       1 D8Q         0.0709
      4 C05        35.9550  -41.2410   27.8470 C.3       1 D8Q        -0.0144
      5 C06        34.5180  -41.0080   27.4790 C.3       1 D8Q         0.0398
      6 C07        33.7920  -39.7550   28.0020 C.2       1 D8Q         0.1785
      7 C09        38.1400  -40.4650   29.1200 C.2       1 D8Q         0.1813
      8 C12        40.2150  -39.4510   30.1630 C.3       1 D8Q         0.0707
      9 C13        41.1390  -38.9320   29.0590 C.3       1 D8Q        -0.0148
     10 N02        34.5290  -38.7820   28.8690 N.am      1 D8Q        -0.2738
     11 N11        38.8270  -39.3480   29.7490 N.am      1 D8Q        -0.2816
     12 N14        42.3650  -39.7180   29.0490 N.4       1 D8Q         0.2200
     13 O08        32.6540  -39.5570   27.7150 O.2       1 D8Q        -0.3969
     14 O10        38.6860  -41.4980   28.9090 O.2       1 D8Q        -0.3967
     15 H1         34.5665  -37.0083   29.9837 H         1 D8Q         0.0486
     16 H2         32.9989  -37.8852   29.9848 H         1 D8Q         0.0486
     17 H3         33.5198  -36.9784   28.5243 H         1 D8Q         0.0486
     18 H4         36.5264  -38.1529   28.8626 H         1 D8Q         0.0550
     19 H5         36.0064  -39.0514   30.3285 H         1 D8Q         0.0550
     20 H6         36.3569  -40.8291   29.6103 H         1 D8Q         0.0559
     21 H7         35.9966  -42.2147   28.3571 H         1 D8Q         0.0317
     22 H8         36.5176  -41.2970   26.9034 H         1 D8Q         0.0317
     23 H9         33.9509  -41.8791   27.8388 H         1 D8Q         0.0504
     24 H10        34.4719  -40.9686   26.3807 H         1 D8Q         0.0504
     25 H11        40.3671  -38.8536   31.0740 H         1 D8Q         0.0573
     26 H12        40.4543  -40.5043   30.3710 H         1 D8Q         0.0573
     27 H13        41.3811  -37.8759   29.2486 H         1 D8Q         0.0833
     28 H14        40.6357  -39.0237   28.0852 H         1 D8Q         0.0833
     29 H15        38.3333  -38.4915   29.8995 H         1 D8Q         0.1853
     30 H16        42.9759  -39.3784   28.3226 H         1 D8Q         0.1995
     31 H17        42.1424  -40.6857   28.8756 H         1 D8Q         0.1995
     32 H18        42.8254  -39.6339   29.9417 H         1 D8Q         0.1995
@<TRIPOS>BOND
     1   10    1 1  
     2    3    2 1  
     3    2   10 1  
     4    3    4 1  
     5    7    3 1  
     6    4    5 1  
     7    5    6 1  
     8   10    6 am 
     9    6   13 2  
    10   11    7 am 
    11    7   14 2  
    12    8    9 1  
    13    8   11 1  
    14    9   12 1  
    15    1   15 1  
    16    1   16 1  
    17    1   17 1  
    18    2   18 1  
    19    2   19 1  
    20    3   20 1  
    21    4   21 1  
    22    4   22 1  
    23    5   23 1  
    24    5   24 1  
    25    8   25 1  
    26    8   26 1  
    27    9   27 1  
    28    9   28 1  
    29   11   29 1  
    30   12   30 1  
    31   12   31 1  
    32   12   32 1  
@<TRIPOS>SUBSTRUCTURE
     1 D8Q         1

