### 
### Created by X-TOOL on Mon Aug  2 16:10:43 2021
### 

@<TRIPOS>MOLECULE
6fgc_ligand
   54    57     1     0     0
SMALL
GAST_HUCK


@<TRIPOS>ATOM
      1 CAA       -13.3760   19.4570   66.6980 C.3       1 D95        -0.0621
      2 CAB       -14.5920   19.1270   65.8450 C.3       1 D95        -0.0381
      3 CAC       -15.7020   18.6090   66.7390 C.3       1 D95        -0.0498
      4 CAD       -16.9220   18.3470   65.8770 C.3       1 D95        -0.0466
      5 CAE       -16.6210   17.2660   64.8800 C.3       1 D95         0.0038
      6 CAF       -17.8350   16.9550   64.0190 C.3       1 D95         0.0175
      7 CAG       -18.1270   18.1350   63.1370 C.3       1 D95         0.1921
      8 CAI       -15.8630   18.7060   62.9930 C.3       1 D95         0.1979
      9 CAJ       -15.4120   17.6520   63.9640 C.3       1 D95         0.1612
     10 CAK       -14.2580   18.0170   64.8660 C.3       1 D95        -0.0010
     11 CAL       -13.1280   18.5200   63.9980 C.3       1 D95        -0.0421
     12 CAM       -12.9480   17.7120   62.7080 C.3       1 D95         0.0043
     13 CAN       -14.0890   17.8550   61.6920 C.3       1 D95         0.2027
     14 CAR       -13.5130   18.0250   60.3180 C.3       1 D95        -0.0077
     15 CAT       -19.9700   18.8430   61.8100 C.2       1 D95         0.2378
     16 CAV       -21.2050   18.4520   61.0250 C.3       1 D95         0.0603
     17 CAW       -21.9530   19.6790   60.5730 C.3       1 D95         0.0184
     18 CAX       -21.1130   20.4200   59.5570 C.2       1 D95         0.0371
     19 CBA       -19.0800   16.6440   64.8370 C.3       1 D95        -0.0571
     20 OAH       -17.0520   18.3500   62.2880 O.3       1 D95        -0.3153
     21 OAO       -14.8910   19.0020   62.0200 O.3       1 D95        -0.3144
     22 OAP       -14.8990   16.7210   61.7660 O.3       1 D95        -0.1989
     23 OAQ       -15.2360   16.4220   63.1890 O.3       1 D95        -0.2196
     24 OAS       -19.2320   17.7770   62.3300 O.3       1 D95        -0.2443
     25 OAU       -19.6180   20.0060   61.9830 O.2       1 D95        -0.3702
     26 OAY       -21.2560   21.6590   59.4260 O.co2     1 D95        -0.5688
     27 OAZ       -20.2910   19.7930   58.8380 O.co2     1 D95        -0.5688
     28 H1        -13.6303   20.2622   67.4030 H         1 D95         0.0233
     29 H2        -12.5508   19.7851   66.0488 H         1 D95         0.0233
     30 H3        -13.0678   18.5623   67.2589 H         1 D95         0.0233
     31 H4        -14.9225   20.0256   65.3034 H         1 D95         0.0302
     32 H5        -15.9427   19.3594   67.5065 H         1 D95         0.0268
     33 H6        -15.3829   17.6757   67.2260 H         1 D95         0.0268
     34 H7        -17.1964   19.2690   65.3435 H         1 D95         0.0269
     35 H8        -17.7592   18.0304   66.5165 H         1 D95         0.0269
     36 H9        -16.3527   16.3569   65.4382 H         1 D95         0.0336
     37 H10       -17.6017   16.0816   63.3924 H         1 D95         0.0354
     38 H11       -18.3403   19.0325   63.7362 H         1 D95         0.0966
     39 H12       -16.0640   19.6184   63.5737 H         1 D95         0.0943
     40 H13       -13.9421   17.1235   65.4245 H         1 D95         0.0334
     41 H14       -12.1937   18.4673   64.5761 H         1 D95         0.0271
     42 H15       -13.3340   19.5664   63.7285 H         1 D95         0.0271
     43 H16       -12.8632   16.6494   62.9793 H         1 D95         0.0318
     44 H17       -12.0167   18.0425   62.2248 H         1 D95         0.0318
     45 H18       -14.3296   18.1277   59.5882 H         1 D95         0.0282
     46 H19       -12.9033   17.1452   60.0646 H         1 D95         0.0282
     47 H20       -12.8836   18.9268   60.2932 H         1 D95         0.0282
     48 H21       -21.8616   17.8424   61.6631 H         1 D95         0.0536
     49 H22       -20.9036   17.8667   60.1438 H         1 D95         0.0536
     50 H23       -22.1479   20.3315   61.4369 H         1 D95         0.0456
     51 H24       -22.9080   19.3813   60.1155 H         1 D95         0.0456
     52 H25       -18.8836   15.7808   65.4899 H         1 D95         0.0234
     53 H26       -19.9145   16.4092   64.1599 H         1 D95         0.0234
     54 H27       -19.3419   17.5172   65.4526 H         1 D95         0.0234
@<TRIPOS>BOND
     1    2    1 1  
     2    3    2 1  
     3   10    2 1  
     4    4    3 1  
     5    5    4 1  
     6    6    5 1  
     7    5    9 1  
     8    7    6 1  
     9    6   19 1  
    10    7   20 1  
    11   24    7 1  
    12    8    9 1  
    13   20    8 1  
    14    8   21 1  
    15    9   10 1  
    16    9   23 1  
    17   10   11 1  
    18   12   11 1  
    19   13   12 1  
    20   13   14 1  
    21   21   13 1  
    22   13   22 1  
    23   15   16 1  
    24   15   24 1  
    25   15   25 2  
    26   16   17 1  
    27   17   18 1  
    28   18   26 ar 
    29   18   27 ar 
    30   22   23 1  
    31    1   28 1  
    32    1   29 1  
    33    1   30 1  
    34    2   31 1  
    35    3   32 1  
    36    3   33 1  
    37    4   34 1  
    38    4   35 1  
    39    5   36 1  
    40    6   37 1  
    41    7   38 1  
    42    8   39 1  
    43   10   40 1  
    44   11   41 1  
    45   11   42 1  
    46   12   43 1  
    47   12   44 1  
    48   14   45 1  
    49   14   46 1  
    50   14   47 1  
    51   16   48 1  
    52   16   49 1  
    53   17   50 1  
    54   17   51 1  
    55   19   52 1  
    56   19   53 1  
    57   19   54 1  
@<TRIPOS>SUBSTRUCTURE
     1 D95         1

