### 
### Created by X-TOOL on Wed Jan  1 15:39:38 2020
### 

@<TRIPOS>MOLECULE
6fgf_ligand
   46    47     1     0     0
SMALL
GAST_HUCK


@<TRIPOS>ATOM
      1 C01       -33.7150   37.7180  -19.8540 C.3       1 EN2         0.0227
      2 C03       -35.7410   39.2220  -20.1030 C.3       1 EN2         0.0532
      3 C04       -36.3710   40.5010  -20.6370 C.3       1 EN2         0.0709
      4 C05       -35.5580   41.4650  -21.4330 C.3       1 EN2        -0.0144
      5 C06       -34.1200   41.1720  -21.6970 C.3       1 EN2         0.0398
      6 C07       -33.4910   39.8900  -21.1570 C.2       1 EN2         0.1785
      7 C09       -37.8420   40.7750  -20.3570 C.2       1 EN2         0.1812
      8 C12       -39.8510   42.3120  -20.5310 C.3       1 EN2         0.0327
      9 C13       -40.7540   41.2540  -21.1690 C.3       1 EN2        -0.0125
     10 C14       -41.2780   41.6450  -22.5460 C.3       1 EN2         0.0321
     11 C16       -43.5590   42.8250  -22.9610 C.2       1 EN2         0.2019
     12 C18       -43.0440   44.1060  -23.6420 C.ar      1 EN2         0.0457
     13 C19       -41.8770   44.1450  -24.3910 C.ar      1 EN2        -0.0437
     14 C20       -41.4620   45.3210  -24.9890 C.ar      1 EN2        -0.0223
     15 C21       -42.2140   46.4740  -24.8620 C.ar      1 EN2         0.1375
     16 C23       -43.3880   46.4490  -24.1250 C.ar      1 EN2        -0.0223
     17 C24       -43.7990   45.2670  -23.5240 C.ar      1 EN2        -0.0437
     18 F22       -41.7870   47.6240  -25.4640 F         1 EN2        -0.1794
     19 N02       -34.3110   38.9360  -20.3690 N.am      1 EN2        -0.2738
     20 N11       -38.4490   42.0270  -20.7830 N.am      1 EN2        -0.2866
     21 N15       -42.7280   41.7230  -22.4770 N.am      1 EN2        -0.2867
     22 O08       -32.3500   39.6510  -21.3660 O.2       1 EN2        -0.3969
     23 O10       -38.4700   39.9470  -19.7940 O.2       1 EN2        -0.3967
     24 O17       -44.7300   42.7170  -22.8100 O.2       1 EN2        -0.3866
     25 H1        -34.4732   37.1443  -19.3009 H         1 EN2         0.0486
     26 H2        -32.8841   37.9730  -19.1797 H         1 EN2         0.0486
     27 H3        -33.3358   37.1131  -20.6908 H         1 EN2         0.0486
     28 H4        -36.3165   38.3842  -20.5237 H         1 EN2         0.0550
     29 H5        -35.8639   39.2391  -19.0100 H         1 EN2         0.0550
     30 H6        -36.0926   41.0298  -19.7135 H         1 EN2         0.0559
     31 H7        -35.5959   42.4286  -20.9038 H         1 EN2         0.0317
     32 H8        -36.0489   41.5649  -22.4123 H         1 EN2         0.0317
     33 H9        -33.5430   42.0097  -21.2782 H         1 EN2         0.0504
     34 H10       -33.9955   41.1510  -22.7897 H         1 EN2         0.0504
     35 H11       -40.0250   42.3246  -19.4449 H         1 EN2         0.0520
     36 H12       -40.0985   43.2970  -20.9535 H         1 EN2         0.0520
     37 H13       -41.6146   41.0858  -20.5049 H         1 EN2         0.0304
     38 H14       -40.1795   40.3212  -21.2681 H         1 EN2         0.0304
     39 H15       -40.9811   40.8872  -23.2860 H         1 EN2         0.0520
     40 H16       -40.8663   42.6227  -22.8369 H         1 EN2         0.0520
     41 H17       -41.2845   43.2449  -24.5087 H         1 EN2         0.0659
     42 H18       -40.5413   45.3387  -25.5609 H         1 EN2         0.0616
     43 H19       -43.9828   47.3490  -24.0184 H         1 EN2         0.0616
     44 H20       -44.7214   45.2493  -22.9549 H         1 EN2         0.0659
     45 H21       -37.8894   42.7053  -21.2591 H         1 EN2         0.1851
     46 H22       -43.2029   40.9489  -22.0584 H         1 EN2         0.1843
@<TRIPOS>BOND
     1   19    1 1  
     2    3    2 1  
     3    2   19 1  
     4    3    4 1  
     5    7    3 1  
     6    4    5 1  
     7    5    6 1  
     8   19    6 am 
     9    6   22 2  
    10   20    7 am 
    11    7   23 2  
    12    9    8 1  
    13    8   20 1  
    14   10    9 1  
    15   21   10 1  
    16   11   12 1  
    17   11   21 am 
    18   11   24 2  
    19   12   13 ar 
    20   12   17 ar 
    21   13   14 ar 
    22   14   15 ar 
    23   15   16 ar 
    24   15   18 1  
    25   16   17 ar 
    26    1   25 1  
    27    1   26 1  
    28    1   27 1  
    29    2   28 1  
    30    2   29 1  
    31    3   30 1  
    32    4   31 1  
    33    4   32 1  
    34    5   33 1  
    35    5   34 1  
    36    8   35 1  
    37    8   36 1  
    38    9   37 1  
    39    9   38 1  
    40   10   39 1  
    41   10   40 1  
    42   13   41 1  
    43   14   42 1  
    44   16   43 1  
    45   17   44 1  
    46   20   45 1  
    47   21   46 1  
@<TRIPOS>SUBSTRUCTURE
     1 EN2         1

