### 
### Created by X-TOOL on Wed Jan  1 15:39:35 2020
### 

@<TRIPOS>MOLECULE
6fgg_ligand
   49    51     1     0     0
SMALL
GAST_HUCK


@<TRIPOS>ATOM
      1 C01       -30.2250   -2.9190  -14.7410 C.3       1 D9B        -0.0433
      2 C03       -28.5420   -2.7340  -13.0950 C.3       1 D9B        -0.0433
      3 C04       -28.9100   -4.8420  -14.1650 C.3       1 D9B        -0.0063
      4 C05       -29.1310   -5.5930  -15.4760 C.3       1 D9B         0.0965
      5 C07       -29.7870   -8.0320  -15.0280 C.2       1 D9B         0.3663
      6 C10       -27.7010   -8.9840  -15.1100 C.ar      1 D9B         0.1318
      7 C11       -27.5480   -7.6210  -15.3430 C.ar      1 D9B         0.0947
      8 C12       -26.2680   -7.1070  -15.5740 C.ar      1 D9B        -0.0275
      9 C13       -25.1980   -7.9940  -15.5950 C.ar      1 D9B         0.0431
     10 C15       -23.5480   -6.1890  -16.0830 C.2       1 D9B         0.2218
     11 C17       -22.1290   -5.8010  -15.9400 C.3       1 D9B         0.1111
     12 C18       -21.2390   -6.6400  -15.0620 C.3       1 D9B         0.0650
     13 C20       -18.9980   -6.9440  -14.0000 C.3       1 D9B         0.0216
     14 C21       -19.4210   -4.9240  -15.3880 C.2       1 D9B         0.1794
     15 C23       -20.3350   -4.0650  -16.2330 C.2       1 D9B         0.0003
     16 C24       -21.7060   -4.5170  -16.4900 C.2       1 D9B        -0.0357
     17 C25       -25.3570   -9.3560  -15.3120 C.ar      1 D9B        -0.0627
     18 C26       -26.6180   -9.8680  -15.0870 C.ar      1 D9B        -0.0525
     19 N02       -28.9060   -3.3920  -14.3410 N.4       1 D9B         0.2327
     20 N06       -28.8450   -7.0010  -15.2970 N.am      1 D9B        -0.1920
     21 N14       -23.8620   -7.5300  -15.7170 N.am      1 D9B        -0.2402
     22 N19       -19.8910   -6.1880  -14.8320 N.am      1 D9B        -0.2756
     23 O08       -30.9620   -7.9070  -14.9170 O.2       1 D9B        -0.3736
     24 O09       -29.0920   -9.2500  -14.9130 O.3       1 D9B        -0.2112
     25 O16       -24.3400   -5.3350  -16.3050 O.2       1 D9B        -0.3814
     26 O22       -18.3320   -4.5640  -15.1210 O.2       1 D9B        -0.4005
     27 H1        -30.1999   -1.8266  -14.8678 H         1 D9B         0.0777
     28 H2        -30.9594   -3.1812  -13.9652 H         1 D9B         0.0777
     29 H3        -30.5114   -3.3920  -15.6919 H         1 D9B         0.0777
     30 H4        -27.5473   -3.0783  -12.7755 H         1 D9B         0.0777
     31 H5        -29.2821   -2.9815  -12.3198 H         1 D9B         0.0777
     32 H6        -28.5213   -1.6449  -13.2479 H         1 D9B         0.0777
     33 H7        -27.9415   -5.1481  -13.7428 H         1 D9B         0.0839
     34 H8        -29.7159   -5.1096  -13.4657 H         1 D9B         0.0839
     35 H9        -28.4640   -5.1816  -16.2479 H         1 D9B         0.0640
     36 H10       -30.1774   -5.4717  -15.7929 H         1 D9B         0.0640
     37 H11       -26.1145   -6.0457  -15.7324 H         1 D9B         0.0355
     38 H12       -21.8238   -6.3436  -16.8469 H         1 D9B         0.0780
     39 H13       -21.1749   -7.6378  -15.5205 H         1 D9B         0.0579
     40 H14       -21.7290   -6.7183  -14.0803 H         1 D9B         0.0579
     41 H15       -18.0238   -6.4355  -13.9509 H         1 D9B         0.0484
     42 H16       -18.8653   -7.9503  -14.4240 H         1 D9B         0.0484
     43 H17       -19.4205   -7.0254  -12.9877 H         1 D9B         0.0484
     44 H18       -19.9792   -3.1221  -16.6456 H         1 D9B         0.0482
     45 H19       -22.3924   -3.9090  -17.0774 H         1 D9B         0.0869
     46 H20       -24.4911  -10.0067  -15.2698 H         1 D9B         0.0362
     47 H21       -26.7650  -10.9252  -14.8978 H         1 D9B         0.0479
     48 H22       -28.2356   -3.1515  -15.0543 H         1 D9B         0.2029
     49 H23       -23.1129   -8.1682  -15.5394 H         1 D9B         0.2223
@<TRIPOS>BOND
     1   19    1 1  
     2   19    2 1  
     3    4    3 1  
     4    3   19 1  
     5   20    4 1  
     6   20    5 am 
     7    5   23 2  
     8    5   24 1  
     9    7    6 ar 
    10    6   18 ar 
    11    6   24 1  
    12    8    7 ar 
    13    7   20 1  
    14    9    8 ar 
    15    9   17 ar 
    16   21    9 1  
    17   11   10 1  
    18   10   21 am 
    19   10   25 2  
    20   12   11 1  
    21   11   16 1  
    22   22   12 1  
    23   22   13 1  
    24   14   15 1  
    25   14   22 am 
    26   14   26 2  
    27   15   16 2  
    28   17   18 ar 
    29    1   27 1  
    30    1   28 1  
    31    1   29 1  
    32    2   30 1  
    33    2   31 1  
    34    2   32 1  
    35    3   33 1  
    36    3   34 1  
    37    4   35 1  
    38    4   36 1  
    39    8   37 1  
    40   11   38 1  
    41   12   39 1  
    42   12   40 1  
    43   13   41 1  
    44   13   42 1  
    45   13   43 1  
    46   15   44 1  
    47   16   45 1  
    48   17   46 1  
    49   18   47 1  
    50   19   48 1  
    51   21   49 1  
@<TRIPOS>SUBSTRUCTURE
     1 D9B         1

