### 
### Created by X-TOOL on Wed Jan  1 15:39:36 2020
### 

@<TRIPOS>MOLECULE
6fgl_ligand
   42    44     1     0     0
SMALL
GAST_HUCK


@<TRIPOS>ATOM
      1 C01       -33.8620   37.6930  -20.1520 C.3       1 UO1         0.0409
      2 C02       -33.9350   39.1130  -20.7040 C.2       1 UO1         0.2366
      3 O03       -32.9340   39.7370  -20.9870 O.2       1 UO1        -0.3635
      4 N04       -35.2360   39.6880  -20.8760 N.am      1 UO1        -0.1920
      5 C05       -36.3620   39.0220  -20.5870 C.2       1 UO1         0.0688
      6 C06       -37.4370   39.8530  -20.8840 C.2       1 UO1         0.0874
      7 N07       -38.8270   39.4720  -20.7160 N.am      1 UO1        -0.1990
      8 C08       -39.5240   39.7980  -19.5130 C.2       1 UO1         0.2161
      9 C09       -38.7600   40.5380  -18.4560 C.3       1 UO1         0.0350
     10 O10       -40.6900   39.4760  -19.3570 O.2       1 UO1        -0.3790
     11 C11       -39.5350   38.7640  -21.7670 C.ar      1 UO1         0.0762
     12 C12       -39.8280   37.3830  -21.7130 C.ar      1 UO1        -0.0316
     13 C13       -39.4000   36.5220  -20.5410 C.3       1 UO1        -0.0396
     14 C14       -40.5310   36.7840  -22.7740 C.ar      1 UO1        -0.0813
     15 C15       -40.9320   37.5480  -23.8730 C.ar      1 UO1        -0.0551
     16 C16       -40.6390   38.9110  -23.9190 C.ar      1 UO1         0.0675
     17 C17       -39.9470   39.5160  -22.8650 C.ar      1 UO1        -0.0167
     18 O18       -41.0440   39.7080  -25.0130 O.3       1 UO1        -0.3413
     19 C19       -36.8940   41.1060  -21.3850 C.ar      1 UO1         0.0090
     20 C20       -35.5100   40.9480  -21.3650 C.ar      1 UO1         0.0912
     21 C21       -34.6480   41.9920  -21.7950 C.ar      1 UO1        -0.0415
     22 C22       -35.2020   43.1910  -22.2360 C.ar      1 UO1        -0.0788
     23 C23       -36.6040   43.3620  -22.2620 C.ar      1 UO1        -0.0815
     24 C24       -37.4580   42.3330  -21.8430 C.ar      1 UO1        -0.0751
     25 H1        -34.8797   37.3191  -19.9661 H         1 UO1         0.0482
     26 H2        -33.2942   37.6945  -19.2099 H         1 UO1         0.0482
     27 H3        -33.3596   37.0412  -20.8819 H         1 UO1         0.0482
     28 H4        -36.4244   38.0098  -20.1901 H         1 UO1         0.0736
     29 H5        -39.4146   40.7217  -17.5913 H         1 UO1         0.0474
     30 H6        -38.4099   41.4987  -18.8614 H         1 UO1         0.0474
     31 H7        -37.8951   39.9364  -18.1398 H         1 UO1         0.0474
     32 H8        -39.7306   35.4861  -20.7071 H         1 UO1         0.0344
     33 H9        -39.8547   36.9083  -19.6169 H         1 UO1         0.0344
     34 H10       -38.3042   36.5468  -20.4487 H         1 UO1         0.0344
     35 H11       -40.7625   35.7256  -22.7389 H         1 UO1         0.0488
     36 H12       -41.4708   37.0815  -24.6898 H         1 UO1         0.0401
     37 H13       -39.7297   40.5773  -22.9026 H         1 UO1         0.0409
     38 H14       -41.6251   40.3939  -24.7057 H         1 UO1         0.2455
     39 H15       -33.5725   41.8570  -21.7800 H         1 UO1         0.0536
     40 H16       -34.5542   43.9971  -22.5610 H         1 UO1         0.0517
     41 H17       -37.0236   44.2990  -22.6097 H         1 UO1         0.0492
     42 H18       -38.5333   42.4680  -21.8667 H         1 UO1         0.0537
@<TRIPOS>BOND
     1    1    2 1  
     2    2    3 2  
     3    2    4 am 
     4    4    5 1  
     5    4   20 1  
     6    5    6 2  
     7    6    7 1  
     8    6   19 1  
     9    7    8 am 
    10    7   11 1  
    11    8    9 1  
    12    8   10 2  
    13   11   12 ar 
    14   11   17 ar 
    15   12   13 1  
    16   12   14 ar 
    17   14   15 ar 
    18   15   16 ar 
    19   16   17 ar 
    20   16   18 1  
    21   19   20 ar 
    22   19   24 ar 
    23   20   21 ar 
    24   21   22 ar 
    25   22   23 ar 
    26   23   24 ar 
    27    1   25 1  
    28    1   26 1  
    29    1   27 1  
    30    5   28 1  
    31    9   29 1  
    32    9   30 1  
    33    9   31 1  
    34   13   32 1  
    35   13   33 1  
    36   13   34 1  
    37   14   35 1  
    38   15   36 1  
    39   17   37 1  
    40   18   38 1  
    41   21   39 1  
    42   22   40 1  
    43   23   41 1  
    44   24   42 1  
@<TRIPOS>SUBSTRUCTURE
     1 UO1         1

