### 
### Created by X-TOOL on Wed Jan  1 15:39:38 2020
### 

@<TRIPOS>MOLECULE
6fgq_ligand
   64    67     1     0     0
SMALL
GAST_HUCK


@<TRIPOS>ATOM
      1 C1        -27.1400  -18.7550    1.2640 C.ar      1 D9N        -0.0490
      2 C2        -26.0630  -18.9200    0.4180 C.ar      1 D9N        -0.0487
      3 C3        -29.9300  -22.5100   -2.6880 C.ar      1 D9N        -0.0471
      4 C7        -19.0890  -20.9470   -0.3530 C.ar      1 D9N        -0.0562
      5 C8        -17.7690  -21.5040   -2.2710 C.ar      1 D9N        -0.0562
      6 C9        -18.7090  -22.1200    0.2540 C.ar      1 D9N        -0.0433
      7 C10       -17.3670  -22.6770   -1.6530 C.ar      1 D9N        -0.0433
      8 C11       -23.7580  -18.8800   -1.3030 C.2       1 D9N        -0.0588
      9 C12       -28.3880  -18.6180    0.6950 C.ar      1 D9N        -0.0039
     10 C13       -25.0610  -19.6420   -3.0440 C.2       1 D9N        -0.0194
     11 C14       -26.2580  -18.9470   -0.9520 C.ar      1 D9N         0.0202
     12 C15       -25.0780  -19.1300   -1.7600 C.2       1 D9N        -0.0553
     13 C16       -31.1250  -22.5720   -3.3750 C.ar      1 D9N         0.0549
     14 C19       -17.8500  -22.9750   -0.3950 C.ar      1 D9N         0.0815
     15 C20       -27.5540  -18.8080   -1.4320 C.ar      1 D9N         0.1721
     16 C21       -22.7830  -19.1960   -2.2200 C.2       1 D9N         0.1250
     17 C22       -31.8170  -23.8570   -3.4790 C.2       1 D9N         0.2578
     18 C24       -19.8510  -25.5010   -0.4280 C.3       1 D9N        -0.0454
     19 C27       -29.1580  -18.8170   -3.1300 C.3       1 D9N         0.1105
     20 N29       -28.6170  -18.6390   -0.6250 N.ar      1 D9N        -0.2764
     21 C4        -31.6770  -21.4600   -3.9780 C.ar      1 D9N        -0.0471
     22 C5        -29.2810  -21.2940   -2.6100 C.ar      1 D9N        -0.0515
     23 C6        -31.0170  -20.2500   -3.8810 C.ar      1 D9N        -0.0515
     24 C17       -18.6210  -20.6340   -1.6140 C.ar      1 D9N        -0.0236
     25 C18       -29.8140  -20.1620   -3.2070 C.ar      1 D9N        -0.0073
     26 C23       -20.4820  -19.6260   -2.7790 C.2       1 D9N         0.2204
     27 C25       -32.6020  -24.9630   -1.6490 C.3       1 D9N         0.0645
     28 C26       -19.0800  -19.3810   -2.2770 C.3       1 D9N         0.0774
     29 C28       -18.3780  -25.8080   -0.2140 C.3       1 D9N         0.0672
     30 N30       -21.4290  -19.0350   -1.9920 N.am      1 D9N        -0.2171
     31 O31       -31.5150  -24.7190   -4.2950 O.2       1 D9N        -0.3602
     32 O32       -20.6970  -20.3410   -3.7450 O.2       1 D9N        -0.3796
     33 O33       -17.6350  -24.3680    1.8320 O.2       1 D9N        -0.1702
     34 O34       -16.0140  -24.7300   -0.1020 O.2       1 D9N        -0.1702
     35 O35       -27.7640  -18.8650   -2.8170 O.3       1 D9N        -0.2847
     36 O36       -32.8110  -23.8780   -2.5530 O.3       1 D9N        -0.2818
     37 S37       -23.4700  -19.7990   -3.6940 S.3       1 D9N        -0.0218
     38 S38       -17.3470  -24.4870    0.4170 S.o2      1 D9N        -0.0061
     39 H1        -27.0093  -18.7338    2.3399 H         1 D9N         0.0606
     40 H2        -25.0646  -19.0284    0.8259 H         1 D9N         0.0676
     41 H3        -29.5112  -23.3941   -2.2211 H         1 D9N         0.0655
     42 H4        -19.7581  -20.2654    0.1596 H         1 D9N         0.0561
     43 H5        -17.4163  -21.2680   -3.2685 H         1 D9N         0.0561
     44 H6        -19.0847  -22.3698    1.2396 H         1 D9N         0.0619
     45 H7        -16.6814  -23.3526   -2.1516 H         1 D9N         0.0619
     46 H8        -23.5373  -18.4750   -0.3165 H         1 D9N         0.0149
     47 H9        -29.2366  -18.4851    1.3563 H         1 D9N         0.0758
     48 H10       -25.9614  -19.9186   -3.5906 H         1 D9N         0.0517
     49 H11       -20.3595  -26.3961   -0.8155 H         1 D9N         0.0245
     50 H12       -19.9529  -24.6791   -1.1520 H         1 D9N         0.0245
     51 H13       -20.3068  -25.2057    0.5286 H         1 D9N         0.0245
     52 H14       -29.6666  -18.2285   -2.3522 H         1 D9N         0.0797
     53 H15       -29.2765  -18.3185   -4.1034 H         1 D9N         0.0797
     54 H16       -32.6134  -21.5347   -4.5190 H         1 D9N         0.0655
     55 H17       -28.3413  -21.2233   -2.0743 H         1 D9N         0.0571
     56 H18       -31.4455  -19.3645   -4.3364 H         1 D9N         0.0571
     57 H19       -33.4082  -24.9773   -0.9008 H         1 D9N         0.0575
     58 H20       -31.6338  -24.8369   -1.1424 H         1 D9N         0.0575
     59 H21       -32.6031  -25.9108   -2.2072 H         1 D9N         0.0575
     60 H22       -18.4162  -19.1359   -3.1192 H         1 D9N         0.0665
     61 H23       -19.0784  -18.5509   -1.5552 H         1 D9N         0.0665
     62 H24       -17.9609  -26.1183   -1.1834 H         1 D9N         0.0500
     63 H25       -18.3148  -26.6448    0.4971 H         1 D9N         0.0500
     64 H26       -21.1328  -18.4664   -1.2246 H         1 D9N         0.2335
@<TRIPOS>BOND
     1    2    1 ar 
     2    1    9 ar 
     3   11    2 ar 
     4    3   13 ar 
     5   22    3 ar 
     6    6    4 ar 
     7    4   24 ar 
     8    7    5 ar 
     9    5   24 ar 
    10   14    6 ar 
    11   14    7 ar 
    12    8   12 1  
    13   16    8 2  
    14   20    9 ar 
    15   10   12 2  
    16   37   10 1  
    17   12   11 1  
    18   11   15 ar 
    19   13   17 1  
    20   21   13 ar 
    21   38   14 1  
    22   15   20 ar 
    23   15   35 1  
    24   30   16 1  
    25   16   37 1  
    26   17   31 2  
    27   17   36 1  
    28   29   18 1  
    29   19   25 1  
    30   35   19 1  
    31   23   21 ar 
    32   25   22 ar 
    33   25   23 ar 
    34   24   28 1  
    35   28   26 1  
    36   26   30 am 
    37   26   32 2  
    38   36   27 1  
    39   29   38 1  
    40   38   33 2  
    41   38   34 2  
    42    1   39 1  
    43    2   40 1  
    44    3   41 1  
    45    4   42 1  
    46    5   43 1  
    47    6   44 1  
    48    7   45 1  
    49    8   46 1  
    50    9   47 1  
    51   10   48 1  
    52   18   49 1  
    53   18   50 1  
    54   18   51 1  
    55   19   52 1  
    56   19   53 1  
    57   21   54 1  
    58   22   55 1  
    59   23   56 1  
    60   27   57 1  
    61   27   58 1  
    62   27   59 1  
    63   28   60 1  
    64   28   61 1  
    65   29   62 1  
    66   29   63 1  
    67   30   64 1  
@<TRIPOS>SUBSTRUCTURE
     1 D9N         1

