### 
### Created by X-TOOL on Wed Jan  1 15:39:37 2020
### 

@<TRIPOS>MOLECULE
6fgy_ligand
   42    44     1     0     0
SMALL
GAST_HUCK


@<TRIPOS>ATOM
      1 C2         25.2010   81.0330   16.6680 C.ar      1 D9W         0.0453
      2 C3         25.0780   79.7750   17.2970 C.ar      1 D9W         0.0265
      3 C11        28.1180   79.6010   19.4950 C.2       1 D9W         0.2533
      4 C15        28.8400   77.4730   20.6210 C.ar      1 D9W         0.0950
      5 C16        28.7310   76.0840   20.4370 C.ar      1 D9W        -0.0158
      6 C18        29.4740   75.1400   21.1920 C.ar      1 D9W        -0.0147
      7 C19        30.3690   75.6610   22.1760 C.ar      1 D9W        -0.0486
      8 C21        30.4950   77.0550   22.3820 C.ar      1 D9W        -0.0433
      9 C23        29.7370   77.9630   21.6100 C.ar      1 D9W        -0.0110
     10 C25        29.3000   73.6120   20.9190 C.3       1 D9W         0.1176
     11 C27        27.9630   73.0720   18.9900 C.cat     1 D9W         0.2245
     12 C28        29.2030   73.0210   18.1030 C.3       1 D9W         0.1181
     13 BR1        23.9320   81.6460   15.4760 Br        1 D9W        -0.0365
     14 N5         26.0340   79.3740   18.1820 N.ar      1 D9W        -0.2727
     15 C6         27.1260   80.1410   18.4990 C.ar      1 D9W         0.1312
     16 C7         27.2970   81.4040   17.8870 C.ar      1 D9W        -0.0108
     17 C9         26.3200   81.8380   16.9700 C.ar      1 D9W        -0.0272
     18 O12        28.9340   80.3710   19.9880 O.2       1 D9W        -0.3662
     19 N13        28.0250   78.2750   19.7700 N.am      1 D9W        -0.2249
     20 N26        28.0100   73.3490   20.2560 N.pl3     1 D9W        -0.2874
     21 O31        30.3240   73.6550   18.7590 O.3       1 D9W        -0.3812
     22 C32        30.5390   73.1520   20.0860 C.3       1 D9W         0.0711
     23 N35        26.8230   72.8190   18.3960 N.pl3     1 D9W        -0.2748
     24 C38        29.1650   72.7600   22.2160 C.3       1 D9W        -0.0394
     25 H1         24.2315   79.1342   17.0782 H         1 D9W         0.0867
     26 H2         28.0461   75.7160   19.6817 H         1 D9W         0.0711
     27 H3         30.9608   74.9776   22.7742 H         1 D9W         0.0740
     28 H4         31.1774   77.4285   23.1369 H         1 D9W         0.0664
     29 H5         29.8386   79.0302   21.7708 H         1 D9W         0.0760
     30 H6         28.9937   73.5444   17.1585 H         1 D9W         0.0576
     31 H7         29.4540   71.9709   17.8925 H         1 D9W         0.0576
     32 H8         28.1573   82.0220   18.1174 H         1 D9W         0.0769
     33 H9         26.4291   82.8036   16.4897 H         1 D9W         0.0774
     34 H10        27.2792   77.7926   19.3106 H         1 D9W         0.2259
     35 H11        27.1381   73.3856   20.8032 H         1 D9W         0.3104
     36 H12        30.6066   72.0542   20.0736 H         1 D9W         0.0510
     37 H13        31.4633   73.5715   20.5099 H         1 D9W         0.0510
     38 H14        25.9460   72.8365   18.9358 H         1 D9W         0.3178
     39 H15        26.8038   72.6026   17.3892 H         1 D9W         0.3178
     40 H16        30.0782   72.8648   22.8202 H         1 D9W         0.0181
     41 H17        29.0226   71.7029   21.9472 H         1 D9W         0.0181
     42 H18        28.2990   73.1106   22.7966 H         1 D9W         0.0181
@<TRIPOS>BOND
     1    2    1 ar 
     2    1   13 1  
     3    1   17 ar 
     4   14    2 ar 
     5   15    3 1  
     6    3   18 2  
     7    3   19 am 
     8    4    5 ar 
     9    4    9 ar 
    10   19    4 1  
    11    5    6 ar 
    12    6    7 ar 
    13    6   10 1  
    14    8    7 ar 
    15    9    8 ar 
    16   10   20 1  
    17   10   22 1  
    18   10   24 1  
    19   11   12 1  
    20   20   11 ar 
    21   11   23 ar 
    22   12   21 1  
    23   14   15 ar 
    24   15   16 ar 
    25   16   17 ar 
    26   21   22 1  
    27    2   25 1  
    28    5   26 1  
    29    7   27 1  
    30    8   28 1  
    31    9   29 1  
    32   12   30 1  
    33   12   31 1  
    34   16   32 1  
    35   17   33 1  
    36   19   34 1  
    37   20   35 1  
    38   22   36 1  
    39   22   37 1  
    40   23   38 1  
    41   23   39 1  
    42   24   40 1  
    43   24   41 1  
    44   24   42 1  
@<TRIPOS>SUBSTRUCTURE
     1 D9W         1

