### 
### Created by X-TOOL on Wed Jan  1 15:39:37 2020
### 

@<TRIPOS>MOLECULE
6fh6_ligand
   30    30     1     0     0
SMALL
GAST_HUCK


@<TRIPOS>ATOM
      1 C01       -24.1290  -10.8480    0.9240 C.3       1 D8Q         0.0244
      2 C03       -26.0760   -9.2130    0.9720 C.3       1 D8Q         0.0658
      3 C04       -26.5770   -7.7740    0.9870 C.2       1 D8Q         0.0393
      4 C05       -25.6220   -6.6430    0.9890 C.2       1 D8Q        -0.0474
      5 C06       -24.1620   -6.9370    0.9590 C.3       1 D8Q         0.0644
      6 C07       -23.6430   -8.3720    0.9380 C.2       1 D8Q         0.1914
      7 C09       -28.0500   -7.4450    1.0270 C.2       1 D8Q         0.1899
      8 C12       -29.8300   -5.8250    1.8290 C.3       1 D8Q         0.0696
      9 C13       -29.9670   -4.9350    3.0620 C.3       1 D8Q        -0.0149
     10 N02       -24.6150   -9.4820    0.9440 N.am      1 D8Q        -0.2664
     11 N11       -28.4410   -6.2260    1.7130 N.am      1 D8Q        -0.2845
     12 N14       -31.1330   -5.3110    3.8340 N.4       1 D8Q         0.2199
     13 O08       -22.4790   -8.5930    0.9160 O.2       1 D8Q        -0.3933
     14 O10       -28.8320   -8.1830    0.5310 O.2       1 D8Q        -0.3956
     15 H1        -24.9831  -11.5412    0.9318 H         1 D8Q         0.0488
     16 H2        -23.5030  -11.0275    1.8105 H         1 D8Q         0.0488
     17 H3        -23.5323  -11.0116    0.0145 H         1 D8Q         0.0488
     18 H4        -26.5059   -9.6915    0.0797 H         1 D8Q         0.0644
     19 H5        -26.4728   -9.6987    1.8757 H         1 D8Q         0.0644
     20 H6        -25.9802   -5.6149    1.0120 H         1 D8Q         0.0658
     21 H7        -23.7304   -6.4629    1.8528 H         1 D8Q         0.0668
     22 H8        -23.7645   -6.4489    0.0569 H         1 D8Q         0.0668
     23 H9        -30.1328   -5.2666    0.9309 H         1 D8Q         0.0571
     24 H10       -30.4667   -6.7151    1.9394 H         1 D8Q         0.0571
     25 H11       -30.0674   -3.8873    2.7424 H         1 D8Q         0.0833
     26 H12       -29.0688   -5.0431    3.6877 H         1 D8Q         0.0833
     27 H13       -27.7327   -5.6469    2.1167 H         1 D8Q         0.1837
     28 H14       -31.2074   -4.7139    4.6427 H         1 D8Q         0.1995
     29 H15       -31.0441   -6.2700    4.1315 H         1 D8Q         0.1995
     30 H16       -31.9592   -5.2108    3.2653 H         1 D8Q         0.1995
@<TRIPOS>BOND
     1   10    1 1  
     2    3    2 1  
     3    2   10 1  
     4    3    4 2  
     5    7    3 1  
     6    4    5 1  
     7    5    6 1  
     8   10    6 am 
     9    6   13 2  
    10   11    7 am 
    11    7   14 2  
    12    8    9 1  
    13    8   11 1  
    14    9   12 1  
    15    1   15 1  
    16    1   16 1  
    17    1   17 1  
    18    2   18 1  
    19    2   19 1  
    20    4   20 1  
    21    5   21 1  
    22    5   22 1  
    23    8   23 1  
    24    8   24 1  
    25    9   25 1  
    26    9   26 1  
    27   11   27 1  
    28   12   28 1  
    29   12   29 1  
    30   12   30 1  
@<TRIPOS>SUBSTRUCTURE
     1 D8Q         1

