### 
### Created by X-TOOL on Wed Jan  1 15:39:37 2020
### 

@<TRIPOS>MOLECULE
6fh7_ligand
   44    45     1     0     0
SMALL
GAST_HUCK


@<TRIPOS>ATOM
      1 C01       -23.6550  -10.5910    0.6830 C.3       1 EN2         0.0244
      2 C03       -26.0530   -9.7770    0.3330 C.3       1 EN2         0.0658
      3 C04       -27.0430   -8.6230    0.2800 C.2       1 EN2         0.0393
      4 C05       -26.5810   -7.2360    0.5220 C.2       1 EN2        -0.0474
      5 C06       -25.1460   -6.9680    0.8220 C.3       1 EN2         0.0644
      6 C07       -24.1580   -8.1220    0.8820 C.2       1 EN2         0.1914
      7 C09       -28.5170   -8.8660   -0.0260 C.2       1 EN2         0.1897
      8 C12       -30.4340  -10.3560   -0.6420 C.3       1 EN2         0.0316
      9 C13       -31.0070  -11.6150    0.0120 C.3       1 EN2        -0.0127
     10 C14       -32.5290  -11.6900   -0.1050 C.3       1 EN2         0.0321
     11 C16       -33.4110  -13.9210    0.9620 C.2       1 EN2         0.2019
     12 C18       -33.2190  -14.8980   -0.2170 C.ar      1 EN2         0.0457
     13 C19       -34.0020  -16.0460   -0.2120 C.ar      1 EN2        -0.0437
     14 C20       -33.9020  -16.9780   -1.2380 C.ar      1 EN2        -0.0223
     15 C21       -33.0110  -16.7750   -2.2860 C.ar      1 EN2         0.1375
     16 C23       -32.2170  -15.6330   -2.3010 C.ar      1 EN2        -0.0223
     17 C24       -32.3220  -14.7040   -1.2710 C.ar      1 EN2        -0.0437
     18 F22       -32.9200  -17.6990   -3.2930 F         1 EN2        -0.1794
     19 N02       -24.6190   -9.5030    0.6290 N.am      1 EN2        -0.2664
     20 N11       -29.0160  -10.1900   -0.3560 N.am      1 EN2        -0.2896
     21 N15       -33.1040  -12.4820    0.9800 N.am      1 EN2        -0.2867
     22 O08       -23.0170   -7.9290    1.1220 O.2       1 EN2        -0.3933
     23 O10       -29.2670   -7.9510    0.0160 O.2       1 EN2        -0.3956
     24 O17       -33.8840  -14.3800    1.9460 O.2       1 EN2        -0.3866
     25 H1        -24.1643  -11.5429    0.4721 H         1 EN2         0.0488
     26 H2        -23.2031  -10.6312    1.6851 H         1 EN2         0.0488
     27 H3        -22.8687  -10.4218   -0.0673 H         1 EN2         0.0488
     28 H4        -26.0875  -10.2729   -0.6482 H         1 EN2         0.0644
     29 H5        -26.4121  -10.4708    1.1074 H         1 EN2         0.0644
     30 H6        -27.2910   -6.4114    0.4806 H         1 EN2         0.0658
     31 H7        -25.1132   -6.4695    1.8020 H         1 EN2         0.0668
     32 H8        -24.7822   -6.2774    0.0470 H         1 EN2         0.0668
     33 H9        -30.9781   -9.4790   -0.2614 H         1 EN2         0.0519
     34 H10       -30.5705  -10.4280   -1.7311 H         1 EN2         0.0519
     35 H11       -30.7341  -11.6152    1.0776 H         1 EN2         0.0304
     36 H12       -30.5709  -12.4978   -0.4784 H         1 EN2         0.0304
     37 H13       -32.7925  -12.1543   -1.0667 H         1 EN2         0.0520
     38 H14       -32.9427  -10.6716   -0.0640 H         1 EN2         0.0520
     39 H15       -34.6984  -16.2164    0.6011 H         1 EN2         0.0659
     40 H16       -34.5215  -17.8674   -1.2212 H         1 EN2         0.0616
     41 H17       -31.5183  -15.4674   -3.1131 H         1 EN2         0.0616
     42 H18       -31.6992  -13.8169   -1.2861 H         1 EN2         0.0659
     43 H19       -28.3960  -10.9741   -0.3862 H         1 EN2         0.1835
     44 H20       -33.3115  -11.9928    1.8271 H         1 EN2         0.1843
@<TRIPOS>BOND
     1   19    1 1  
     2    3    2 1  
     3    2   19 1  
     4    3    4 2  
     5    7    3 1  
     6    4    5 1  
     7    5    6 1  
     8   19    6 am 
     9    6   22 2  
    10   20    7 am 
    11    7   23 2  
    12    9    8 1  
    13    8   20 1  
    14   10    9 1  
    15   21   10 1  
    16   11   12 1  
    17   11   21 am 
    18   11   24 2  
    19   12   13 ar 
    20   12   17 ar 
    21   13   14 ar 
    22   14   15 ar 
    23   15   16 ar 
    24   15   18 1  
    25   16   17 ar 
    26    1   25 1  
    27    1   26 1  
    28    1   27 1  
    29    2   28 1  
    30    2   29 1  
    31    4   30 1  
    32    5   31 1  
    33    5   32 1  
    34    8   33 1  
    35    8   34 1  
    36    9   35 1  
    37    9   36 1  
    38   10   37 1  
    39   10   38 1  
    40   13   39 1  
    41   14   40 1  
    42   16   41 1  
    43   17   42 1  
    44   20   43 1  
    45   21   44 1  
@<TRIPOS>SUBSTRUCTURE
     1 EN2         1

