### 
### Created by X-TOOL on Wed Jan  1 15:39:36 2020
### 

@<TRIPOS>MOLECULE
6fhq_ligand
   18    18     1     0     0
SMALL
GAST_HUCK


@<TRIPOS>ATOM
      1 C4         19.5760    2.6540    7.8640 C.2       1 DE5         0.2604
      2 C5         19.3530    1.1520    8.2600 C.3       1 DE5         0.0624
      3 N1         19.1450    4.5030    4.7880 N.2       1 DE5        -0.3233
      4 N2         19.2010    2.9320    6.5660 N.am      1 DE5        -0.1899
      5 C3         19.2820    4.1890    6.0840 C.2       1 DE5         0.2059
      6 N3         19.4140    0.9130    9.7410 N.4       1 DE5         0.2363
      7 C2         19.2540    5.8320    4.5050 C.2       1 DE5        -0.0467
      8 C1         19.4960    6.6050    5.5850 C.2       1 DE5        -0.0079
      9 S1         19.5500    5.6300    6.9500 S.3       1 DE5         0.0111
     10 O1         19.9870    3.4960    8.6890 O.2       1 DE5        -0.3741
     11 H1         20.1314    0.5440    7.7759 H         1 DE5         0.1069
     12 H2         18.3635    0.8382    7.8962 H         1 DE5         0.1069
     13 H3         18.8665    2.1957    5.9778 H         1 DE5         0.2413
     14 H4         19.2640   -0.0657    9.9298 H         1 DE5         0.2013
     15 H5         18.6994    1.4569   10.1989 H         1 DE5         0.2013
     16 H6         20.3195    1.1873   10.0886 H         1 DE5         0.2013
     17 H7         19.1547    6.2342    3.4979 H         1 DE5         0.0497
     18 H8         19.6337    7.6852    5.5725 H         1 DE5         0.0573
@<TRIPOS>BOND
     1    1    2 1  
     2    4    1 am 
     3    1   10 2  
     4    2    6 1  
     5    5    3 2  
     6    3    7 1  
     7    4    5 1  
     8    5    9 1  
     9    7    8 2  
    10    8    9 1  
    11    2   11 1  
    12    2   12 1  
    13    4   13 1  
    14    6   14 1  
    15    6   15 1  
    16    6   16 1  
    17    7   17 1  
    18    8   18 1  
@<TRIPOS>SUBSTRUCTURE
     1 DE5         1

