### 
### Created by X-TOOL on Wed Jan  1 15:39:37 2020
### 

@<TRIPOS>MOLECULE
6fhu_ligand
   42    41     1     0     0
SMALL
GAST_HUCK


@<TRIPOS>ATOM
      1 N          21.4220   39.3340   16.8500 N.4       1 ALA         0.2377
      2 CA         20.7160   38.0180   16.7560 C.3       1 ALA         0.0621
      3 C          20.2380   37.7350   15.3300 C.2       1 ALA         0.2264
      4 O          19.9540   38.6590   14.5630 O.2       1 ALA        -0.3907
      5 CB         19.5410   37.9670   17.7290 C.3       1 ALA        -0.0040
      6 N          20.1380   36.4490   15.0020 N.am      1 ARG        -0.2610
      7 CA         19.8090   35.9860   13.6470 C.3       1 ARG         0.1308
      8 C          18.2920   35.7430   13.4940 C.2       1 ARG         0.2040
      9 O          17.6050   35.4790   14.4880 O.2       1 ARG        -0.3944
     10 CB         20.6050   34.7060   13.3350 C.3       1 ARG        -0.0152
     11 CG         22.0990   34.8130   13.6060 C.3       1 ARG        -0.0610
     12 N          17.7850   35.8430   12.2580 N.am      1 9AT        -0.2613
     13 CA         16.3460   35.6960   11.9630 C.3       1 9AT         0.1561
     14 C          16.0410   34.7350   10.8100 C.2       1 9AT         0.2017
     15 O          16.8660   34.5560    9.9160 O.2       1 9AT        -0.3946
     16 CB         15.6460   37.0370   11.6920 C.3       1 9AT         0.0924
     17 OG1        16.4690   37.8440   10.8500 O.3       1 9AT        -0.3874
     18 CG2        15.3020   37.7750   12.9670 C.3       1 9AT        -0.0346
     19 NXT        14.8600   34.1330   10.8310 N.am      1 9AT        -0.2989
     20 H1         21.7221   39.4872   17.8000 H         1 ALA         0.2015
     21 H2         20.7945   40.0725   16.5727 H         1 ALA         0.2015
     22 H3         22.2250   39.3288   16.2407 H         1 ALA         0.2015
     23 H4         21.4297   37.2299   17.0379 H         1 ALA         0.1095
     24 H5         19.0366   36.9931   17.6440 H         1 ALA         0.0310
     25 H6         18.8297   38.7706   17.4874 H         1 ALA         0.0310
     26 H7         19.9098   38.1004   18.7567 H         1 ALA         0.0310
     27 H8         20.2946   35.7637   15.7133 H         1 ARG         0.1884
     28 H9         20.1060   36.7658   12.9303 H         1 ARG         0.0800
     29 H10        20.4648   34.4644   12.2711 H         1 ARG         0.0310
     30 H11        20.2009   33.8904   13.9526 H         1 ARG         0.0310
     31 H12        22.5861   33.8588   13.3567 H         1 ARG         0.0232
     32 H13        22.2633   35.0417   14.6693 H         1 ARG         0.0232
     33 H14        22.5273   35.6157   12.9878 H         1 ARG         0.0232
     34 H15        18.4107   36.0258   11.4996 H         1 9AT         0.1884
     35 H16        15.8895   35.2681   12.8677 H         1 9AT         0.0826
     36 H17        14.7059   36.8285   11.1603 H         1 9AT         0.0639
     37 H18        16.6175   37.3925   10.0274 H         1 9AT         0.2101
     38 H19        14.8049   38.7242   12.7184 H         1 9AT         0.0257
     39 H20        16.2233   37.9805   13.5317 H         1 9AT         0.0257
     40 H21        14.6276   37.1569   13.5779 H         1 9AT         0.0257
     41 H22        14.6106   33.4957   10.1018 H         1 9AT         0.1815
     42 H23        14.2186   34.3162   11.5760 H         1 9AT         0.1815
@<TRIPOS>BOND
     1    1    2 1  
     2    2    3 1  
     3    2    5 1  
     4    3    4 2  
     5    3    6 am 
     6    6    7 1  
     7    7    8 1  
     8    7   10 1  
     9    8    9 2  
    10    8   12 am 
    11   10   11 1  
    12   12   13 1  
    13   13   14 1  
    14   13   16 1  
    15   14   15 2  
    16   14   19 am 
    17   16   17 1  
    18   16   18 1  
    19    1   20 1  
    20    1   21 1  
    21    1   22 1  
    22    2   23 1  
    23    5   24 1  
    24    5   25 1  
    25    5   26 1  
    26    6   27 1  
    27    7   28 1  
    28   10   29 1  
    29   10   30 1  
    30   11   31 1  
    31   11   32 1  
    32   11   33 1  
    33   12   34 1  
    34   13   35 1  
    35   16   36 1  
    36   17   37 1  
    37   18   38 1  
    38   18   39 1  
    39   18   40 1  
    40   19   41 1  
    41   19   42 1  
@<TRIPOS>SUBSTRUCTURE
     1 ALA         1

