### 
### Created by X-TOOL on Wed Jan  1 15:39:38 2020
### 

@<TRIPOS>MOLECULE
6fi1_ligand
   24    24     1     0     0
SMALL
GAST_HUCK


@<TRIPOS>ATOM
      1 C4         18.7480    4.1070    5.4100 C.ar      1 D3H         0.0538
      2 C5         19.2620    5.3730    5.7760 C.ar      1 D3H        -0.0518
      3 C6         19.0580    6.4950    4.9760 C.ar      1 D3H        -0.0570
      4 C7         19.3410    2.8490    7.3780 C.2       1 D3H         0.2456
      5 C8         19.3280    1.3980    7.9230 C.3       1 D3H         0.0596
      6 N1         18.8660    2.9460    6.1020 N.am      1 D3H        -0.2369
      7 N2         19.1900    1.3700    9.3940 N.4       1 D3H         0.2361
      8 C3         18.0310    4.0200    4.2110 C.ar      1 D3H        -0.0518
      9 N3         18.1370    7.4240    2.9940 N.pl3     1 D3H        -0.3448
     10 C2         17.8360    5.1390    3.4030 C.ar      1 D3H        -0.0570
     11 C1         18.3400    6.3750    3.7830 C.ar      1 D3H         0.0206
     12 O1         19.7430    3.7700    8.1000 O.2       1 D3H        -0.3806
     13 H1         19.8255    5.4720    6.6967 H         1 D3H         0.0474
     14 H2         19.4547    7.4576    5.2777 H         1 D3H         0.0481
     15 H3         20.2699    0.9033    7.6435 H         1 D3H         0.1066
     16 H4         18.4822    0.8560    7.4749 H         1 D3H         0.1066
     17 H5         18.5852    2.1019    5.6451 H         1 D3H         0.2215
     18 H6         19.1852    0.4138    9.7129 H         1 D3H         0.2012
     19 H7         18.3262    1.8168    9.6590 H         1 D3H         0.2012
     20 H8         19.9644    1.8602    9.8135 H         1 D3H         0.2012
     21 H9         17.6198    3.0648    3.9052 H         1 D3H         0.0474
     22 H10        17.6051    7.3148    2.1187 H         1 D3H         0.1675
     23 H11        18.5114    8.3467    3.2574 H         1 D3H         0.1675
     24 H12        17.2877    5.0433    2.4728 H         1 D3H         0.0481
@<TRIPOS>BOND
     1    1    2 ar 
     2    6    1 1  
     3    1    8 ar 
     4    2    3 ar 
     5    3   11 ar 
     6    4    5 1  
     7    4    6 am 
     8    4   12 2  
     9    5    7 1  
    10    8   10 ar 
    11   11    9 1  
    12   10   11 ar 
    13    2   13 1  
    14    3   14 1  
    15    5   15 1  
    16    5   16 1  
    17    6   17 1  
    18    7   18 1  
    19    7   19 1  
    20    7   20 1  
    21    8   21 1  
    22    9   22 1  
    23    9   23 1  
    24   10   24 1  
@<TRIPOS>SUBSTRUCTURE
     1 D3H         1

