### 
### Created by X-TOOL on Wed Jan  1 15:39:37 2020
### 

@<TRIPOS>MOLECULE
6fil_ligand
   59    63     1     0     0
SMALL
GAST_HUCK


@<TRIPOS>ATOM
      1 C4         22.1140   -1.6240   -0.7680 C.3       1 D6W         0.0002
      2 C5         20.7720   -2.1170   -0.2130 C.3       1 D6W         0.0349
      3 C8         25.6390   -2.3180   -0.6300 C.3       1 D6W         0.1164
      4 C10        23.6030   -3.5440   -0.1860 C.2       1 D6W         0.2301
      5 C13        25.9860    0.5540   -0.8090 C.ar      1 D6W        -0.0444
      6 C15        25.3080    2.8110   -0.2450 C.ar      1 D6W        -0.0751
      7 C17        23.8780    0.9450    0.2700 C.ar      1 D6W        -0.0444
      8 C20        18.8590   -0.0050    0.8740 C.ar      1 D6W         0.0511
      9 C21        19.3630    0.7440   -0.1540 C.ar      1 D6W        -0.0269
     10 C22        18.4620    1.4910   -0.9110 C.ar      1 D6W         0.0384
     11 C24        16.5570    0.7190    0.4680 C.ar      1 D6W        -0.0531
     12 C26        18.6090    2.3350   -2.0710 C.2       1 D6W         0.1104
     13 C1         21.6060   -2.4370    2.0580 C.3       1 D6W         0.0349
     14 C2         22.9910   -1.9220    1.6380 C.3       1 D6W         0.0002
     15 C3         23.2750   -2.0790    0.1260 C.3       1 D6W         0.1349
     16 N6         20.6660   -1.7070    1.2120 N.am      1 D6W        -0.2725
     17 N7         24.5280   -1.3660   -0.3120 N.pl3     1 D6W        -0.2776
     18 N9         24.9560   -3.6380   -0.5790 N.am      1 D6W        -0.2314
     19 O11        22.8640   -4.5050   -0.1380 O.2       1 D6W        -0.3417
     20 C12        24.8040    0.0540   -0.2770 C.ar      1 D6W         0.0411
     21 C14        26.2310    1.9260   -0.7980 C.ar      1 D6W        -0.0737
     22 C16        24.1370    2.3180    0.2910 C.ar      1 D6W        -0.0737
     23 C18        19.7480   -0.7920    1.7400 C.2       1 D6W         0.2074
     24 O19        19.6210   -0.6730    2.9630 O.2       1 D6W        -0.3845
     25 C23        17.0880    1.4770   -0.6040 C.ar      1 D6W        -0.0092
     26 C25        17.4690   -0.0310    1.1970 C.ar      1 D6W        -0.0419
     27 N27        17.4040    2.7980   -2.4460 N.pl3     1 D6W        -0.2442
     28 N28        16.4890    2.2960   -1.5680 N.2       1 D6W        -0.3319
     29 C29        25.6050   -4.8660   -1.0500 C.3       1 D6W         0.1248
     30 C30        25.2890   -5.0790   -2.5320 C.2       1 D6W         0.1987
     31 O31        24.4720   -4.4100   -3.1300 O.2       1 D6W        -0.3948
     32 N32        25.9550   -6.0730   -3.1740 N.am      1 D6W        -0.2883
     33 C33        25.6400   -6.2640   -4.5910 C.3       1 D6W         0.0196
     34 H1         22.1034   -0.5250   -0.8133 H         1 D6W         0.0296
     35 H2         22.2572   -2.0314   -1.7797 H         1 D6W         0.0296
     36 H3         20.7209   -3.2133   -0.2875 H         1 D6W         0.0521
     37 H4         19.9473   -1.6715   -0.7886 H         1 D6W         0.0521
     38 H5         26.4419   -2.2566    0.1194 H         1 D6W         0.0787
     39 H6         26.0549   -2.1240   -1.6297 H         1 D6W         0.0787
     40 H7         26.7183   -0.1235   -1.2330 H         1 D6W         0.0515
     41 H8         25.5083    3.8763   -0.2362 H         1 D6W         0.0505
     42 H9         22.9492    0.5677    0.6823 H         1 D6W         0.0515
     43 H10        20.4248    0.7561   -0.3719 H         1 D6W         0.0680
     44 H11        15.4993    0.7244    0.7053 H         1 D6W         0.0630
     45 H12        19.5514    2.5624   -2.5670 H         1 D6W         0.1370
     46 H13        21.4184   -2.2228    3.1205 H         1 D6W         0.0521
     47 H14        21.5253   -3.5199    1.8825 H         1 D6W         0.0521
     48 H15        23.7551   -2.4832    2.1958 H         1 D6W         0.0296
     49 H16        23.0586   -0.8548    1.8959 H         1 D6W         0.0296
     50 H17        27.1508    2.3091   -1.2249 H         1 D6W         0.0583
     51 H18        23.4154    2.9975    0.7299 H         1 D6W         0.0583
     52 H19        17.1218   -0.6436    2.0212 H         1 D6W         0.0669
     53 H20        17.2084    3.4161   -3.2464 H         1 D6W         0.2935
     54 H21        25.2320   -5.7227   -0.4696 H         1 D6W         0.0768
     55 H22        26.6934   -4.7788   -0.9169 H         1 D6W         0.0768
     56 H23        26.6263   -6.6453   -2.7031 H         1 D6W         0.1848
     57 H24        26.2416   -7.0931   -4.9918 H         1 D6W         0.0484
     58 H25        25.8705   -5.3423   -5.1454 H         1 D6W         0.0484
     59 H26        24.5713   -6.5002   -4.7005 H         1 D6W         0.0484
@<TRIPOS>BOND
     1    1    2 1  
     2   15    1 1  
     3    2   16 1  
     4   17    3 1  
     5    3   18 1  
     6   15    4 1  
     7    4   18 am 
     8    4   19 2  
     9   20    5 ar 
    10    5   21 ar 
    11   21    6 ar 
    12   22    6 ar 
    13   20    7 ar 
    14    7   22 ar 
    15    8    9 ar 
    16   23    8 1  
    17    8   26 ar 
    18    9   10 ar 
    19   10   12 2  
    20   10   25 ar 
    21   11   25 ar 
    22   26   11 ar 
    23   12   27 1  
    24   14   13 1  
    25   13   16 1  
    26   15   14 1  
    27   17   15 1  
    28   16   23 am 
    29   17   20 1  
    30   18   29 1  
    31   23   24 2  
    32   25   28 2  
    33   27   28 1  
    34   29   30 1  
    35   30   31 2  
    36   30   32 am 
    37   32   33 1  
    38    1   34 1  
    39    1   35 1  
    40    2   36 1  
    41    2   37 1  
    42    3   38 1  
    43    3   39 1  
    44    5   40 1  
    45    6   41 1  
    46    7   42 1  
    47    9   43 1  
    48   11   44 1  
    49   12   45 1  
    50   13   46 1  
    51   13   47 1  
    52   14   48 1  
    53   14   49 1  
    54   21   50 1  
    55   22   51 1  
    56   26   52 1  
    57   27   53 1  
    58   29   54 1  
    59   29   55 1  
    60   32   56 1  
    61   33   57 1  
    62   33   58 1  
    63   33   59 1  
@<TRIPOS>SUBSTRUCTURE
     1 D6W         1

