### 
### Created by X-TOOL on Wed Jan  1 15:39:36 2020
### 

@<TRIPOS>MOLECULE
6fjm_ligand
  100   102     1     0     0
SMALL
GAST_HUCK


@<TRIPOS>ATOM
      1 CAB        23.0610  -28.2550  -46.2890 C.2       1 DKN         0.1277
      2 CAC        22.3380  -28.7940  -45.2700 C.2       1 DKN         0.1205
      3 CAE        24.0840  -28.0050  -44.4190 C.2       1 DKN         0.1837
      4 CAF        25.1110  -27.5890  -43.4860 C.2       1 DKN        -0.0109
      5 CAG        25.9690  -26.5800  -43.7460 C.2       1 DKN        -0.0660
      6 CAH        26.9830  -26.1650  -42.8020 C.2       1 DKN        -0.0691
      7 CAI        27.8390  -25.1580  -43.0790 C.2       1 DKN        -0.0704
      8 CAJ        28.8630  -24.7270  -42.1370 C.2       1 DKN        -0.0617
      9 CAK        29.7590  -23.7350  -42.3100 C.2       1 DKN        -0.0606
     10 CAL        29.9400  -22.8310  -43.5110 C.3       1 DKN         0.0155
     11 CAM        28.7640  -21.9280  -44.0070 C.3       1 DKN         0.1162
     12 CAO        29.0890  -20.8910  -45.1360 C.3       1 DKN         0.1244
     13 CAP        30.4010  -20.1040  -44.8230 C.3       1 DKN         0.0886
     14 CAQ        29.3230  -21.7410  -46.4140 C.3       1 DKN        -0.0451
     15 CAR        27.9950  -19.8230  -45.2380 C.2       1 DKN         0.2686
     16 CAS        30.4280  -19.5730  -43.4070 C.2       1 DKN        -0.0713
     17 CAU        31.5230  -19.5250  -42.6480 C.2       1 DKN        -0.0995
     18 CAV        31.4960  -18.9940  -41.2440 C.3       1 DKN        -0.0485
     19 CAW        26.3630  -22.4960  -43.3480 C.2       1 DKN         0.2561
     20 CAX        25.1760  -23.1260  -43.9030 C.2       1 DKN         0.1205
     21 CBA        23.2660  -24.0000  -44.0280 C.2       1 DKN         0.1837
     22 CBC        24.9840  -23.4720  -45.2020 C.2       1 DKN         0.1277
     23 CBD        21.9400  -24.5270  -43.7590 C.2       1 DKN        -0.0109
     24 CBE        21.3090  -25.3900  -44.5910 C.2       1 DKN        -0.0660
     25 CBF        19.9820  -25.9210  -44.3370 C.2       1 DKN        -0.0691
     26 CBG        19.3910  -26.7840  -45.1920 C.2       1 DKN        -0.0704
     27 CBH        18.0580  -27.3440  -44.9770 C.2       1 DKN        -0.0617
     28 CBI        17.4160  -28.2070  -45.7920 C.2       1 DKN        -0.0606
     29 CBJ        17.9220  -28.7920  -47.0990 C.3       1 DKN         0.0155
     30 CBK        19.1370  -29.7780  -47.0030 C.3       1 DKN         0.1162
     31 CBM        19.4140  -30.8640  -48.1060 C.3       1 DKN         0.1244
     32 CBN        20.4370  -31.9110  -47.5190 C.3       1 DKN         0.0886
     33 CBO        18.0800  -31.6260  -48.3540 C.3       1 DKN        -0.0451
     34 CBP        20.0770  -30.1960  -49.3310 C.2       1 DKN         0.2686
     35 CBR        21.6760  -32.2080  -48.3440 C.2       1 DKN        -0.0713
     36 CBS        22.9170  -32.1140  -47.8500 C.2       1 DKN        -0.0995
     37 CBT        24.1400  -32.4190  -48.6650 C.3       1 DKN        -0.0485
     38 CBU        21.0490  -29.4550  -45.3640 C.2       1 DKN         0.2561
     39 CBY        27.3160  -19.0830  -47.4330 C.3       1 DKN         0.0649
     40 CCB        18.2940  -29.5430  -50.8780 C.3       1 DKN         0.0649
     41 NAD        22.9890  -28.6240  -44.0950 N.2       1 DKN        -0.2943
     42 NAZ        24.0870  -23.4660  -43.1660 N.2       1 DKN        -0.2943
     43 OAA        24.2100  -27.7290  -45.7700 O.3       1 DKN        -0.2265
     44 OAN        27.4530  -22.5080  -44.1620 O.3       1 DKN        -0.2744
     45 OAT        30.5820  -19.0270  -45.7500 O.3       1 DKN        -0.3834
     46 OAY        26.4050  -21.9900  -42.2260 O.2       1 DKN        -0.3678
     47 OBB        23.7490  -24.0380  -45.3210 O.3       1 DKN        -0.2265
     48 OBL        20.3480  -29.1910  -46.4960 O.3       1 DKN        -0.2744
     49 OBQ        19.7660  -33.1460  -47.2490 O.3       1 DKN        -0.3834
     50 OBV        20.6020  -30.2080  -44.4990 O.2       1 DKN        -0.3678
     51 OBW        27.0860  -19.8040  -44.4170 O.2       1 DKN        -0.3116
     52 OBX        27.8800  -18.8230  -46.1530 O.3       1 DKN        -0.2803
     53 OBZ        21.1860  -29.6790  -49.2300 O.2       1 DKN        -0.3116
     54 OCA        19.5950  -30.0640  -50.6030 O.3       1 DKN        -0.2803
     55 H1         22.7728  -28.2447  -47.3391 H         1 DKN         0.1165
     56 H2         25.1944  -28.1124  -42.5347 H         1 DKN         0.0556
     57 H3         25.8951  -26.0602  -44.7001 H         1 DKN         0.0633
     58 H4         27.0581  -26.6773  -41.8440 H         1 DKN         0.0511
     59 H5         27.7611  -24.6508  -44.0395 H         1 DKN         0.0646
     60 H6         28.9097  -25.2642  -41.1909 H         1 DKN         0.0482
     61 H7         30.4407  -23.5613  -41.4787 H         1 DKN         0.0827
     62 H8         30.2173  -23.4795  -44.3551 H         1 DKN         0.0523
     63 H9         30.7772  -22.1575  -43.2756 H         1 DKN         0.0523
     64 H10        28.6191  -21.2784  -43.1312 H         1 DKN         0.0674
     65 H11        31.2442  -20.8009  -44.9382 H         1 DKN         0.0709
     66 H12        28.4087  -22.3043  -46.6522 H         1 DKN         0.0224
     67 H13        30.1516  -22.4433  -46.2406 H         1 DKN         0.0224
     68 H14        29.5743  -21.0776  -47.2547 H         1 DKN         0.0224
     69 H15        29.4950  -19.2071  -42.9810 H         1 DKN         0.0473
     70 H16        32.4661  -19.8820  -43.0591 H         1 DKN         0.0448
     71 H17        32.5058  -19.0498  -40.8114 H         1 DKN         0.0353
     72 H18        30.8036  -19.5962  -40.6375 H         1 DKN         0.0353
     73 H19        31.1589  -17.9470  -41.2544 H         1 DKN         0.0353
     74 H20        25.6962  -23.3227  -46.0122 H         1 DKN         0.1165
     75 H21        21.4305  -24.2148  -42.8486 H         1 DKN         0.0556
     76 H22        21.8244  -25.7019  -45.4982 H         1 DKN         0.0633
     77 H23        19.4507  -25.6166  -43.4365 H         1 DKN         0.0511
     78 H24        19.9360  -27.0777  -46.0879 H         1 DKN         0.0646
     79 H25        17.5334  -27.0357  -44.0738 H         1 DKN         0.0482
     80 H26        16.4217  -28.5196  -45.4765 H         1 DKN         0.0827
     81 H27        18.2224  -27.9543  -47.7455 H         1 DKN         0.0523
     82 H28        17.0876  -29.3352  -47.5667 H         1 DKN         0.0523
     83 H29        18.8144  -30.4116  -46.1637 H         1 DKN         0.0674
     84 H30        20.7884  -31.4973  -46.5623 H         1 DKN         0.0709
     85 H31        17.3324  -30.9320  -48.7657 H         1 DKN         0.0224
     86 H32        17.7119  -32.0398  -47.4036 H         1 DKN         0.0224
     87 H33        18.2526  -32.4447  -49.0681 H         1 DKN         0.0224
     88 H34        21.5502  -32.5106  -49.3825 H         1 DKN         0.0473
     89 H35        23.0442  -31.8034  -46.8140 H         1 DKN         0.0448
     90 H36        25.0383  -32.2716  -48.0475 H         1 DKN         0.0353
     91 H37        24.1784  -31.7463  -49.5345 H         1 DKN         0.0353
     92 H38        24.0997  -33.4626  -49.0103 H         1 DKN         0.0353
     93 H39        27.3092  -18.1564  -48.0258 H         1 DKN         0.0576
     94 H40        26.2856  -19.4485  -47.3123 H         1 DKN         0.0576
     95 H41        27.9171  -19.8450  -47.9507 H         1 DKN         0.0576
     96 H42        18.1262  -29.5307  -51.9651 H         1 DKN         0.0576
     97 H43        18.2182  -28.5189  -50.4837 H         1 DKN         0.0576
     98 H44        17.5355  -30.1781  -50.3972 H         1 DKN         0.0576
     99 H45        29.8827  -18.3938  -45.6385 H         1 DKN         0.2124
    100 H46        18.9871  -32.9756  -46.7324 H         1 DKN         0.2124
@<TRIPOS>BOND
     1    1    2 2  
     2   43    1 1  
     3    2   38 1  
     4   41    2 1  
     5    4    3 1  
     6    3   41 2  
     7    3   43 1  
     8    5    4 2  
     9    6    5 1  
    10    7    6 2  
    11    8    7 1  
    12    9    8 2  
    13   10    9 1  
    14   11   10 1  
    15   11   12 1  
    16   44   11 1  
    17   12   13 1  
    18   12   14 1  
    19   12   15 1  
    20   13   16 1  
    21   13   45 1  
    22   15   51 2  
    23   15   52 1  
    24   16   17 2  
    25   17   18 1  
    26   20   19 1  
    27   19   44 1  
    28   19   46 2  
    29   20   22 2  
    30   42   20 1  
    31   21   23 1  
    32   21   42 2  
    33   21   47 1  
    34   22   47 1  
    35   23   24 2  
    36   24   25 1  
    37   25   26 2  
    38   26   27 1  
    39   27   28 2  
    40   28   29 1  
    41   29   30 1  
    42   30   31 1  
    43   30   48 1  
    44   31   32 1  
    45   31   33 1  
    46   31   34 1  
    47   32   35 1  
    48   32   49 1  
    49   34   53 2  
    50   34   54 1  
    51   35   36 2  
    52   36   37 1  
    53   38   48 1  
    54   38   50 2  
    55   52   39 1  
    56   54   40 1  
    57    1   55 1  
    58    4   56 1  
    59    5   57 1  
    60    6   58 1  
    61    7   59 1  
    62    8   60 1  
    63    9   61 1  
    64   10   62 1  
    65   10   63 1  
    66   11   64 1  
    67   13   65 1  
    68   14   66 1  
    69   14   67 1  
    70   14   68 1  
    71   16   69 1  
    72   17   70 1  
    73   18   71 1  
    74   18   72 1  
    75   18   73 1  
    76   22   74 1  
    77   23   75 1  
    78   24   76 1  
    79   25   77 1  
    80   26   78 1  
    81   27   79 1  
    82   28   80 1  
    83   29   81 1  
    84   29   82 1  
    85   30   83 1  
    86   32   84 1  
    87   33   85 1  
    88   33   86 1  
    89   33   87 1  
    90   35   88 1  
    91   36   89 1  
    92   37   90 1  
    93   37   91 1  
    94   37   92 1  
    95   39   93 1  
    96   39   94 1  
    97   39   95 1  
    98   40   96 1  
    99   40   97 1  
   100   40   98 1  
   101   45   99 1  
   102   49  100 1  
@<TRIPOS>SUBSTRUCTURE
     1 DKN         1

