### 
### Created by X-TOOL on Wed Jan  1 15:39:37 2020
### 

@<TRIPOS>MOLECULE
6fmi_ligand
   56    58     1     0     0
SMALL
GAST_HUCK


@<TRIPOS>ATOM
      1 CAA         0.8470   52.7060  405.7450 C.3       1 DV2         0.0258
      2 CAT         1.6700   53.4610  404.6980 C.2       1 DV2         0.1751
      3 OAD         1.2760   54.5460  404.2680 O.2       1 DV2        -0.3972
      4 N           2.8100   52.8450  404.3210 N.am      1 DV2        -0.2661
      5 CA          3.7230   53.4280  403.3190 C.3       1 DV2         0.1283
      6 CB          5.1280   52.8560  403.5200 C.3       1 DV2        -0.0244
      7 C           3.2450   53.0760  401.8900 C.2       1 DV2         0.2066
      8 O           2.5820   52.0560  401.7060 O.2       1 DV2        -0.3941
      9 NBD         3.6370   53.8860  400.8750 N.am      1 DV2        -0.2469
     10 CAO         4.4480   55.1520  400.9350 C.3       1 DV2         0.0635
     11 CBA         4.1220   55.9140  399.6730 C.3       1 DV2         0.0803
     12 OAF         2.9560   56.7360  399.8730 O.3       1 DV2        -0.3895
     13 CAN         3.8120   54.8600  398.6520 C.3       1 DV2         0.0159
     14 CBC         3.2600   53.6520  399.4250 C.3       1 DV2         0.1177
     15 CAV         3.8170   52.5030  398.8330 C.2       1 DV2         0.0830
     16 SAG         5.2110   51.8170  399.5280 S.2       1 DV2        -0.2815
     17 NAQ         3.2620   52.0680  397.6760 N.am      1 DV2        -0.2830
     18 CAM         3.7840   50.9350  396.9140 C.3       1 DV2         0.0694
     19 CAX         4.5130   51.4170  395.7920 C.ar      1 DV2        -0.0217
     20 CAI         5.4900   50.5810  395.2350 C.ar      1 DV2        -0.0614
     21 CAK         6.2540   50.9840  394.1370 C.ar      1 DV2        -0.0654
     22 CAH         4.3250   52.6820  395.1990 C.ar      1 DV2        -0.0614
     23 CAJ         5.0930   53.0780  394.0990 C.ar      1 DV2        -0.0654
     24 CAY         6.0620   52.2350  393.5460 C.ar      1 DV2        -0.0244
     25 CAZ         6.7920   52.6360  392.4900 C.2       1 DV2         0.0479
     26 SAS         7.5690   54.1030  392.3770 S.3       1 DV2        -0.0127
     27 CAL         8.2040   53.8600  390.8780 C.2       1 DV2         0.0738
     28 NAP         7.8140   52.6460  390.4720 N.2       1 DV2        -0.3006
     29 CAW         7.0400   51.9750  391.3460 C.2       1 DV2         0.0119
     30 CAB         6.5270   50.5720  390.9960 C.3       1 DV2        -0.0271
     31 H1          1.3562   51.7658  406.0033 H         1 DV2         0.0467
     32 H2         -0.1498   52.4830  405.3368 H         1 DV2         0.0467
     33 H3          0.7433   53.3266  406.6472 H         1 DV2         0.0467
     34 H4          3.0436   51.9648  404.7341 H         1 DV2         0.1882
     35 H5          3.7470   54.5211  403.4395 H         1 DV2         0.0797
     36 H6          5.8104   53.2893  402.7740 H         1 DV2         0.0277
     37 H7          5.0996   51.7630  403.3998 H         1 DV2         0.0277
     38 H8          5.4840   53.1046  404.5307 H         1 DV2         0.0277
     39 H9          5.5219   54.9168  400.9730 H         1 DV2         0.0550
     40 H10         4.1704   55.7424  401.8206 H         1 DV2         0.0550
     41 H11         4.9733   56.5350  399.3574 H         1 DV2         0.0616
     42 H12         3.1222   57.3540  400.5751 H         1 DV2         0.2099
     43 H13         4.7254   54.5777  398.1079 H         1 DV2         0.0344
     44 H14         3.0605   55.2307  397.9394 H         1 DV2         0.0344
     45 H15         2.1644   53.6002  399.3417 H         1 DV2         0.0821
     46 H16         2.4559   52.5454  397.3263 H         1 DV2         0.2028
     47 H17         2.9483   50.3093  396.5675 H         1 DV2         0.0708
     48 H18         4.4489   50.3369  397.5544 H         1 DV2         0.0708
     49 H19         5.6566   49.6002  395.6655 H         1 DV2         0.0550
     50 H20         7.0078   50.3153  393.7373 H         1 DV2         0.0568
     51 H21         3.5765   53.3557  395.6001 H         1 DV2         0.0550
     52 H22         4.9337   54.0590  393.6661 H         1 DV2         0.0568
     53 H23         8.8263   54.5580  390.3199 H         1 DV2         0.1176
     54 H24         6.8879   50.2885  389.9963 H         1 DV2         0.0382
     55 H25         5.4270   50.5716  391.0024 H         1 DV2         0.0382
     56 H26         6.8983   49.8501  391.7382 H         1 DV2         0.0382
@<TRIPOS>BOND
     1    1    2 1  
     2    2    3 2  
     3    2    4 am 
     4    4    5 1  
     5    5    6 1  
     6    5    7 1  
     7    7    8 2  
     8    7    9 am 
     9    9   10 1  
    10    9   14 1  
    11   10   11 1  
    12   11   12 1  
    13   11   13 1  
    14   13   14 1  
    15   14   15 1  
    16   15   16 2  
    17   15   17 am 
    18   17   18 1  
    19   18   19 1  
    20   19   20 ar 
    21   19   22 ar 
    22   20   21 ar 
    23   21   24 ar 
    24   22   23 ar 
    25   23   24 ar 
    26   24   25 1  
    27   25   26 1  
    28   25   29 2  
    29   26   27 1  
    30   27   28 2  
    31   28   29 1  
    32   29   30 1  
    33    1   31 1  
    34    1   32 1  
    35    1   33 1  
    36    4   34 1  
    37    5   35 1  
    38    6   36 1  
    39    6   37 1  
    40    6   38 1  
    41   10   39 1  
    42   10   40 1  
    43   11   41 1  
    44   12   42 1  
    45   13   43 1  
    46   13   44 1  
    47   14   45 1  
    48   17   46 1  
    49   18   47 1  
    50   18   48 1  
    51   20   49 1  
    52   21   50 1  
    53   22   51 1  
    54   23   52 1  
    55   27   53 1  
    56   30   54 1  
    57   30   55 1  
    58   30   56 1  
@<TRIPOS>SUBSTRUCTURE
     1 DV2         1

