### 
### Created by X-TOOL on Wed Jan  1 15:39:38 2020
### 

@<TRIPOS>MOLECULE
6fmj_ligand
   56    58     1     0     0
SMALL
GAST_HUCK


@<TRIPOS>ATOM
      1 CAA        10.6630   54.4820   95.8830 C.3       1 DV5         0.0258
      2 CAT        11.6320   54.5530   94.7000 C.2       1 DV5         0.1756
      3 OAD        11.9780   55.6390   94.2370 O.2       1 DV5        -0.3972
      4 NAR        12.0270   53.3630   94.2260 N.am      1 DV5        -0.2657
      5 CBB        12.9570   53.2560   93.0900 C.3       1 DV5         0.1098
      6 CAC        13.4950   51.8220   93.0310 C.3       1 DV5        -0.0243
      7 CAV        12.2760   53.5580   91.7340 C.2       1 DV5         0.0854
      8 SAG        10.6900   53.1310   91.5710 S.2       1 DV5        -0.2813
      9 N          12.9880   54.0720   90.7060 N.am      1 DV5        -0.2562
     10 CD2        14.4130   54.5020   90.7790 C.3       1 DV5         0.0691
     11 CG         14.6260   55.4320   89.6070 C.3       1 DV5         0.0823
     12 OD1        14.2200   56.7550   89.9530 O.3       1 DV5        -0.3893
     13 CB         13.6970   54.8950   88.5500 C.3       1 DV5         0.0183
     14 CA         12.4870   54.3550   89.3030 C.3       1 DV5         0.1423
     15 C          12.0790   53.1890   88.6340 C.2       1 DV5         0.2063
     16 O          12.5680   52.1050   88.9480 O.2       1 DV5        -0.3941
     17 NAQ        11.1750   53.3200   87.6390 N.am      1 DV5        -0.2739
     18 CAM        10.7250   52.1550   86.8660 C.3       1 DV5         0.0632
     19 CAX        11.5280   51.9860   85.7190 C.ar      1 DV5        -0.0241
     20 CAI        11.5080   50.7470   85.0750 C.ar      1 DV5        -0.0617
     21 CAK        12.2790   50.4990   83.9390 C.ar      1 DV5        -0.0654
     22 CAH        12.3460   52.9800   85.1710 C.ar      1 DV5        -0.0617
     23 CAJ        13.1170   52.7320   84.0330 C.ar      1 DV5        -0.0654
     24 CAY        13.0920   51.4950   83.3890 C.ar      1 DV5        -0.0244
     25 CAZ        13.8390   51.2920   82.2930 C.2       1 DV5         0.0479
     26 SAS        15.4200   51.8230   82.1110 S.3       1 DV5        -0.0127
     27 CAL        15.6160   51.2240   80.5620 C.2       1 DV5         0.0738
     28 NAP        14.4680   50.6390   80.2150 N.2       1 DV5        -0.3006
     29 CAW        13.5040   50.6780   81.1440 C.2       1 DV5         0.0119
     30 CAB        12.1550   50.0280   80.8180 C.3       1 DV5        -0.0271
     31 H1         10.4809   53.4293   96.1451 H         1 DV5         0.0467
     32 H2          9.7119   54.9610   95.6072 H         1 DV5         0.0467
     33 H3         11.0999   55.0046   96.7467 H         1 DV5         0.0467
     34 H4         11.6816   52.5280   94.6543 H         1 DV5         0.1889
     35 H5         13.7872   53.9617   93.2410 H         1 DV5         0.0815
     36 H6         14.1924   51.7266   92.1857 H         1 DV5         0.0282
     37 H7         12.6577   51.1215   92.8964 H         1 DV5         0.0282
     38 H8         14.0211   51.5889   93.9685 H         1 DV5         0.0282
     39 H9         15.0800   53.6307   90.7020 H         1 DV5         0.0579
     40 H10        14.6056   55.0288   91.7252 H         1 DV5         0.0579
     41 H11        15.6734   55.4256   89.2711 H         1 DV5         0.0618
     42 H12        14.3576   57.3316   89.2107 H         1 DV5         0.2099
     43 H13        14.1862   54.0900   87.9820 H         1 DV5         0.0341
     44 H14        13.3939   55.6976   87.8616 H         1 DV5         0.0341
     45 H15        11.6649   55.0854   89.3275 H         1 DV5         0.0833
     46 H16        10.8062   54.2246   87.4252 H         1 DV5         0.1878
     47 H17         9.6800   52.3063   86.5577 H         1 DV5         0.0679
     48 H18        10.7955   51.2544   87.4936 H         1 DV5         0.0679
     49 H19        10.8773   49.9577   85.4678 H         1 DV5         0.0550
     50 H20        12.2474   49.5195   83.4757 H         1 DV5         0.0568
     51 H21        12.3820   53.9581   85.6370 H         1 DV5         0.0550
     52 H22        13.7500   53.5198   83.6409 H         1 DV5         0.0568
     53 H23        16.5138   51.2977   79.9501 H         1 DV5         0.1176
     54 H24        12.1861   49.6090   79.8014 H         1 DV5         0.0382
     55 H25        11.3591   50.7849   80.8784 H         1 DV5         0.0382
     56 H26        11.9516   49.2235   81.5401 H         1 DV5         0.0382
@<TRIPOS>BOND
     1    1    2 1  
     2    2    3 2  
     3    2    4 am 
     4    4    5 1  
     5    5    6 1  
     6    5    7 1  
     7    7    8 2  
     8    7    9 am 
     9    9   10 1  
    10    9   14 1  
    11   10   11 1  
    12   11   12 1  
    13   11   13 1  
    14   13   14 1  
    15   14   15 1  
    16   15   16 2  
    17   15   17 am 
    18   17   18 1  
    19   18   19 1  
    20   19   20 ar 
    21   19   22 ar 
    22   20   21 ar 
    23   21   24 ar 
    24   22   23 ar 
    25   23   24 ar 
    26   24   25 1  
    27   25   26 1  
    28   25   29 2  
    29   26   27 1  
    30   27   28 2  
    31   28   29 1  
    32   29   30 1  
    33    1   31 1  
    34    1   32 1  
    35    1   33 1  
    36    4   34 1  
    37    5   35 1  
    38    6   36 1  
    39    6   37 1  
    40    6   38 1  
    41   10   39 1  
    42   10   40 1  
    43   11   41 1  
    44   12   42 1  
    45   13   43 1  
    46   13   44 1  
    47   14   45 1  
    48   17   46 1  
    49   18   47 1  
    50   18   48 1  
    51   20   49 1  
    52   21   50 1  
    53   22   51 1  
    54   23   52 1  
    55   27   53 1  
    56   30   54 1  
    57   30   55 1  
    58   30   56 1  
@<TRIPOS>SUBSTRUCTURE
     1 DV5         1

