### 
### Created by X-TOOL on Wed Jan  1 15:39:37 2020
### 

@<TRIPOS>MOLECULE
6fmk_ligand
   56    58     1     0     0
SMALL
GAST_HUCK


@<TRIPOS>ATOM
      1 CAA        10.5510   55.6600   96.5270 C.3       1 DV8         0.0258
      2 CAT        11.6070   55.6680   95.4180 C.2       1 DV8         0.1756
      3 OAD        12.0830   56.7330   95.0250 O.2       1 DV8        -0.3972
      4 NAR        11.9340   54.4500   94.9420 N.am      1 DV8        -0.2657
      5 CBB        12.9280   54.2590   93.8670 C.3       1 DV8         0.1099
      6 CAC        13.4940   52.8380   93.9580 C.3       1 DV8        -0.0243
      7 CAV        12.3010   54.4360   92.4550 C.2       1 DV8         0.0859
      8 SAG        10.6870   54.1500   92.3040 S.2       1 DV8        -0.2813
      9 NBD        13.0860   54.7280   91.3850 N.am      1 DV8        -0.2558
     10 CAO        14.5540   55.0250   91.4150 C.3       1 DV8         0.0696
     11 CBA        14.7630   55.9950   90.2810 C.3       1 DV8         0.0828
     12 OAE        14.3240   57.3070   90.6810 O.3       1 DV8        -0.3893
     13 CAN        13.8620   55.4580   89.1970 C.3       1 DV8         0.0184
     14 CBC        12.6230   54.9200   89.9290 C.3       1 DV8         0.1238
     15 CAU        12.1760   53.7530   89.2560 C.2       1 DV8         0.0856
     16 SAF        12.7260   52.2570   89.7900 S.2       1 DV8        -0.2812
     17 NAQ        11.3600   53.9010   88.1760 N.am      1 DV8        -0.2828
     18 CAM        10.8640   52.7670   87.3790 C.3       1 DV8         0.0694
     19 CAX        11.6790   52.5700   86.2300 C.ar      1 DV8        -0.0217
     20 CAI        12.4560   53.5820   85.6430 C.ar      1 DV8        -0.0614
     21 CAK        13.2390   53.3220   84.5140 C.ar      1 DV8        -0.0654
     22 CAH        11.7100   51.3000   85.6330 C.ar      1 DV8        -0.0614
     23 CAJ        12.4940   51.0420   84.5020 C.ar      1 DV8        -0.0654
     24 CAY        13.2640   52.0560   83.9170 C.ar      1 DV8        -0.0244
     25 CAZ        14.0300   51.8400   82.8280 C.2       1 DV8         0.0479
     26 SAS        15.5910   52.3750   82.6720 S.3       1 DV8        -0.0127
     27 CAL        15.8450   51.7660   81.1630 C.2       1 DV8         0.0738
     28 NAP        14.7180   51.1540   80.7780 N.2       1 DV8        -0.3006
     29 CAW        13.7190   51.1950   81.6820 C.2       1 DV8         0.0119
     30 CAB        12.3720   50.5320   81.3550 C.3       1 DV8        -0.0271
     31 H1         10.2499   54.6235   96.7391 H         1 DV8         0.0467
     32 H2          9.6732   56.2375   96.2016 H         1 DV8         0.0467
     33 H3         10.9714   56.1131   97.4369 H         1 DV8         0.0467
     34 H4         11.4864   53.6452   95.3318 H         1 DV8         0.1889
     35 H5         13.7387   54.9912   93.9960 H         1 DV8         0.0815
     36 H6         14.2360   52.6871   93.1601 H         1 DV8         0.0282
     37 H7         12.6776   52.1100   93.8420 H         1 DV8         0.0282
     38 H8         13.9748   52.6968   94.9372 H         1 DV8         0.0282
     39 H9         15.1401   54.1079   91.2558 H         1 DV8         0.0579
     40 H10        14.8395   55.4807   92.3746 H         1 DV8         0.0579
     41 H11        15.8141   56.0242   89.9580 H         1 DV8         0.0619
     42 H12        14.8252   57.5908   91.4365 H         1 DV8         0.2099
     43 H13        14.3637   54.6502   88.6440 H         1 DV8         0.0346
     44 H14        13.5791   56.2596   88.4989 H         1 DV8         0.0346
     45 H15        11.8104   55.6611   89.9078 H         1 DV8         0.0851
     46 H16        11.0842   54.8251   87.9113 H         1 DV8         0.2028
     47 H17         9.8319   52.9734   87.0594 H         1 DV8         0.0708
     48 H18        10.8817   51.8562   87.9956 H         1 DV8         0.0708
     49 H19        12.4486   54.5780   86.0709 H         1 DV8         0.0550
     50 H20        13.8403   54.1189   84.0915 H         1 DV8         0.0568
     51 H21        11.1133   50.5007   86.0573 H         1 DV8         0.0550
     52 H22        12.5054   50.0462   84.0739 H         1 DV8         0.0568
     53 H23        16.7633   51.8465   80.5833 H         1 DV8         0.1176
     54 H24        12.4167   50.0872   80.3499 H         1 DV8         0.0382
     55 H25        11.5739   51.2883   81.3860 H         1 DV8         0.0382
     56 H26        12.1611   49.7458   82.0948 H         1 DV8         0.0382
@<TRIPOS>BOND
     1    1    2 1  
     2    2    3 2  
     3    2    4 am 
     4    4    5 1  
     5    5    6 1  
     6    5    7 1  
     7    7    8 2  
     8    7    9 am 
     9    9   10 1  
    10    9   14 1  
    11   10   11 1  
    12   11   12 1  
    13   11   13 1  
    14   13   14 1  
    15   14   15 1  
    16   15   16 2  
    17   15   17 am 
    18   17   18 1  
    19   18   19 1  
    20   19   20 ar 
    21   19   22 ar 
    22   20   21 ar 
    23   21   24 ar 
    24   22   23 ar 
    25   23   24 ar 
    26   24   25 1  
    27   25   26 1  
    28   25   29 2  
    29   26   27 1  
    30   27   28 2  
    31   28   29 1  
    32   29   30 1  
    33    1   31 1  
    34    1   32 1  
    35    1   33 1  
    36    4   34 1  
    37    5   35 1  
    38    6   36 1  
    39    6   37 1  
    40    6   38 1  
    41   10   39 1  
    42   10   40 1  
    43   11   41 1  
    44   12   42 1  
    45   13   43 1  
    46   13   44 1  
    47   14   45 1  
    48   17   46 1  
    49   18   47 1  
    50   18   48 1  
    51   20   49 1  
    52   21   50 1  
    53   22   51 1  
    54   23   52 1  
    55   27   53 1  
    56   30   54 1  
    57   30   55 1  
    58   30   56 1  
@<TRIPOS>SUBSTRUCTURE
     1 DV8         1

