### 
### Created by X-TOOL on Mon Aug  2 16:13:24 2021
### 

@<TRIPOS>MOLECULE
6fmn_ligand
   42    45     1     0     0
SMALL
GAST_HUCK


@<TRIPOS>ATOM
      1 C1         18.7320   19.7910   12.7470 C.3       1 E4E         0.1854
      2 C2         17.0170   19.3720   14.3150 C.3       1 E4E         0.1140
      3 C3         17.2020   18.1340   15.1720 C.3       1 E4E         0.0772
      4 C4         17.8070   17.9500   17.5460 C.2       1 E4E         0.2968
      5 O          20.0100   19.2370   12.6420 O.3       1 E4E        -0.3649
      6 C5         16.7320   17.2260   19.2790 C.ar      1 E4E         0.1433
      7 C6         15.7800   16.7640   20.1960 C.ar      1 E4E         0.0491
      8 C7         16.0720   16.7990   21.5650 C.ar      1 E4E         0.1328
      9 C8         15.3180   16.5710   23.7690 C.cat     1 E4E         0.1874
     10 C9         17.5700   17.3990   23.4410 C.2       1 E4E         0.2089
     11 O1         18.3290   19.9300   14.0970 O.3       1 E4E        -0.3406
     12 O2         18.6220   17.8150   23.9150 O.2       1 E4E        -0.3882
     13 C10        17.3210   17.2710   21.9980 C.ar      1 E4E         0.1178
     14 N          18.1090   18.3180   16.2940 N.pl3     1 E4E        -0.2369
     15 C11        18.2880   17.6870   21.0810 C.ar      1 E4E         0.0129
     16 C12        17.9740   17.6760   19.7300 C.ar      1 E4E         0.1175
     17 C13        16.4640   19.1300   12.9190 C.3       1 E4E         0.1142
     18 N2         15.0690   16.4270   22.4700 N.pl3     1 E4E        -0.2480
     19 N3         14.3840   16.2560   24.6660 N.pl3     1 E4E        -0.3362
     20 N4         16.5120   17.0440   24.2450 N.am      1 E4E        -0.2586
     21 N1         16.6500   17.4070   17.8950 N.pl3     1 E4E        -0.1846
     22 N5         18.6440   18.1170   18.5970 N.2       1 E4E        -0.1918
     23 C17        17.7330   18.8180   12.1310 C.3       1 E4E         0.1339
     24 O4         17.5650   19.0670   10.7450 O.3       1 E4E        -0.3841
     25 O3         15.8520   20.3230   12.4470 O.3       1 E4E        -0.3864
     26 H1         18.7046   20.7645   12.2356 H         1 E4E         0.0935
     27 H2         16.3664   20.0814   14.8474 H         1 E4E         0.0648
     28 H3         17.5989   17.3295   14.5355 H         1 E4E         0.0596
     29 H4         16.2192   17.8377   15.5674 H         1 E4E         0.0596
     30 H5         20.0153   18.3770   13.0456 H         1 E4E         0.2126
     31 H6         14.8262   16.3829   19.8494 H         1 E4E         0.0743
     32 H7         19.0265   18.7516   16.1176 H         1 E4E         0.2172
     33 H8         19.2655   18.0124   21.4183 H         1 E4E         0.0890
     34 H9         15.7487   18.2947   12.8924 H         1 E4E         0.0648
     35 H10        14.1674   16.0539   22.1400 H         1 E4E         0.2306
     36 H11        14.5772   16.3676   25.6715 H         1 E4E         0.1758
     37 H12        13.4690   15.9009   24.3537 H         1 E4E         0.1758
     38 H13        16.6209   17.1366   25.2347 H         1 E4E         0.1811
     39 H14        15.8596   17.1692   17.2789 H         1 E4E         0.2433
     40 H15        18.0471   17.7743   12.2792 H         1 E4E         0.0671
     41 H16        16.8627   18.5224   10.4094 H         1 E4E         0.2101
     42 H17        15.6246   20.2197   11.5304 H         1 E4E         0.2100
@<TRIPOS>BOND
     1    1    5 1  
     2   11    1 1  
     3    1   23 1  
     4    3    2 1  
     5    2   11 1  
     6    2   17 1  
     7   14    3 1  
     8    4   14 1  
     9   21    4 1  
    10    4   22 2  
    11    7    6 ar 
    12    6   16 ar 
    13    6   21 1  
    14    8    7 ar 
    15   13    8 ar 
    16    8   18 1  
    17   18    9 ar 
    18    9   19 ar 
    19    9   20 ar 
    20   10   12 2  
    21   10   13 1  
    22   10   20 am 
    23   13   15 ar 
    24   15   16 ar 
    25   16   22 1  
    26   17   23 1  
    27   17   25 1  
    28   23   24 1  
    29    1   26 1  
    30    2   27 1  
    31    3   28 1  
    32    3   29 1  
    33    5   30 1  
    34    7   31 1  
    35   14   32 1  
    36   15   33 1  
    37   17   34 1  
    38   18   35 1  
    39   19   36 1  
    40   19   37 1  
    41   20   38 1  
    42   21   39 1  
    43   23   40 1  
    44   24   41 1  
    45   25   42 1  
@<TRIPOS>SUBSTRUCTURE
     1 E4E         1

