### 
### Created by X-TOOL on Mon Aug  2 16:13:25 2021
### 

@<TRIPOS>MOLECULE
6fne_ligand
   27    28     1     0     0
SMALL
GAST_HUCK


@<TRIPOS>ATOM
      1 C10        32.2720   10.2170   -1.2620 C.3       1 DY5         0.0727
      2 C13        33.8810   10.9860    0.4210 C.3       1 DY5         0.4284
      3 C01        29.8690   15.8670   -2.8040 C.3       1 DY5         0.0168
      4 C02        30.3720   14.7420   -1.9890 C.ar      1 DY5         0.0809
      5 C03        30.7520   13.5380   -2.5570 C.ar      1 DY5         0.2341
      6 C04        31.2500   12.4390   -1.7770 C.ar      1 DY5         0.1839
      7 C05        31.3290   12.6510   -0.3960 C.ar      1 DY5         0.2263
      8 C06        30.9380   13.8860    0.2000 C.ar      1 DY5         0.0635
      9 C07        30.4690   14.9120   -0.5910 C.ar      1 DY5         0.0301
     10 C09        32.4840   10.6970   -0.0490 C.3       1 DY5         0.2218
     11 C11        31.6720   11.0900   -2.3030 C.2       1 DY5         0.1706
     12 F14        34.3270   10.0300    1.2570 F         1 DY5        -0.1668
     13 F15        34.7690   11.1560   -0.5900 F         1 DY5        -0.1668
     14 F16        33.8960   12.1570    1.1210 F         1 DY5        -0.1668
     15 N17        30.6310   13.4140   -4.1200 N.2       1 DY5         0.0696
     16 O08        31.7540   11.6700    0.4890 O.3       1 DY5        -0.2242
     17 O12        31.5270   10.7220   -3.4640 O.2       1 DY5        -0.3652
     18 O18        31.5340   13.9210   -4.7560 O.2       1 DY5        -0.1417
     19 O19        29.6730   12.8510   -4.6140 O.2       1 DY5        -0.1417
     20 H1         31.6053    9.3493   -1.1500 H         1 DY5         0.0526
     21 H2         33.2464    9.8833   -1.6481 H         1 DY5         0.0526
     22 H3         29.6289   16.7166   -2.1478 H         1 DY5         0.0646
     23 H4         28.9632   15.5529   -3.3433 H         1 DY5         0.0646
     24 H5         30.6403   16.1692   -3.5276 H         1 DY5         0.0646
     25 H6         31.0096   14.0174    1.2736 H         1 DY5         0.0986
     26 H7         30.1738   15.8519   -0.1388 H         1 DY5         0.0925
     27 H8         32.1939    9.8203    0.5487 H         1 DY5         0.0845
@<TRIPOS>BOND
     1    1   10 1  
     2   11    1 1  
     3   10    2 1  
     4    2   12 1  
     5    2   13 1  
     6    2   14 1  
     7    4    3 1  
     8    5    4 ar 
     9    4    9 ar 
    10    6    5 ar 
    11    5   15 1  
    12    6    7 ar 
    13    6   11 1  
    14    7    8 ar 
    15    7   16 1  
    16    8    9 ar 
    17   10   16 1  
    18   11   17 2  
    19   15   18 2  
    20   15   19 2  
    21    1   20 1  
    22    1   21 1  
    23    3   22 1  
    24    3   23 1  
    25    3   24 1  
    26    8   25 1  
    27    9   26 1  
    28   10   27 1  
@<TRIPOS>SUBSTRUCTURE
     1 DY5         1

