### 
### Created by X-TOOL on Wed Jan  1 15:39:38 2020
### 

@<TRIPOS>MOLECULE
6fnf_ligand
   57    61     1     0     0
SMALL
GAST_HUCK


@<TRIPOS>ATOM
      1 C01       -82.1420  -22.3590   84.3670 C.3       1 DXH        -0.0309
      2 C02       -82.7210  -21.3060   85.2780 C.ar      1 DXH        -0.0157
      3 C03       -82.5680  -19.9490   84.9740 C.ar      1 DXH         0.0745
      4 C04       -83.1060  -19.0080   85.7810 C.ar      1 DXH        -0.0235
      5 C05       -83.7980  -19.3810   86.8780 C.ar      1 DXH         0.0398
      6 C06       -83.9770  -20.7020   87.1810 C.ar      1 DXH        -0.0591
      7 C07       -83.4300  -21.6840   86.3620 C.ar      1 DXH        -0.0632
      8 C08       -84.3850  -18.2420   87.7140 C.2       1 DXH         0.2251
      9 O09       -84.0200  -17.1790   87.6010 O.2       1 DXH        -0.3762
     10 N10       -85.4790  -18.6050   88.6200 N.am      1 DXH        -0.2285
     11 C11       -86.1210  -17.6240   89.3920 C.ar      1 DXH         0.0947
     12 C12       -86.4430  -17.9300   90.6840 C.ar      1 DXH        -0.0111
     13 C13       -87.1150  -17.0090   91.4490 C.ar      1 DXH        -0.0433
     14 C14       -87.4360  -15.8000   90.9410 C.ar      1 DXH        -0.0450
     15 C15       -87.1250  -15.4990   89.6540 C.ar      1 DXH         0.0335
     16 C16       -86.4390  -16.4500   88.8560 C.ar      1 DXH        -0.0124
     17 C17       -87.5010  -14.1340   89.1260 C.3       1 DXH         0.3727
     18 F18       -86.5360  -13.3530   89.5360 F         1 DXH        -0.2209
     19 F19       -88.6230  -13.6350   89.6300 F         1 DXH        -0.2209
     20 F20       -87.6380  -14.1120   87.8300 F         1 DXH        -0.2209
     21 N21       -81.8660  -19.4370   83.8050 N.pl3     1 DXH        -0.2534
     22 C22       -80.4120  -19.2270   83.7780 C.ar      1 DXH         0.1464
     23 N23       -79.7230  -19.5010   84.8200 N.ar      1 DXH        -0.2581
     24 C24       -78.4390  -19.3230   84.8400 C.ar      1 DXH         0.1021
     25 N25       -77.7530  -18.8730   83.8320 N.ar      1 DXH        -0.2626
     26 C26       -78.3680  -18.5510   82.7090 C.ar      1 DXH         0.1612
     27 C27       -79.7140  -18.7100   82.6350 C.ar      1 DXH         0.0825
     28 C28       -80.0600  -18.2800   81.3660 C.2       1 DXH         0.0306
     29 N29       -78.9590  -17.9040   80.7570 N.2       1 DXH        -0.2006
     30 N30       -77.9580  -18.0540   81.5550 N.pl3     1 DXH        -0.1871
     31 C31       -76.6210  -17.7470   81.2140 C.3       1 DXH         0.0589
     32 C32       -77.7000  -19.6990   86.1000 C.ar      1 DXH         0.0404
     33 C33       -78.4080  -20.2140   87.1530 C.ar      1 DXH         0.0258
     34 N34       -77.7960  -20.5470   88.2200 N.ar      1 DXH        -0.2920
     35 C35       -76.5160  -20.4070   88.3390 C.ar      1 DXH         0.0142
     36 C36       -75.7400  -19.8890   87.3230 C.ar      1 DXH        -0.0301
     37 C37       -76.3490  -19.5200   86.1730 C.ar      1 DXH        -0.0281
     38 H1        -82.3649  -23.3571   84.7721 H         1 DXH         0.0380
     39 H2        -81.0522  -22.2260   84.2989 H         1 DXH         0.0380
     40 H3        -82.5865  -22.2621   83.3655 H         1 DXH         0.0380
     41 H4        -82.9821  -17.9566   85.5479 H         1 DXH         0.0568
     42 H5        -84.5454  -20.9842   88.0598 H         1 DXH         0.0559
     43 H6        -83.5707  -22.7343   86.5904 H         1 DXH         0.0539
     44 H7        -85.7702  -19.5592   88.6886 H         1 DXH         0.2253
     45 H8        -86.1701  -18.8923   91.1018 H         1 DXH         0.0759
     46 H9        -87.3899  -17.2544   92.4685 H         1 DXH         0.0664
     47 H10       -87.9424  -15.0691   91.5610 H         1 DXH         0.0741
     48 H11       -86.1789  -16.2236   87.8283 H         1 DXH         0.0712
     49 H12       -82.4122  -19.2125   82.9611 H         1 DXH         0.2178
     50 H13       -81.0651  -18.2575   80.9474 H         1 DXH         0.0737
     51 H14       -76.5862  -17.3490   80.1891 H         1 DXH         0.0586
     52 H15       -76.0086  -18.6588   81.2742 H         1 DXH         0.0586
     53 H16       -76.2278  -16.9943   81.9132 H         1 DXH         0.0586
     54 H17       -79.4824  -20.3376   87.0794 H         1 DXH         0.0865
     55 H18       -76.0384  -20.7057   89.2651 H         1 DXH         0.0847
     56 H19       -74.6682  -19.7803   87.4433 H         1 DXH         0.0718
     57 H20       -75.7885  -19.1004   85.3455 H         1 DXH         0.0774
@<TRIPOS>BOND
     1    1    2 1  
     2    2    3 ar 
     3    2    7 ar 
     4    3    4 ar 
     5    3   21 1  
     6    4    5 ar 
     7    5    6 ar 
     8    5    8 1  
     9    6    7 ar 
    10    8    9 2  
    11    8   10 am 
    12   10   11 1  
    13   11   12 ar 
    14   11   16 ar 
    15   12   13 ar 
    16   13   14 ar 
    17   14   15 ar 
    18   15   16 ar 
    19   15   17 1  
    20   17   18 1  
    21   17   19 1  
    22   17   20 1  
    23   21   22 1  
    24   22   23 ar 
    25   22   27 ar 
    26   23   24 ar 
    27   24   25 ar 
    28   24   32 1  
    29   25   26 ar 
    30   26   27 ar 
    31   26   30 1  
    32   27   28 1  
    33   28   29 2  
    34   29   30 1  
    35   30   31 1  
    36   32   33 ar 
    37   32   37 ar 
    38   33   34 ar 
    39   34   35 ar 
    40   35   36 ar 
    41   36   37 ar 
    42    1   38 1  
    43    1   39 1  
    44    1   40 1  
    45    4   41 1  
    46    6   42 1  
    47    7   43 1  
    48   10   44 1  
    49   12   45 1  
    50   13   46 1  
    51   14   47 1  
    52   16   48 1  
    53   21   49 1  
    54   28   50 1  
    55   31   51 1  
    56   31   52 1  
    57   31   53 1  
    58   33   54 1  
    59   35   55 1  
    60   36   56 1  
    61   37   57 1  
@<TRIPOS>SUBSTRUCTURE
     1 DXH         1

