### 
### Created by X-TOOL on Wed Jan  1 15:39:35 2020
### 

@<TRIPOS>MOLECULE
6fng_ligand
   57    61     1     0     0
SMALL
GAST_HUCK


@<TRIPOS>ATOM
      1 FBI      -109.0820  -11.8780   50.3750 F         1 DWT        -0.2209
      2 CBH      -108.9400  -11.7820   51.6550 C.3       1 DWT         0.3727
      3 FBJ      -107.8940  -11.0240   51.8700 F         1 DWT        -0.2209
      4 FBK      -110.0170  -11.1530   52.1660 F         1 DWT        -0.2209
      5 CBF      -108.7640  -13.0600   52.2460 C.ar      1 DWT         0.0335
      6 CBD      -107.9710  -14.0370   51.6170 C.ar      1 DWT        -0.0124
      7 CBG      -109.3400  -13.3630   53.4810 C.ar      1 DWT        -0.0450
      8 CBE      -109.1370  -14.6160   54.0630 C.ar      1 DWT        -0.0433
      9 CBC      -108.3620  -15.5780   53.4180 C.ar      1 DWT        -0.0111
     10 CBB      -107.7470  -15.3050   52.1950 C.ar      1 DWT         0.0947
     11 NAZ      -107.0270  -16.3170   51.6150 N.am      1 DWT        -0.2285
     12 CAY      -106.0110  -16.1300   50.7220 C.2       1 DWT         0.2250
     13 OBA      -105.6520  -15.0070   50.3340 O.2       1 DWT        -0.3762
     14 CAV      -105.5050  -17.2870   50.0670 C.ar      1 DWT         0.0394
     15 CAT      -104.5550  -17.1180   49.0560 C.ar      1 DWT        -0.0242
     16 CAW      -105.9780  -18.5920   50.2850 C.ar      1 DWT        -0.0594
     17 CAU      -105.4770  -19.6680   49.5370 C.ar      1 DWT        -0.0635
     18 CAS      -104.5170  -19.4870   48.5400 C.ar      1 DWT        -0.0165
     19 CAX      -104.0300  -20.5900   47.8070 C.3       1 DWT        -0.0311
     20 CAR      -104.0430  -18.1880   48.3210 C.ar      1 DWT         0.0722
     21 NAC      -103.1340  -17.9890   47.3400 N.pl3     1 DWT        -0.2545
     22 C6       -101.8000  -17.7940   47.5030 C.ar      1 DWT         0.1619
     23 N1       -101.1390  -17.2810   46.4500 N.ar      1 DWT        -0.2425
     24 C5       -101.1130  -18.1160   48.6320 C.ar      1 DWT         0.1056
     25 CAH      -101.3900  -18.6190   49.8480 C.2       1 DWT         0.1190
     26 NAI      -100.2460  -18.6950   50.5430 N.pl3     1 DWT        -0.2303
     27 CAK      -100.0450  -19.1760   51.9370 C.3       1 DWT         0.0715
     28 NAJ       -99.3030  -18.2690   49.8480 N.2       1 DWT        -0.3110
     29 C4        -99.7800  -17.9040   48.6600 C.ar      1 DWT         0.0640
     30 N3        -99.1290  -17.3960   47.6040 N.ar      1 DWT        -0.2732
     31 C2        -99.8080  -17.0940   46.4930 C.ar      1 DWT         0.1183
     32 CAL       -99.1570  -16.5190   45.3970 C.ar      1 DWT         0.0452
     33 CAN       -97.7780  -16.3420   45.3730 C.ar      1 DWT        -0.0274
     34 CAP       -97.1780  -15.7320   44.2740 C.ar      1 DWT        -0.0298
     35 CAQ       -97.9440  -15.2780   43.2090 C.ar      1 DWT         0.0144
     36 NAO       -99.3230  -15.4330   43.2290 N.ar      1 DWT        -0.2917
     37 CAM       -99.9120  -16.0460   44.3370 C.ar      1 DWT         0.0265
     38 H1       -107.5181  -13.8090   50.6589 H         1 DWT         0.0712
     39 H2       -109.9470  -12.6230   53.9900 H         1 DWT         0.0741
     40 H3       -109.5856  -14.8421   55.0236 H         1 DWT         0.0664
     41 H4       -108.2348  -16.5536   53.8732 H         1 DWT         0.0759
     42 H5       -107.2619  -17.2569   51.8629 H         1 DWT         0.2253
     43 H6       -104.2023  -16.1172   48.8343 H         1 DWT         0.0565
     44 H7       -106.7372  -18.7691   51.0382 H         1 DWT         0.0556
     45 H8       -105.8455  -20.6673   49.7388 H         1 DWT         0.0538
     46 H9       -104.5387  -21.5061   48.1417 H         1 DWT         0.0379
     47 H10      -102.9472  -20.6908   47.9722 H         1 DWT         0.0379
     48 H11      -104.2245  -20.4331   46.7358 H         1 DWT         0.0379
     49 H12      -103.4886  -17.9849   46.3730 H         1 DWT         0.2145
     50 H13      -102.3749  -18.9141   50.2068 H         1 DWT         0.1369
     51 H14       -98.9791  -19.1051   52.1992 H         1 DWT         0.0685
     52 H15      -100.3727  -20.2232   52.0144 H         1 DWT         0.0685
     53 H16      -100.6345  -18.5552   52.6277 H         1 DWT         0.0685
     54 H17       -97.1720  -16.6776   46.2068 H         1 DWT         0.0776
     55 H18       -96.1011  -15.6104   44.2500 H         1 DWT         0.0718
     56 H19       -97.4647  -14.8021   42.3612 H         1 DWT         0.0849
     57 H20      -100.9901  -16.1545   44.3681 H         1 DWT         0.0867
@<TRIPOS>BOND
     1    1    2 1  
     2    2    3 1  
     3    2    4 1  
     4    2    5 1  
     5    5    6 ar 
     6    5    7 ar 
     7    6   10 ar 
     8    7    8 ar 
     9    8    9 ar 
    10    9   10 ar 
    11   10   11 1  
    12   11   12 am 
    13   12   13 2  
    14   12   14 1  
    15   14   15 ar 
    16   14   16 ar 
    17   15   20 ar 
    18   16   17 ar 
    19   17   18 ar 
    20   18   19 1  
    21   18   20 ar 
    22   20   21 1  
    23   21   22 1  
    24   22   23 ar 
    25   22   24 ar 
    26   23   31 ar 
    27   24   25 2  
    28   24   29 ar 
    29   25   26 1  
    30   26   27 1  
    31   26   28 1  
    32   28   29 2  
    33   29   30 ar 
    34   30   31 ar 
    35   31   32 1  
    36   32   33 ar 
    37   32   37 ar 
    38   33   34 ar 
    39   34   35 ar 
    40   35   36 ar 
    41   36   37 ar 
    42    6   38 1  
    43    7   39 1  
    44    8   40 1  
    45    9   41 1  
    46   11   42 1  
    47   15   43 1  
    48   16   44 1  
    49   17   45 1  
    50   19   46 1  
    51   19   47 1  
    52   19   48 1  
    53   21   49 1  
    54   25   50 1  
    55   27   51 1  
    56   27   52 1  
    57   27   53 1  
    58   33   54 1  
    59   34   55 1  
    60   35   56 1  
    61   37   57 1  
@<TRIPOS>SUBSTRUCTURE
     1 DWT         1

