### 
### Created by X-TOOL on Wed Jan  1 15:39:38 2020
### 

@<TRIPOS>MOLECULE
6fni_ligand
   57    61     1     0     0
SMALL
GAST_HUCK


@<TRIPOS>ATOM
      1 C01        20.8770   96.0520    3.2010 C.3       1 DXH        -0.0309
      2 C02        20.0500   95.1880    2.2560 C.ar      1 DXH        -0.0157
      3 C03        18.6520   95.2690    2.2920 C.ar      1 DXH         0.0745
      4 C04        17.8910   94.4970    1.4420 C.ar      1 DXH        -0.0235
      5 C05        18.5100   93.6250    0.5700 C.ar      1 DXH         0.0398
      6 C06        19.8990   93.5480    0.5110 C.ar      1 DXH        -0.0591
      7 C07        20.6660   94.3360    1.3730 C.ar      1 DXH        -0.0632
      8 C08        17.6120   92.7970   -0.3870 C.2       1 DXH         0.2251
      9 O09        16.4610   92.6910   -0.1690 O.2       1 DXH        -0.3762
     10 N10        18.2700   92.2250   -1.5900 N.am      1 DXH        -0.2285
     11 C11        17.5740   91.4870   -2.6250 C.ar      1 DXH         0.0947
     12 C12        18.2430   90.5120   -3.3520 C.ar      1 DXH        -0.0111
     13 C13        17.5720   89.8420   -4.3670 C.ar      1 DXH        -0.0433
     14 C14        16.2630   90.1530   -4.6590 C.ar      1 DXH        -0.0450
     15 C15        15.6210   91.1320   -3.9560 C.ar      1 DXH         0.0335
     16 C16        16.3030   91.8190   -2.9230 C.ar      1 DXH        -0.0124
     17 C17        14.1740   91.4870   -4.2580 C.3       1 DXH         0.3727
     18 F18        13.8340   90.9360   -5.4490 F         1 DXH        -0.2209
     19 F19        14.0400   92.8460   -4.3190 F         1 DXH        -0.2209
     20 F20        13.4030   91.0180   -3.2600 F         1 DXH        -0.2209
     21 N21        17.9620   96.1890    3.2230 N.pl3     1 DXH        -0.2534
     22 C22        17.6840   95.8010    4.6250 C.ar      1 DXH         0.1464
     23 N23        18.1650   94.6830    5.1210 N.ar      1 DXH        -0.2581
     24 C24        17.9280   94.3120    6.3760 C.ar      1 DXH         0.1021
     25 N25        17.1990   95.0610    7.2060 N.ar      1 DXH        -0.2626
     26 C26        16.6600   96.2400    6.7840 C.ar      1 DXH         0.1612
     27 C27        16.8850   96.6350    5.4930 C.ar      1 DXH         0.0825
     28 C28        16.2140   97.8740    5.3420 C.2       1 DXH         0.0306
     29 N29        15.6290   98.1710    6.5000 N.2       1 DXH        -0.2006
     30 N30        15.8900   97.2000    7.3640 N.pl3     1 DXH        -0.1871
     31 C31        15.4080   97.1900    8.7260 C.3       1 DXH         0.0589
     32 C32        18.5540   92.9720    6.8520 C.ar      1 DXH         0.0404
     33 C33        19.1010   92.0890    5.8990 C.ar      1 DXH         0.0258
     34 N34        19.6470   90.9520    6.2640 N.ar      1 DXH        -0.2920
     35 C35        19.6990   90.6060    7.5370 C.ar      1 DXH         0.0142
     36 C36        19.1740   91.4390    8.5550 C.ar      1 DXH        -0.0301
     37 C37        18.5940   92.6450    8.2050 C.ar      1 DXH        -0.0281
     38 H1         21.9467   95.8580    3.0336 H         1 DXH         0.0380
     39 H2         20.6186   95.8077    4.2419 H         1 DXH         0.0380
     40 H3         20.6626   97.1137    3.0094 H         1 DXH         0.0380
     41 H4         16.8099   94.5743    1.4581 H         1 DXH         0.0568
     42 H5         20.3807   92.8831   -0.1968 H         1 DXH         0.0559
     43 H6         21.7479   94.2746    1.3446 H         1 DXH         0.0539
     44 H7         19.2559   92.3577   -1.6920 H         1 DXH         0.2253
     45 H8         19.2775   90.2761   -3.1301 H         1 DXH         0.0759
     46 H9         18.0817   89.0701   -4.9322 H         1 DXH         0.0664
     47 H10        15.7421   89.6209   -5.4468 H         1 DXH         0.0741
     48 H11        15.8042   92.6094   -2.3738 H         1 DXH         0.0712
     49 H12        17.6690   97.1183    2.8892 H         1 DXH         0.2178
     50 H13        16.1825   98.4779    4.4363 H         1 DXH         0.0737
     51 H14        14.8115   98.0956    8.9105 H         1 DXH         0.0586
     52 H15        16.2632   97.1671    9.4175 H         1 DXH         0.0586
     53 H16        14.7823   96.2998    8.8870 H         1 DXH         0.0586
     54 H17        19.0704   92.3529    4.8480 H         1 DXH         0.0865
     55 H18        20.1548   89.6610    7.8098 H         1 DXH         0.0847
     56 H19        19.2260   91.1356    9.5944 H         1 DXH         0.0718
     57 H20        18.1856   93.3111    8.9564 H         1 DXH         0.0774
@<TRIPOS>BOND
     1    1    2 1  
     2    2    3 ar 
     3    2    7 ar 
     4    3    4 ar 
     5    3   21 1  
     6    4    5 ar 
     7    5    6 ar 
     8    5    8 1  
     9    6    7 ar 
    10    8    9 2  
    11    8   10 am 
    12   10   11 1  
    13   11   12 ar 
    14   11   16 ar 
    15   12   13 ar 
    16   13   14 ar 
    17   14   15 ar 
    18   15   16 ar 
    19   15   17 1  
    20   17   18 1  
    21   17   19 1  
    22   17   20 1  
    23   21   22 1  
    24   22   23 ar 
    25   22   27 ar 
    26   23   24 ar 
    27   24   25 ar 
    28   24   32 1  
    29   25   26 ar 
    30   26   27 ar 
    31   26   30 1  
    32   27   28 1  
    33   28   29 2  
    34   29   30 1  
    35   30   31 1  
    36   32   33 ar 
    37   32   37 ar 
    38   33   34 ar 
    39   34   35 ar 
    40   35   36 ar 
    41   36   37 ar 
    42    1   38 1  
    43    1   39 1  
    44    1   40 1  
    45    4   41 1  
    46    6   42 1  
    47    7   43 1  
    48   10   44 1  
    49   12   45 1  
    50   13   46 1  
    51   14   47 1  
    52   16   48 1  
    53   21   49 1  
    54   28   50 1  
    55   31   51 1  
    56   31   52 1  
    57   31   53 1  
    58   33   54 1  
    59   35   55 1  
    60   36   56 1  
    61   37   57 1  
@<TRIPOS>SUBSTRUCTURE
     1 DXH         1

