### 
### Created by X-TOOL on Wed Jan  1 15:39:37 2020
### 

@<TRIPOS>MOLECULE
6fnj_ligand
   57    61     1     0     0
SMALL
GAST_HUCK


@<TRIPOS>ATOM
      1 FBI         1.1180   12.2350   98.4740 F         1 DWT        -0.2209
      2 CBH         0.7580   12.2010   99.7020 C.3       1 DWT         0.3727
      3 FBJ        -0.0930   11.4890   99.8720 F         1 DWT        -0.2209
      4 FBK         0.5360   13.2400  100.1140 F         1 DWT        -0.2209
      5 CBF         1.8500   11.6660  100.4850 C.ar      1 DWT         0.0335
      6 CBD         1.8660   11.7790  101.8940 C.ar      1 DWT        -0.0124
      7 CBG         2.9200   10.9930   99.8970 C.ar      1 DWT        -0.0450
      8 CBE         3.9690   10.4660  100.6590 C.ar      1 DWT        -0.0433
      9 CBC         3.9650   10.6000  102.0540 C.ar      1 DWT        -0.0111
     10 CBB         2.9040   11.2390  102.6850 C.ar      1 DWT         0.0947
     11 NAZ         2.9890   11.3550  104.0510 N.am      1 DWT        -0.2285
     12 CAY         1.9090   11.3790  104.8820 C.2       1 DWT         0.2250
     13 OBA         0.7420   11.2980  104.5020 O.2       1 DWT        -0.3762
     14 CAV         2.1500   11.6330  106.2530 C.ar      1 DWT         0.0394
     15 CAT         1.0520   11.8530  107.0850 C.ar      1 DWT        -0.0242
     16 CAW         3.4280   11.7300  106.8190 C.ar      1 DWT        -0.0594
     17 CAU         3.5870   12.0260  108.1890 C.ar      1 DWT        -0.0635
     18 CAS         2.4750   12.2410  109.0160 C.ar      1 DWT        -0.0165
     19 CAX         2.6280   12.5390  110.4120 C.3       1 DWT        -0.0311
     20 CAR         1.2030   12.1450  108.4380 C.ar      1 DWT         0.0722
     21 NAC         0.1460   12.3660  109.2430 N.pl3     1 DWT        -0.2545
     22 C6         -0.6430   11.4020  109.7740 C.ar      1 DWT         0.1619
     23 N1         -1.8000   11.7980  110.3000 N.ar      1 DWT        -0.2425
     24 C5         -0.3210   10.0960  109.7760 C.ar      1 DWT         0.1056
     25 CAH         0.7000    9.3600  109.3430 C.2       1 DWT         0.1190
     26 NAI         0.4470    8.0910  109.6500 N.pl3     1 DWT        -0.2303
     27 CAK         1.3170    6.9300  109.3590 C.3       1 DWT         0.0715
     28 NAJ        -0.6420    8.0060  110.2390 N.2       1 DWT        -0.3110
     29 C4         -1.1650    9.2250  110.3400 C.ar      1 DWT         0.0640
     30 N3         -2.3250    9.6290  110.8770 N.ar      1 DWT        -0.2732
     31 C2         -2.6410   10.9240  110.8570 C.ar      1 DWT         0.1183
     32 CAL        -3.8400   11.3720  111.3970 C.ar      1 DWT         0.0452
     33 CAN        -4.7040   10.4780  112.0280 C.ar      1 DWT        -0.0274
     34 CAP        -5.9100   10.9590  112.5420 C.ar      1 DWT        -0.0298
     35 CAQ        -6.2530   12.3050  112.4040 C.ar      1 DWT         0.0144
     36 NAO        -5.3890   13.2020  111.7680 N.ar      1 DWT        -0.2917
     37 CAM        -4.1890   12.7110  111.2530 C.ar      1 DWT         0.0265
     38 H1          1.0517   12.2992  102.3854 H         1 DWT         0.0712
     39 H2          2.9401   10.8746   98.8197 H         1 DWT         0.0741
     40 H3          4.7877    9.9522  100.1683 H         1 DWT         0.0664
     41 H4          4.7877   10.2061  102.6398 H         1 DWT         0.0759
     42 H5          3.8985   11.4262  104.4606 H         1 DWT         0.2253
     43 H6          0.0537   11.7950  106.6666 H         1 DWT         0.0565
     44 H7          4.3031   11.5761  106.1981 H         1 DWT         0.0556
     45 H8          4.5843   12.0883  108.6091 H         1 DWT         0.0538
     46 H9          3.6980   12.5695  110.6653 H         1 DWT         0.0379
     47 H10         2.1318   11.7602  111.0097 H         1 DWT         0.0379
     48 H11         2.1716   13.5156  110.6307 H         1 DWT         0.0379
     49 H12        -0.0798   13.3444  109.4726 H         1 DWT         0.2145
     50 H13         1.5853    9.7311  108.8287 H         1 DWT         0.1369
     51 H14         0.8406    6.0119  109.7334 H         1 DWT         0.0685
     52 H15         2.2893    7.0670  109.8548 H         1 DWT         0.0685
     53 H16         1.4678    6.8480  108.2725 H         1 DWT         0.0685
     54 H17        -4.4445    9.4294  112.1179 H         1 DWT         0.0776
     55 H18        -6.5852   10.2817  113.0523 H         1 DWT         0.0718
     56 H19        -7.2002   12.6591  112.7944 H         1 DWT         0.0849
     57 H20        -3.5175   13.3839  110.7321 H         1 DWT         0.0867
@<TRIPOS>BOND
     1    1    2 1  
     2    2    3 1  
     3    2    4 1  
     4    2    5 1  
     5    5    6 ar 
     6    5    7 ar 
     7    6   10 ar 
     8    7    8 ar 
     9    8    9 ar 
    10    9   10 ar 
    11   10   11 1  
    12   11   12 am 
    13   12   13 2  
    14   12   14 1  
    15   14   15 ar 
    16   14   16 ar 
    17   15   20 ar 
    18   16   17 ar 
    19   17   18 ar 
    20   18   19 1  
    21   18   20 ar 
    22   20   21 1  
    23   21   22 1  
    24   22   23 ar 
    25   22   24 ar 
    26   23   31 ar 
    27   24   25 2  
    28   24   29 ar 
    29   25   26 1  
    30   26   27 1  
    31   26   28 1  
    32   28   29 2  
    33   29   30 ar 
    34   30   31 ar 
    35   31   32 1  
    36   32   33 ar 
    37   32   37 ar 
    38   33   34 ar 
    39   34   35 ar 
    40   35   36 ar 
    41   36   37 ar 
    42    6   38 1  
    43    7   39 1  
    44    8   40 1  
    45    9   41 1  
    46   11   42 1  
    47   15   43 1  
    48   16   44 1  
    49   17   45 1  
    50   19   46 1  
    51   19   47 1  
    52   19   48 1  
    53   21   49 1  
    54   25   50 1  
    55   27   51 1  
    56   27   52 1  
    57   27   53 1  
    58   33   54 1  
    59   34   55 1  
    60   35   56 1  
    61   37   57 1  
@<TRIPOS>SUBSTRUCTURE
     1 DWT         1

