### 
### Created by X-TOOL on Wed Jan  1 15:39:35 2020
### 

@<TRIPOS>MOLECULE
6fnq_ligand
   29    29     1     0     0
SMALL
GAST_HUCK


@<TRIPOS>ATOM
      1 CAA         7.8840   17.6830   17.3230 C.3       1 AVJ        -0.0400
      2 CAB        10.1710   17.5710   16.8070 C.3       1 AVJ        -0.0400
      3 CAC         8.6890   18.5790   15.2980 C.3       1 AVJ        -0.0400
      4 OAH         7.6750   15.9520   13.3890 O.co2     1 AVJ        -0.5641
      5 OAL         6.2580   16.3960   14.9910 O.co2     1 AVJ        -0.5641
      6 CAM         9.0630   13.1130   14.8120 C.2       1 AVJ        -0.0275
      7 CAP         8.5000   15.0240   16.5360 C.3       1 AVJ         0.0575
      8 NAR         7.4020   12.6950   16.2480 N.pl3     1 AVJ        -0.2622
      9 NAT         8.5890   11.8290   14.5460 N.2       1 AVJ        -0.3437
     10 CAX         7.4520   16.1530   14.6040 C.2       1 AVJ         0.0868
     11 CAY         8.3320   13.6410   15.8630 C.2       1 AVJ         0.0587
     12 CAZ         7.5680   11.5880   15.4250 C.2       1 AVJ         0.0875
     13 CBC         8.6310   16.1900   15.5510 C.3       1 AVJ         0.0441
     14 NBE         8.8150   17.4880   16.2270 N.4       1 AVJ         0.2520
     15 H1          8.0659   18.6628   17.7887 H         1 AVJ         0.0778
     16 H2          8.0269   16.8893   18.0711 H         1 AVJ         0.0778
     17 H3          6.8535   17.6447   16.9400 H         1 AVJ         0.0778
     18 H4         10.9188   17.4289   16.0129 H         1 AVJ         0.0778
     19 H5         10.2924   16.7873   17.5693 H         1 AVJ         0.0778
     20 H6         10.3117   18.5585   17.2706 H         1 AVJ         0.0778
     21 H7          7.6893   18.5566   14.8395 H         1 AVJ         0.0778
     22 H8          9.4543   18.4830   14.5137 H         1 AVJ         0.0778
     23 H9          8.8269   19.5317   15.8303 H         1 AVJ         0.0778
     24 H10         9.8713   13.6156   14.2828 H         1 AVJ         0.0324
     25 H11         9.4054   14.9963   17.1600 H         1 AVJ         0.0518
     26 H12         7.6216   15.2070   17.1723 H         1 AVJ         0.0518
     27 H13         6.7118   12.7924   17.0064 H         1 AVJ         0.2386
     28 H14         6.9789   10.6733   15.4719 H         1 AVJ         0.1149
     29 H15         9.5375   16.0184   14.9521 H         1 AVJ         0.1051
@<TRIPOS>BOND
     1   14    1 1  
     2   14    2 1  
     3   14    3 1  
     4   10    4 ar 
     5   10    5 ar 
     6    6    9 1  
     7   11    6 2  
     8    7   11 1  
     9   13    7 1  
    10   11    8 1  
    11    8   12 1  
    12   12    9 2  
    13   13   10 1  
    14   13   14 1  
    15    1   15 1  
    16    1   16 1  
    17    1   17 1  
    18    2   18 1  
    19    2   19 1  
    20    2   20 1  
    21    3   21 1  
    22    3   22 1  
    23    3   23 1  
    24    6   24 1  
    25    7   25 1  
    26    7   26 1  
    27    8   27 1  
    28   12   28 1  
    29   13   29 1  
@<TRIPOS>SUBSTRUCTURE
     1 AVJ         1

