### 
### Created by X-TOOL on Wed Jan  1 15:39:35 2020
### 

@<TRIPOS>MOLECULE
6fnr_ligand
   17    17     1     0     0
SMALL
GAST_HUCK


@<TRIPOS>ATOM
      1 OAA         7.5300   15.7470   13.3260 O.co2     1 DYT        -0.5673
      2 CAI         7.3130   15.9960   14.5350 C.2       1 DYT         0.0546
      3 OAB         6.1470   16.2420   14.9330 O.co2     1 DYT        -0.5673
      4 CAK         8.4620   16.0400   15.5190 C.3       1 DYT         0.0973
      5 CL1         8.3800   17.5560   16.3820 Cl        1 DYT        -0.1026
      6 CAF         8.3700   14.9220   16.5340 C.3       1 DYT         0.0303
      7 CAJ         8.2350   13.5630   15.8900 C.2       1 DYT         0.0547
      8 CAE         9.0160   13.0470   14.8700 C.2       1 DYT        -0.0276
      9 NAG         8.5620   11.7720   14.6020 N.2       1 DYT        -0.3437
     10 CAD         7.5170   11.5000   15.4470 C.2       1 DYT         0.0875
     11 NAH         7.3190   12.6090   16.2480 N.pl3     1 DYT        -0.2624
     12 H1          9.4144   15.9638   14.9740 H         1 DYT         0.0656
     13 H2          7.4922   15.0977   17.1732 H         1 DYT         0.0475
     14 H3          9.2805   14.9305   17.1511 H         1 DYT         0.0475
     15 H4          9.8392   13.5552   14.3700 H         1 DYT         0.0324
     16 H5          6.9445   10.5743   15.4810 H         1 DYT         0.1149
     17 H6          6.6065   12.7021   16.9860 H         1 DYT         0.2386
@<TRIPOS>BOND
     1    1    2 ar 
     2    2    3 ar 
     3    2    4 1  
     4    4    5 1  
     5    4    6 1  
     6    6    7 1  
     7    7    8 2  
     8    7   11 1  
     9    8    9 1  
    10    9   10 2  
    11   10   11 1  
    12    4   12 1  
    13    6   13 1  
    14    6   14 1  
    15    8   15 1  
    16   10   16 1  
    17   11   17 1  
@<TRIPOS>SUBSTRUCTURE
     1 DYT         1

