### 
### Created by X-TOOL on Wed Jan  1 15:39:35 2020
### 

@<TRIPOS>MOLECULE
6fns_ligand
   31    32     1     0     0
SMALL
GAST_HUCK


@<TRIPOS>ATOM
      1 N           9.1200   16.3470   15.7270 N.4       1 DY8         0.2537
      2 C           8.1440   14.9910   13.9850 C.2       1 DY8         0.0868
      3 O           8.4820   14.7350   12.8390 O.co2     1 DY8        -0.5641
      4 CAG         9.6140   17.3190   14.7880 C.3       1 DY8        -0.0061
      5 CAE        10.8500   18.1620   15.0830 C.3       1 DY8         0.0878
      6 OAL        11.5110   17.7970   16.2630 O.3       1 DY8        -0.3693
      7 CAF        10.5850   17.6220   17.2930 C.3       1 DY8         0.0878
      8 CAH         9.7600   16.3910   17.0160 C.3       1 DY8        -0.0061
      9 CA          9.1830   15.0470   15.1000 C.3       1 DY8         0.0432
     10 OXT         6.9720   15.2230   14.2360 O.co2     1 DY8        -0.5641
     11 CB          8.9190   13.9020   16.0700 C.3       1 DY8         0.0575
     12 CG          8.9400   12.5420   15.4010 C.2       1 DY8         0.0587
     13 CD2         9.7800   12.1030   14.3950 C.2       1 DY8        -0.0275
     14 NE2         9.4490   10.7930   14.1050 N.2       1 DY8        -0.3437
     15 CE1         8.4250   10.4180   14.9230 C.2       1 DY8         0.0875
     16 ND1         8.1110   11.5010   15.7310 N.pl3     1 DY8        -0.2622
     17 H1          8.1474   16.5564   15.8891 H         1 DY8         0.2054
     18 H2          8.7907   18.0275   14.6141 H         1 DY8         0.0838
     19 H3          9.8282   16.7705   13.8589 H         1 DY8         0.0838
     20 H4         10.5406   19.2140   15.1693 H         1 DY8         0.0613
     21 H5         11.5526   18.0541   14.2436 H         1 DY8         0.0613
     22 H6          9.9263   18.5012   17.3485 H         1 DY8         0.0613
     23 H7         11.1164   17.5010   18.2485 H         1 DY8         0.0613
     24 H8         10.4215   15.5157   17.0953 H         1 DY8         0.0838
     25 H9          8.9761   16.3291   17.7852 H         1 DY8         0.0838
     26 H10        10.1870   14.9155   14.6702 H         1 DY8         0.1050
     27 H11         7.9304   14.0518   16.5284 H         1 DY8         0.0518
     28 H12         9.6923   13.9198   16.8521 H         1 DY8         0.0518
     29 H13        10.5644   12.6866   13.9154 H         1 DY8         0.0324
     30 H14         7.9403    9.4429   14.9392 H         1 DY8         0.1149
     31 H15         7.3794   11.5199   16.4557 H         1 DY8         0.2386
@<TRIPOS>BOND
     1    1    4 1  
     2    1    8 1  
     3    9    1 1  
     4    2    3 ar 
     5    2    9 1  
     6    2   10 ar 
     7    4    5 1  
     8    5    6 1  
     9    6    7 1  
    10    7    8 1  
    11    9   11 1  
    12   11   12 1  
    13   12   13 2  
    14   12   16 1  
    15   13   14 1  
    16   14   15 2  
    17   15   16 1  
    18    1   17 1  
    19    4   18 1  
    20    4   19 1  
    21    5   20 1  
    22    5   21 1  
    23    7   22 1  
    24    7   23 1  
    25    8   24 1  
    26    8   25 1  
    27    9   26 1  
    28   11   27 1  
    29   11   28 1  
    30   13   29 1  
    31   15   30 1  
    32   16   31 1  
@<TRIPOS>SUBSTRUCTURE
     1 DY8         1

