### 
### Created by X-TOOL on Wed Jan  1 15:39:35 2020
### 

@<TRIPOS>MOLECULE
6fnt_ligand
   30    31     1     0     0
SMALL
GAST_HUCK


@<TRIPOS>ATOM
      1 CAG        10.2250   16.7620   16.8920 C.3       1 AVO        -0.0300
      2 CAE        10.7190   18.2300   16.9970 C.3       1 AVO        -0.0077
      3 CAF        10.7200   18.6680   15.5420 C.3       1 AVO        -0.0077
      4 CAH         9.6180   17.7780   14.8900 C.3       1 AVO        -0.0300
      5 N           9.2940   16.7530   15.8060 N.4       1 AVO         0.2505
      6 CA          9.3030   15.4810   15.1520 C.3       1 AVO         0.0431
      7 C           8.2540   15.4590   14.0350 C.2       1 AVO         0.0868
      8 OXT         7.0400   15.6580   14.3050 O.co2     1 AVO        -0.5641
      9 O           8.6160   15.2400   12.8470 O.co2     1 AVO        -0.5641
     10 CB          8.9810   14.3550   16.1200 C.3       1 AVO         0.0575
     11 CG          9.0110   13.0210   15.4520 C.2       1 AVO         0.0587
     12 CD2         9.8640   12.6000   14.4660 C.2       1 AVO        -0.0275
     13 NE2         9.5540   11.3040   14.1590 N.2       1 AVO        -0.3437
     14 CE1         8.5180   10.9150   14.9490 C.2       1 AVO         0.0875
     15 ND1         8.1860   11.9820   15.7530 N.pl3     1 AVO        -0.2622
     16 H1          9.7310   16.4542   17.8253 H         1 AVO         0.0815
     17 H2         11.0673   16.0862   16.6828 H         1 AVO         0.0815
     18 H3         11.7286   18.2819   17.4306 H         1 AVO         0.0319
     19 H4         10.0299   18.8416   17.5979 H         1 AVO         0.0319
     20 H5         11.6997   18.4835   15.0770 H         1 AVO         0.0319
     21 H6         10.4668   19.7347   15.4528 H         1 AVO         0.0319
     22 H7          9.9962   17.3387   13.9551 H         1 AVO         0.0815
     23 H8          8.7255   18.3842   14.6756 H         1 AVO         0.0815
     24 H9          8.3693   16.9225   16.1696 H         1 AVO         0.2052
     25 H10        10.3008   15.3119   14.7210 H         1 AVO         0.1050
     26 H11         7.9769   14.5211   16.5374 H         1 AVO         0.0518
     27 H12         9.7219   14.3622   16.9330 H         1 AVO         0.0518
     28 H13        10.6523   13.1944   14.0064 H         1 AVO         0.0324
     29 H14         8.0382    9.9374   14.9462 H         1 AVO         0.1149
     30 H15         7.4393   11.9920   16.4624 H         1 AVO         0.2386
@<TRIPOS>BOND
     1    1    2 1  
     2    1    5 1  
     3    2    3 1  
     4    3    4 1  
     5    4    5 1  
     6    5    6 1  
     7    6    7 1  
     8    6   10 1  
     9    7    8 ar 
    10    7    9 ar 
    11   10   11 1  
    12   11   12 2  
    13   11   15 1  
    14   12   13 1  
    15   13   14 2  
    16   14   15 1  
    17    1   16 1  
    18    1   17 1  
    19    2   18 1  
    20    2   19 1  
    21    3   20 1  
    22    3   21 1  
    23    4   22 1  
    24    4   23 1  
    25    5   24 1  
    26    6   25 1  
    27   10   26 1  
    28   10   27 1  
    29   12   28 1  
    30   14   29 1  
    31   15   30 1  
@<TRIPOS>SUBSTRUCTURE
     1 AVO         1

