### 
### Created by X-TOOL on Wed Jan  1 15:39:38 2020
### 

@<TRIPOS>MOLECULE
6fnx_ligand
   34    36     1     0     0
SMALL
GAST_HUCK


@<TRIPOS>ATOM
      1 C4        -12.3620   -6.1900    0.5990 C.2       1 DYZ         0.1402
      2 C5        -13.2770   -5.4220    0.0670 C.2       1 DYZ         0.1626
      3 C6        -14.5420   -5.2370    0.5260 C.2       1 DYZ         0.2275
      4 C8        -11.4060   -5.4480   -1.0720 C.2       1 DYZ         0.0978
      5 N1        -14.8050   -5.9610    1.7490 N.am      1 DYZ        -0.1848
      6 N3        -12.6520   -6.9480    1.8150 N.am      1 DYZ        -0.1881
      7 CAN       -13.0270   -2.5450   -1.3360 C.3       1 DYZ        -0.0377
      8 CAM       -13.1030   -3.9030   -1.9690 C.3       1 DYZ         0.0508
      9 N7        -12.6100   -4.9290   -1.0720 N.pl3     1 DYZ        -0.2515
     10 N9        -11.1920   -6.2280   -0.0170 N.2       1 DYZ        -0.2857
     11 O6        -15.4870   -4.5280    0.1690 O.2       1 DYZ        -0.4009
     12 C2        -13.8580   -6.7950    2.3540 C.2       1 DYZ         0.3176
     13 O2        -14.1550   -7.3790    3.3910 O.2       1 DYZ        -0.3873
     14 CAK       -11.5280   -7.6970    2.4820 C.3       1 DYZ         0.0893
     15 CAL       -10.7030   -6.7730    3.2730 C.ar      1 DYZ        -0.0155
     16 CAP       -11.1210   -6.2660    4.5240 C.ar      1 DYZ        -0.0579
     17 CAQ       -10.3340   -5.4040    5.2900 C.ar      1 DYZ        -0.0685
     18 CAR        -9.1540   -4.9370    4.8970 C.ar      1 DYZ        -0.0687
     19 CAS        -8.6910   -5.4680    3.7230 C.ar      1 DYZ        -0.0685
     20 CAT        -9.3940   -6.3560    2.8570 C.ar      1 DYZ        -0.0579
     21 H1        -10.6653   -5.2613   -1.8482 H         1 DYZ         0.1263
     22 H2        -15.7014   -5.8618    2.1810 H         1 DYZ         0.2256
     23 H3        -13.4074   -1.7904   -2.0402 H         1 DYZ         0.0256
     24 H4        -11.9812   -2.3163   -1.0832 H         1 DYZ         0.0256
     25 H5        -13.6367   -2.5325   -0.4206 H         1 DYZ         0.0256
     26 H6        -12.4950   -3.9059   -2.8857 H         1 DYZ         0.0609
     27 H7        -14.1506   -4.1221   -2.2231 H         1 DYZ         0.0609
     28 H8        -10.9031   -8.1751    1.7133 H         1 DYZ         0.0748
     29 H9        -11.9478   -8.4679    3.1449 H         1 DYZ         0.0748
     30 H10       -12.0929   -6.5585    4.9047 H         1 DYZ         0.0557
     31 H11       -10.7071   -5.0983    6.2608 H         1 DYZ         0.0599
     32 H12        -8.6015   -4.1943    5.4611 H         1 DYZ         0.0559
     33 H13        -7.6890   -5.1847    3.4216 H         1 DYZ         0.0599
     34 H14        -8.9593   -6.7009    1.9258 H         1 DYZ         0.0557
@<TRIPOS>BOND
     1    2    1 2  
     2    1    6 1  
     3   10    1 1  
     4    2    3 1  
     5    9    2 1  
     6    3    5 am 
     7    3   11 2  
     8    9    4 1  
     9    4   10 2  
    10    5   12 am 
    11    6   12 am 
    12    6   14 1  
    13    8    7 1  
    14    8    9 1  
    15   12   13 2  
    16   14   15 1  
    17   15   16 ar 
    18   15   20 ar 
    19   16   17 ar 
    20   17   18 ar 
    21   18   19 ar 
    22   19   20 ar 
    23    4   21 1  
    24    5   22 1  
    25    7   23 1  
    26    7   24 1  
    27    7   25 1  
    28    8   26 1  
    29    8   27 1  
    30   14   28 1  
    31   14   29 1  
    32   16   30 1  
    33   17   31 1  
    34   18   32 1  
    35   19   33 1  
    36   20   34 1  
@<TRIPOS>SUBSTRUCTURE
     1 DYZ         1

