### 
### Created by X-TOOL on Wed Jan  1 15:39:34 2020
### 

@<TRIPOS>MOLECULE
6fo5_ligand
   63    67     1     0     0
SMALL
GAST_HUCK


@<TRIPOS>ATOM
      1 C4         50.3030   -0.9640   -1.7970 C.2       1 DZH         0.2020
      2 C14        57.8680    1.8960    4.8260 C.ar      1 DZH        -0.0644
      3 C5         52.3080   -1.5860   -0.5420 C.ar      1 DZH         0.0689
      4 C6         51.8890   -1.2890    0.7600 C.ar      1 DZH        -0.0191
      5 C11        55.3940   -0.7150    3.6260 C.3       1 DZH         0.0570
      6 C7         53.4530   -2.3300   -0.7460 C.ar      1 DZH        -0.0457
      7 C8         54.1640   -2.7720    0.2860 C.ar      1 DZH        -0.0560
      8 C9         53.7250   -2.5420    1.5780 C.ar      1 DZH         0.0862
      9 C10        52.6220   -1.8190    1.8150 C.ar      1 DZH        -0.0470
     10 C12        56.3750    0.0040    4.4930 C.ar      1 DZH        -0.0313
     11 C13        57.0230    1.1360    4.0270 C.ar      1 DZH        -0.0652
     12 N1         51.6130   -1.0490   -1.6480 N.am      1 DZH        -0.2369
     13 N2         55.8290   -2.0860    3.2950 N.am      1 DZH        -0.2389
     14 C3         49.4750   -1.6320   -0.7690 C.3       1 DZH         0.0443
     15 N3         58.3940    3.3770    7.7240 N.am      1 DZH        -0.1891
     16 C1         50.7710   -0.3180    0.9490 C.3       1 DZH        -0.0209
     17 C2         49.4120   -0.8530    0.5770 C.3       1 DZH        -0.0279
     18 O1         49.7820   -0.4500   -2.7840 O.2       1 DZH        -0.3857
     19 S1         54.6710   -3.1610    2.9420 S.o2      1 DZH         0.0615
     20 O2         53.8080   -3.2420    4.0600 O.2       1 DZH        -0.1522
     21 O3         55.3810   -4.3440    2.4890 O.2       1 DZH        -0.1522
     22 C15        58.1420    1.4780    6.1270 C.ar      1 DZH        -0.0222
     23 C16        57.4940    0.3360    6.5870 C.ar      1 DZH        -0.0644
     24 C17        56.6460   -0.4320    5.7830 C.ar      1 DZH        -0.0652
     25 C18        59.0810    2.2700    7.0050 C.3       1 DZH         0.0863
     26 C19        58.3450    4.5940    7.0910 C.2       1 DZH         0.3174
     27 C20        57.8380    3.2370    8.9800 C.2       1 DZH         0.1400
     28 C21        57.1830    4.2590    9.5920 C.2       1 DZH         0.1626
     29 C22        57.0580    5.5440    9.0090 C.2       1 DZH         0.2275
     30 N4         57.6850    5.6050    7.7600 N.am      1 DZH        -0.1848
     31 N5         57.8430    2.1100    9.7140 N.2       1 DZH        -0.2857
     32 C23        57.1750    2.4690   10.8180 C.2       1 DZH         0.0978
     33 N6         56.7540    3.7300   10.7930 N.pl3     1 DZH        -0.2515
     34 O4         56.4750    6.5320    9.4700 O.2       1 DZH        -0.4009
     35 O5         58.8010    4.8050    5.9840 O.2       1 DZH        -0.3873
     36 C24        55.8550    4.3910   11.7710 C.3       1 DZH         0.0508
     37 C25        54.4230    4.2740   11.2940 C.3       1 DZH        -0.0377
     38 H1         58.3109    2.8072    4.4405 H         1 DZH         0.0541
     39 H2         55.2691   -0.1494    2.6909 H         1 DZH         0.0625
     40 H3         54.4303   -0.7687    4.1536 H         1 DZH         0.0625
     41 H4         53.7747   -2.5555   -1.7563 H         1 DZH         0.0480
     42 H5         55.0879   -3.3128    0.1157 H         1 DZH         0.0539
     43 H6         52.2996   -1.6465    2.8355 H         1 DZH         0.0532
     44 H7         56.8646    1.4408    2.9988 H         1 DZH         0.0540
     45 H8         52.1719   -0.6955   -2.3981 H         1 DZH         0.2235
     46 H9         56.7963   -2.3397    3.2890 H         1 DZH         0.1696
     47 H10        49.8972   -2.6291   -0.5752 H         1 DZH         0.0508
     48 H11        48.4519   -1.7366   -1.1593 H         1 DZH         0.0508
     49 H12        50.9745    0.5663    0.3272 H         1 DZH         0.0398
     50 H13        50.7465   -0.0235    2.0086 H         1 DZH         0.0398
     51 H14        49.0616   -1.5303    1.3698 H         1 DZH         0.0309
     52 H15        48.7092   -0.0130    0.4751 H         1 DZH         0.0309
     53 H16        57.6535    0.0280    7.6140 H         1 DZH         0.0541
     54 H17        56.2088   -1.3497    6.1595 H         1 DZH         0.0540
     55 H18        59.5267    1.5910    7.7468 H         1 DZH         0.0735
     56 H19        59.8752    2.6979    6.3756 H         1 DZH         0.0735
     57 H20        57.6509    6.4895    7.2948 H         1 DZH         0.2256
     58 H21        56.9945    1.7946   11.6538 H         1 DZH         0.1263
     59 H22        56.1268    5.4532   11.8602 H         1 DZH         0.0609
     60 H23        55.9565    3.9029   12.7515 H         1 DZH         0.0609
     61 H24        53.7544    4.7634   12.0175 H         1 DZH         0.0256
     62 H25        54.1519    3.2117   11.2046 H         1 DZH         0.0256
     63 H26        54.3221    4.7620   10.3133 H         1 DZH         0.0256
@<TRIPOS>BOND
     1   12    1 am 
     2   14    1 1  
     3    1   18 2  
     4    2   11 ar 
     5   22    2 ar 
     6    4    3 ar 
     7    6    3 ar 
     8    3   12 1  
     9    9    4 ar 
    10    4   16 1  
    11   10    5 1  
    12    5   13 1  
    13    7    6 ar 
    14    8    7 ar 
    15    8    9 ar 
    16   19    8 1  
    17   11   10 ar 
    18   10   24 ar 
    19   13   19 am 
    20   17   14 1  
    21   25   15 1  
    22   15   26 am 
    23   15   27 1  
    24   16   17 1  
    25   19   20 2  
    26   19   21 2  
    27   22   23 ar 
    28   22   25 1  
    29   23   24 ar 
    30   26   30 am 
    31   26   35 2  
    32   27   28 2  
    33   27   31 1  
    34   28   29 1  
    35   28   33 1  
    36   29   30 am 
    37   29   34 2  
    38   31   32 2  
    39   32   33 1  
    40   33   36 1  
    41   36   37 1  
    42    2   38 1  
    43    5   39 1  
    44    5   40 1  
    45    6   41 1  
    46    7   42 1  
    47    9   43 1  
    48   11   44 1  
    49   12   45 1  
    50   13   46 1  
    51   14   47 1  
    52   14   48 1  
    53   16   49 1  
    54   16   50 1  
    55   17   51 1  
    56   17   52 1  
    57   23   53 1  
    58   24   54 1  
    59   25   55 1  
    60   25   56 1  
    61   30   57 1  
    62   32   58 1  
    63   36   59 1  
    64   36   60 1  
    65   37   61 1  
    66   37   62 1  
    67   37   63 1  
@<TRIPOS>SUBSTRUCTURE
     1 DZH         1

