### 
### Created by X-TOOL on Wed Jan  1 15:39:36 2020
### 

@<TRIPOS>MOLECULE
6fo7_ligand
   73    74     1     0     0
SMALL
GAST_HUCK


@<TRIPOS>ATOM
      1 C4         -3.9640   34.0940   36.2100 C.3       1 LX3        -0.0651
      2 C5         -3.4620   34.5700   37.5230 C.3       1 LX3        -0.0540
      3 C6         -2.0780   35.1390   37.4630 C.3       1 LX3        -0.0433
      4 C7         -1.4880   35.1870   38.8600 C.3       1 LX3        -0.0197
      5 C8         -0.0310   35.5380   38.9150 C.2       1 LX3        -0.0411
      6 O9          4.8130   28.5350   34.0790 O.3       1 LX3        -0.3891
      7 C10         4.3130   29.5960   33.2380 C.3       1 LX3         0.0605
      8 C11         5.4390   30.5870   32.9870 C.3       1 LX3        -0.0363
      9 C12         3.8600   28.9870   31.9250 C.3       1 LX3        -0.0363
     10 C13         3.1280   30.2480   33.9610 C.3       1 LX3        -0.0245
     11 C14         3.3880   31.0450   35.2350 C.3       1 LX3        -0.0503
     12 C15         2.9370   30.3500   36.5090 C.3       1 LX3        -0.0512
     13 C16         1.4880   30.5820   36.8970 C.3       1 LX3        -0.0433
     14 C17         1.2720   30.7130   38.4000 C.3       1 LX3        -0.0195
     15 C18         1.5710   32.0990   38.9150 C.ar      1 LX3        -0.0439
     16 C19         0.6580   33.1350   38.7220 C.ar      1 LX3        -0.0544
     17 C20         2.7780   32.3780   39.5410 C.ar      1 LX3        -0.0612
     18 C21         3.0840   33.6650   39.9470 C.ar      1 LX3        -0.0687
     19 C22         2.1830   34.6920   39.7340 C.ar      1 LX3        -0.0619
     20 C23         0.9550   34.4380   39.1230 C.ar      1 LX3        -0.0276
     21 C24         0.4610   36.8000   38.7970 C.2       1 LX3        -0.0721
     22 C25        -0.2470   38.0340   38.5930 C.2       1 LX3        -0.0724
     23 C26         0.2910   39.2390   38.2470 C.2       1 LX3        -0.0378
     24 C27         1.7240   39.3910   37.9660 C.2       1 LX3        -0.0242
     25 C28         2.3570   38.5320   37.1860 C.2       1 LX3        -0.1088
     26 C29         2.3030   40.6430   38.5850 C.3       1 LX3         0.0895
     27 O30         3.6830   40.7540   38.2160 O.3       1 LX3        -0.3796
     28 C31         1.5130   41.8260   38.0380 C.3       1 LX3         0.0108
     29 C32         0.0750   41.7600   38.5190 C.3       1 LX3         0.0684
     30 O33         0.0650   41.8070   39.9470 O.3       1 LX3        -0.3894
     31 C34        -0.5700   40.4710   38.0330 C.3       1 LX3         0.0056
     32 H1         -4.9806   33.6914   36.3302 H         1 LX3         0.0230
     33 H2         -3.3000   33.3047   35.8278 H         1 LX3         0.0230
     34 H3         -3.9836   34.9330   35.4989 H         1 LX3         0.0230
     35 H4         -3.4595   33.7216   38.2231 H         1 LX3         0.0264
     36 H5         -4.1432   35.3498   37.8943 H         1 LX3         0.0264
     37 H6         -2.1179   36.1565   37.0471 H         1 LX3         0.0289
     38 H7         -1.4487   34.5049   36.8212 H         1 LX3         0.0289
     39 H8         -1.6192   34.1970   39.3212 H         1 LX3         0.0434
     40 H9         -2.0432   35.9385   39.4405 H         1 LX3         0.0434
     41 H10         5.1130   28.9003   34.9031 H         1 LX3         0.2101
     42 H11         5.0732   31.4030   32.3465 H         1 LX3         0.0257
     43 H12         6.2739   30.0744   32.4868 H         1 LX3         0.0257
     44 H13         5.7843   31.0004   33.9461 H         1 LX3         0.0257
     45 H14         3.4742   29.7796   31.2670 H         1 LX3         0.0257
     46 H15         3.0655   28.2509   32.1170 H         1 LX3         0.0257
     47 H16         4.7117   28.4889   31.4386 H         1 LX3         0.0257
     48 H17         2.4266   29.4420   34.2224 H         1 LX3         0.0293
     49 H18         2.6499   30.9322   33.2446 H         1 LX3         0.0293
     50 H19         2.8534   32.0032   35.1573 H         1 LX3         0.0266
     51 H20         4.4692   31.2332   35.3093 H         1 LX3         0.0266
     52 H21         3.5709   30.7076   37.3338 H         1 LX3         0.0267
     53 H22         3.0840   29.2680   36.3761 H         1 LX3         0.0267
     54 H23         0.8903   29.7335   36.5325 H         1 LX3         0.0287
     55 H24         1.1427   31.5081   36.4141 H         1 LX3         0.0287
     56 H25         1.9311   29.9976   38.9135 H         1 LX3         0.0425
     57 H26         0.2228   30.4727   38.6265 H         1 LX3         0.0425
     58 H27        -0.2967   32.9250   38.2535 H         1 LX3         0.0549
     59 H28         3.4892   31.5784   39.7139 H         1 LX3         0.0551
     60 H29         4.0315   33.8684   40.4328 H         1 LX3         0.0598
     61 H30         2.4324   35.7005   40.0436 H         1 LX3         0.0561
     62 H31         1.5442   36.8882   38.8669 H         1 LX3         0.0476
     63 H32        -1.3271   38.0040   38.7290 H         1 LX3         0.0491
     64 H33         1.8323   37.6606   36.7972 H         1 LX3         0.0312
     65 H34         3.4033   38.6957   36.9322 H         1 LX3         0.0312
     66 H35         2.2139   40.6037   39.6807 H         1 LX3         0.0753
     67 H36         3.7537   40.8027   37.2699 H         1 LX3         0.2129
     68 H37         1.5305   41.7980   36.9385 H         1 LX3         0.0339
     69 H38         1.9711   42.7627   38.3883 H         1 LX3         0.0339
     70 H39        -0.4856   42.6185   38.1206 H         1 LX3         0.0619
     71 H40        -0.8318   41.7662   40.2578 H         1 LX3         0.2100
     72 H41        -1.5172   40.3311   38.5746 H         1 LX3         0.0449
     73 H42        -0.7741   40.5693   36.9566 H         1 LX3         0.0449
@<TRIPOS>BOND
     1    2    1 1  
     2    3    2 1  
     3    4    3 1  
     4    5    4 1  
     5   20    5 1  
     6    5   21 2  
     7    7    6 1  
     8    7    8 1  
     9    7    9 1  
    10   10    7 1  
    11   11   10 1  
    12   12   11 1  
    13   13   12 1  
    14   14   13 1  
    15   15   14 1  
    16   16   15 ar 
    17   15   17 ar 
    18   16   20 ar 
    19   17   18 ar 
    20   18   19 ar 
    21   19   20 ar 
    22   21   22 1  
    23   22   23 2  
    24   23   24 1  
    25   23   31 1  
    26   24   25 2  
    27   24   26 1  
    28   26   27 1  
    29   26   28 1  
    30   28   29 1  
    31   29   30 1  
    32   29   31 1  
    33    1   32 1  
    34    1   33 1  
    35    1   34 1  
    36    2   35 1  
    37    2   36 1  
    38    3   37 1  
    39    3   38 1  
    40    4   39 1  
    41    4   40 1  
    42    6   41 1  
    43    8   42 1  
    44    8   43 1  
    45    8   44 1  
    46    9   45 1  
    47    9   46 1  
    48    9   47 1  
    49   10   48 1  
    50   10   49 1  
    51   11   50 1  
    52   11   51 1  
    53   12   52 1  
    54   12   53 1  
    55   13   54 1  
    56   13   55 1  
    57   14   56 1  
    58   14   57 1  
    59   16   58 1  
    60   17   59 1  
    61   18   60 1  
    62   19   61 1  
    63   21   62 1  
    64   22   63 1  
    65   25   64 1  
    66   25   65 1  
    67   26   66 1  
    68   27   67 1  
    69   28   68 1  
    70   28   69 1  
    71   29   70 1  
    72   30   71 1  
    73   31   72 1  
    74   31   73 1  
@<TRIPOS>SUBSTRUCTURE
     1 LX3         1

