### 
### Created by X-TOOL on Wed Jan  1 15:39:37 2020
### 

@<TRIPOS>MOLECULE
6fo8_ligand
   79    80     1     0     0
SMALL
GAST_HUCK


@<TRIPOS>ATOM
      1 C2         -2.9010   33.0850   33.5600 C.3       1 DZT        -0.0653
      2 C3         -2.8480   33.5470   34.9960 C.3       1 DZT        -0.0559
      3 C4         -1.9830   34.7740   35.1870 C.3       1 DZT        -0.0531
      4 C5         -1.8090   35.2140   36.6320 C.3       1 DZT        -0.0511
      5 C6         -1.3900   34.0890   37.5630 C.3       1 DZT        -0.0430
      6 C7         -0.9350   34.5690   38.9370 C.3       1 DZT        -0.0197
      7 C8          0.5170   34.9340   39.0530 C.2       1 DZT        -0.0411
      8 O9          5.8720   27.9360   34.3040 O.3       1 DZT        -0.3891
      9 C10         5.5260   29.0970   33.5250 C.3       1 DZT         0.0605
     10 C11         6.8080   29.8620   33.2310 C.3       1 DZT        -0.0363
     11 C12         4.8810   28.6140   32.2350 C.3       1 DZT        -0.0363
     12 C13         4.5530   29.9370   34.3460 C.3       1 DZT        -0.0245
     13 C14         5.1320   30.5990   35.5930 C.3       1 DZT        -0.0503
     14 C15         4.4210   30.1990   36.8770 C.3       1 DZT        -0.0512
     15 C16         2.9060   30.3190   36.8220 C.3       1 DZT        -0.0433
     16 C17         2.2190   30.3010   38.1900 C.3       1 DZT        -0.0195
     17 C18         2.3190   31.6110   38.9340 C.ar      1 DZT        -0.0439
     18 C19         1.3970   32.6250   38.6900 C.ar      1 DZT        -0.0544
     19 C20         3.3360   31.8380   39.8470 C.ar      1 DZT        -0.0612
     20 C21         3.4390   33.0510   40.5010 C.ar      1 DZT        -0.0687
     21 C22         2.5240   34.0560   40.2510 C.ar      1 DZT        -0.0619
     22 C23         1.4930   33.8520   39.3410 C.ar      1 DZT        -0.0276
     23 C24         1.0390   36.1830   38.9310 C.2       1 DZT        -0.0721
     24 C25         0.3600   37.4130   38.6880 C.2       1 DZT        -0.0724
     25 C26         0.9140   38.6100   38.3380 C.2       1 DZT        -0.0378
     26 C27         2.3390   38.8530   38.0810 C.2       1 DZT        -0.0242
     27 C28         3.0730   38.0660   37.3190 C.2       1 DZT        -0.1088
     28 C29         2.8670   40.0950   38.7590 C.3       1 DZT         0.0895
     29 O30         4.2230   40.2840   38.3640 O.3       1 DZT        -0.3796
     30 C31         2.0240   41.2740   38.2980 C.3       1 DZT         0.0108
     31 C32         0.5900   41.0780   38.7470 C.3       1 DZT         0.0684
     32 O33         0.5280   41.0010   40.1730 O.3       1 DZT        -0.3894
     33 C34         0.0290   39.8160   38.1190 C.3       1 DZT         0.0056
     34 H1         -3.5418   32.1941   33.4849 H         1 DZT         0.0230
     35 H2         -1.8858   32.8364   33.2171 H         1 DZT         0.0230
     36 H3         -3.3141   33.8877   32.9315 H         1 DZT         0.0230
     37 H4         -2.4419   32.7316   35.6126 H         1 DZT         0.0263
     38 H5         -3.8701   33.7829   35.3270 H         1 DZT         0.0263
     39 H6         -2.4399   35.6048   34.6292 H         1 DZT         0.0265
     40 H7         -0.9870   34.5582   34.7730 H         1 DZT         0.0265
     41 H8         -2.7658   35.6228   36.9889 H         1 DZT         0.0267
     42 H9         -1.0392   35.9990   36.6664 H         1 DZT         0.0267
     43 H10        -0.5596   33.5409   37.0940 H         1 DZT         0.0289
     44 H11        -2.2466   33.4121   37.6976 H         1 DZT         0.0289
     45 H12        -1.1401   33.7660   39.6602 H         1 DZT         0.0434
     46 H13        -1.5284   35.4577   39.1978 H         1 DZT         0.0434
     47 H14         5.0849   27.4415   34.5001 H         1 DZT         0.2101
     48 H15         6.5728   30.7564   32.6354 H         1 DZT         0.0257
     49 H16         7.4986   29.2174   32.6675 H         1 DZT         0.0257
     50 H17         7.2793   30.1653   34.1775 H         1 DZT         0.0257
     51 H18         4.6046   29.4806   31.6164 H         1 DZT         0.0257
     52 H19         3.9793   28.0302   32.4720 H         1 DZT         0.0257
     53 H20         5.5926   27.9819   31.6835 H         1 DZT         0.0257
     54 H21         3.7281   29.2826   34.6641 H         1 DZT         0.0293
     55 H22         4.1605   30.7314   33.6942 H         1 DZT         0.0293
     56 H23         5.0533   31.6900   35.4767 H         1 DZT         0.0266
     57 H24         6.1912   30.3148   35.6784 H         1 DZT         0.0266
     58 H25         4.7876   30.8449   37.6884 H         1 DZT         0.0267
     59 H26         4.6749   29.1519   37.0986 H         1 DZT         0.0267
     60 H27         2.5157   29.4779   36.2302 H         1 DZT         0.0287
     61 H28         2.6540   31.2665   36.3232 H         1 DZT         0.0287
     62 H29         2.6859   29.5163   38.8033 H         1 DZT         0.0425
     63 H30         1.1547   30.0658   38.0416 H         1 DZT         0.0425
     64 H31         0.5927   32.4569   37.9830 H         1 DZT         0.0549
     65 H32         4.0585   31.0559   40.0505 H         1 DZT         0.0551
     66 H33         4.2402   33.2147   41.2125 H         1 DZT         0.0598
     67 H34         2.6104   35.0060   40.7659 H         1 DZT         0.0561
     68 H35         2.1210   36.2538   39.0325 H         1 DZT         0.0476
     69 H36        -0.7237   37.3952   38.7937 H         1 DZT         0.0491
     70 H37         2.6287   37.1844   36.8593 H         1 DZT         0.0312
     71 H38         4.1235   38.2977   37.1493 H         1 DZT         0.0312
     72 H39         2.8050   39.9905   39.8523 H         1 DZT         0.0753
     73 H40         4.2655   40.3861   37.4205 H         1 DZT         0.2129
     74 H41         2.0582   41.3420   37.2007 H         1 DZT         0.0339
     75 H42         2.4213   42.2018   38.7355 H         1 DZT         0.0339
     76 H43        -0.0095   41.9377   38.4131 H         1 DZT         0.0619
     77 H44        -0.3744   40.8783   40.4434 H         1 DZT         0.2100
     78 H45        -0.9579   39.6126   38.5601 H         1 DZT         0.0449
     79 H46        -0.0799   39.9803   37.0368 H         1 DZT         0.0449
@<TRIPOS>BOND
     1    2    1 1  
     2    3    2 1  
     3    4    3 1  
     4    5    4 1  
     5    6    5 1  
     6    7    6 1  
     7   22    7 1  
     8    7   23 2  
     9    9    8 1  
    10    9   10 1  
    11    9   11 1  
    12   12    9 1  
    13   13   12 1  
    14   14   13 1  
    15   15   14 1  
    16   16   15 1  
    17   17   16 1  
    18   18   17 ar 
    19   17   19 ar 
    20   18   22 ar 
    21   19   20 ar 
    22   20   21 ar 
    23   21   22 ar 
    24   23   24 1  
    25   24   25 2  
    26   25   26 1  
    27   25   33 1  
    28   26   27 2  
    29   26   28 1  
    30   28   29 1  
    31   28   30 1  
    32   30   31 1  
    33   31   32 1  
    34   31   33 1  
    35    1   34 1  
    36    1   35 1  
    37    1   36 1  
    38    2   37 1  
    39    2   38 1  
    40    3   39 1  
    41    3   40 1  
    42    4   41 1  
    43    4   42 1  
    44    5   43 1  
    45    5   44 1  
    46    6   45 1  
    47    6   46 1  
    48    8   47 1  
    49   10   48 1  
    50   10   49 1  
    51   10   50 1  
    52   11   51 1  
    53   11   52 1  
    54   11   53 1  
    55   12   54 1  
    56   12   55 1  
    57   13   56 1  
    58   13   57 1  
    59   14   58 1  
    60   14   59 1  
    61   15   60 1  
    62   15   61 1  
    63   16   62 1  
    64   16   63 1  
    65   18   64 1  
    66   19   65 1  
    67   20   66 1  
    68   21   67 1  
    69   23   68 1  
    70   24   69 1  
    71   27   70 1  
    72   27   71 1  
    73   28   72 1  
    74   29   73 1  
    75   30   74 1  
    76   30   75 1  
    77   31   76 1  
    78   32   77 1  
    79   33   78 1  
    80   33   79 1  
@<TRIPOS>SUBSTRUCTURE
     1 DZT         1

