### 
### Created by X-TOOL on Wed Jan  1 15:39:37 2020
### 

@<TRIPOS>MOLECULE
6fo9_ligand
   70    71     1     0     0
SMALL
GAST_HUCK


@<TRIPOS>ATOM
      1 C5         -1.8440   34.5020   36.8390 C.3       1 E0E        -0.0633
      2 C6         -1.7300   33.5340   37.9850 C.3       1 E0E        -0.0459
      3 C7         -0.9100   34.0690   39.1530 C.3       1 E0E        -0.0200
      4 C8          0.5390   34.4610   39.1210 C.2       1 E0E        -0.0411
      5 O9          5.2360   27.7630   34.1130 O.3       1 E0E        -0.3891
      6 C10         4.7700   28.8310   33.2670 C.3       1 E0E         0.0605
      7 C11         4.4610   28.2400   31.9000 C.3       1 E0E        -0.0363
      8 C12         5.8800   29.8680   33.1660 C.3       1 E0E        -0.0363
      9 C13         3.5180   29.4190   33.9130 C.3       1 E0E        -0.0245
     10 C14         3.8280   30.2130   35.1780 C.3       1 E0E        -0.0503
     11 C15         3.5670   29.4540   36.4700 C.3       1 E0E        -0.0512
     12 C16         2.1200   29.4820   36.9350 C.3       1 E0E        -0.0433
     13 C17         1.9490   29.6990   38.4440 C.3       1 E0E        -0.0195
     14 C18         2.2540   31.1000   38.9250 C.ar      1 E0E        -0.0439
     15 C19         1.2890   32.0920   38.8490 C.ar      1 E0E        -0.0544
     16 C20         3.5060   31.4180   39.4350 C.ar      1 E0E        -0.0612
     17 C21         3.7860   32.7060   39.8580 C.ar      1 E0E        -0.0687
     18 C22         2.8220   33.6880   39.7730 C.ar      1 E0E        -0.0619
     19 C23         1.5610   33.3990   39.2630 C.ar      1 E0E        -0.0276
     20 C24         1.0110   35.7220   38.9410 C.2       1 E0E        -0.0721
     21 C25         0.2770   36.9210   38.7110 C.2       1 E0E        -0.0724
     22 C26         0.7690   38.1510   38.3840 C.2       1 E0E        -0.0378
     23 C27         2.1930   38.4570   38.1830 C.2       1 E0E        -0.0242
     24 C28         2.9980   37.6800   37.4850 C.2       1 E0E        -0.1088
     25 C29         2.6350   39.7430   38.8400 C.3       1 E0E         0.0895
     26 O30         3.9880   39.9960   38.4740 O.3       1 E0E        -0.3796
     27 C31         1.7430   40.8690   38.3410 C.3       1 E0E         0.0108
     28 C32         0.3260   40.5950   38.7970 C.3       1 E0E         0.0684
     29 O33         0.2920   40.4880   40.2220 O.3       1 E0E        -0.3894
     30 C34        -0.1720   39.3130   38.1630 C.3       1 E0E         0.0056
     31 H1         -2.4461   34.0508   36.0365 H         1 E0E         0.0231
     32 H2         -0.8399   34.7369   36.4562 H         1 E0E         0.0231
     33 H3         -2.3295   35.4259   37.1863 H         1 E0E         0.0231
     34 H4         -1.2529   32.6136   37.6173 H         1 E0E         0.0287
     35 H5         -2.7425   33.3026   38.3475 H         1 E0E         0.0287
     36 H6         -0.9793   33.2935   39.9300 H         1 E0E         0.0434
     37 H7         -1.4430   34.9714   39.4870 H         1 E0E         0.0434
     38 H8          4.5598   27.0997   34.1853 H         1 E0E         0.2101
     39 H9          4.1016   29.0347   31.2297 H         1 E0E         0.0257
     40 H10         3.6848   27.4672   32.0015 H         1 E0E         0.0257
     41 H11         5.3730   27.7907   31.4801 H         1 E0E         0.0257
     42 H12         5.5495   30.6974   32.5235 H         1 E0E         0.0257
     43 H13         6.7776   29.4033   32.7321 H         1 E0E         0.0257
     44 H14         6.1149   30.2527   34.1694 H         1 E0E         0.0257
     45 H15         2.8356   28.5961   34.1721 H         1 E0E         0.0293
     46 H16         3.0286   30.0870   33.1890 H         1 E0E         0.0293
     47 H17         3.2043   31.1190   35.1782 H         1 E0E         0.0266
     48 H18         4.8899   30.4989   35.1544 H         1 E0E         0.0266
     49 H19         4.1907   29.8965   37.2607 H         1 E0E         0.0267
     50 H20         3.8586   28.4045   36.3171 H         1 E0E         0.0267
     51 H21         1.6536   28.5218   36.6695 H         1 E0E         0.0287
     52 H22         1.6040   30.2984   36.4084 H         1 E0E         0.0287
     53 H23         2.6220   29.0041   38.9675 H         1 E0E         0.0425
     54 H24         0.9062   29.4672   38.7065 H         1 E0E         0.0425
     55 H25         0.3059   31.8499   38.4616 H         1 E0E         0.0549
     56 H26         4.2698   30.6518   39.5024 H         1 E0E         0.0551
     57 H27         4.7656   32.9431   40.2570 H         1 E0E         0.0598
     58 H28         3.0490   34.6941   40.1066 H         1 E0E         0.0561
     59 H29         2.0940   35.8307   38.9773 H         1 E0E         0.0476
     60 H30        -0.8052   36.8472   38.8076 H         1 E0E         0.0491
     61 H31         2.6166   36.7642   37.0359 H         1 E0E         0.0312
     62 H32         4.0442   37.9541   37.3577 H         1 E0E         0.0312
     63 H33         2.5533   39.6578   39.9336 H         1 E0E         0.0753
     64 H34         4.0497   40.0761   37.5294 H         1 E0E         0.2129
     65 H35         1.7779   40.9113   37.2424 H         1 E0E         0.0339
     66 H36         2.0878   41.8276   38.7560 H         1 E0E         0.0339
     67 H37        -0.3222   41.4266   38.4835 H         1 E0E         0.0619
     68 H38        -0.5987   40.3161   40.5044 H         1 E0E         0.2100
     69 H39        -1.1504   39.0617   38.5985 H         1 E0E         0.0449
     70 H40        -0.2831   39.4754   37.0807 H         1 E0E         0.0449
@<TRIPOS>BOND
     1    2    1 1  
     2    3    2 1  
     3    4    3 1  
     4   19    4 1  
     5    4   20 2  
     6    6    5 1  
     7    6    7 1  
     8    6    8 1  
     9    9    6 1  
    10   10    9 1  
    11   11   10 1  
    12   12   11 1  
    13   13   12 1  
    14   14   13 1  
    15   15   14 ar 
    16   14   16 ar 
    17   15   19 ar 
    18   16   17 ar 
    19   17   18 ar 
    20   18   19 ar 
    21   20   21 1  
    22   21   22 2  
    23   22   23 1  
    24   22   30 1  
    25   23   24 2  
    26   23   25 1  
    27   25   26 1  
    28   25   27 1  
    29   27   28 1  
    30   28   29 1  
    31   28   30 1  
    32    1   31 1  
    33    1   32 1  
    34    1   33 1  
    35    2   34 1  
    36    2   35 1  
    37    3   36 1  
    38    3   37 1  
    39    5   38 1  
    40    7   39 1  
    41    7   40 1  
    42    7   41 1  
    43    8   42 1  
    44    8   43 1  
    45    8   44 1  
    46    9   45 1  
    47    9   46 1  
    48   10   47 1  
    49   10   48 1  
    50   11   49 1  
    51   11   50 1  
    52   12   51 1  
    53   12   52 1  
    54   13   53 1  
    55   13   54 1  
    56   15   55 1  
    57   16   56 1  
    58   17   57 1  
    59   18   58 1  
    60   20   59 1  
    61   21   60 1  
    62   24   61 1  
    63   24   62 1  
    64   25   63 1  
    65   26   64 1  
    66   27   65 1  
    67   27   66 1  
    68   28   67 1  
    69   29   68 1  
    70   30   69 1  
    71   30   70 1  
@<TRIPOS>SUBSTRUCTURE
     1 E0E         1

