### 
### Created by X-TOOL on Wed Jan  1 15:39:36 2020
### 

@<TRIPOS>MOLECULE
6fob_ligand
   82    83     1     0     0
SMALL
GAST_HUCK


@<TRIPOS>ATOM
      1 C1         -3.1370   31.7090   32.5700 C.3       1 DZW        -0.0653
      2 C2         -3.0040   32.9630   33.3270 C.3       1 DZW        -0.0559
      3 C3         -2.7650   32.6940   34.7930 C.3       1 DZW        -0.0533
      4 C4         -2.9050   33.9360   35.6440 C.3       1 DZW        -0.0529
      5 C5         -2.6580   33.7280   37.1200 C.3       1 DZW        -0.0511
      6 C6         -1.2190   34.0120   37.4380 C.3       1 DZW        -0.0430
      7 C7         -0.9340   34.1440   38.9170 C.3       1 DZW        -0.0197
      8 C8          0.4950   34.5360   39.1690 C.2       1 DZW        -0.0411
      9 O9          5.6210   27.6470   33.8970 O.3       1 DZW        -0.3891
     10 C10         5.4700   28.9470   33.3030 C.3       1 DZW         0.0605
     11 C11         6.8340   29.6200   33.3120 C.3       1 DZW        -0.0363
     12 C12         4.9750   28.7540   31.8810 C.3       1 DZW        -0.0363
     13 C13         4.4550   29.7160   34.1270 C.3       1 DZW        -0.0245
     14 C14         4.7280   29.9920   35.5990 C.3       1 DZW        -0.0503
     15 C15         3.4690   30.3910   36.3510 C.3       1 DZW        -0.0512
     16 C16         2.9110   29.3190   37.2810 C.3       1 DZW        -0.0433
     17 C17         1.8490   29.7890   38.2910 C.3       1 DZW        -0.0195
     18 C18         2.1100   31.1120   38.9720 C.ar      1 DZW        -0.0439
     19 C19         1.2110   32.1630   38.8120 C.ar      1 DZW        -0.0544
     20 C20         3.2610   31.3270   39.7190 C.ar      1 DZW        -0.0612
     21 C21         3.5150   32.5650   40.2910 C.ar      1 DZW        -0.0687
     22 C22         2.6130   33.6030   40.1330 C.ar      1 DZW        -0.0619
     23 C23         1.4520   33.4150   39.3830 C.ar      1 DZW        -0.0276
     24 C24         0.9720   35.8210   39.1110 C.2       1 DZW        -0.0721
     25 C25         0.2530   37.0400   38.8160 C.2       1 DZW        -0.0724
     26 C26         0.7520   38.2430   38.4110 C.2       1 DZW        -0.0378
     27 C27         2.1530   38.5520   38.0850 C.2       1 DZW        -0.0242
     28 C28         2.8710   37.7380   37.3350 C.2       1 DZW        -0.1088
     29 C29         2.6320   39.8520   38.6870 C.3       1 DZW         0.0895
     30 O30         3.9420   40.1160   38.2230 O.3       1 DZW        -0.3796
     31 C31         1.6970   40.9890   38.2950 C.3       1 DZW         0.0108
     32 C32         0.2850   40.6980   38.7670 C.3       1 DZW         0.0684
     33 O33         0.2380   40.6170   40.1950 O.3       1 DZW        -0.3894
     34 C34        -0.1960   39.3930   38.1600 C.3       1 DZW         0.0056
     35 H1         -3.3099   31.9383   31.5081 H         1 DZW         0.0230
     36 H2         -3.9866   31.1315   32.9634 H         1 DZW         0.0230
     37 H3         -2.2141   31.1193   32.6722 H         1 DZW         0.0230
     38 H4         -3.9284   33.5487   33.2160 H         1 DZW         0.0263
     39 H5         -2.1559   33.5365   32.9248 H         1 DZW         0.0263
     40 H6         -1.7471   32.2956   34.9165 H         1 DZW         0.0265
     41 H7         -3.4954   31.9471   35.1375 H         1 DZW         0.0265
     42 H8         -3.9277   34.3216   35.5199 H         1 DZW         0.0265
     43 H9         -2.1847   34.6830   35.2792 H         1 DZW         0.0265
     44 H10        -2.8926   32.6869   37.3867 H         1 DZW         0.0267
     45 H11        -3.3010   34.4083   37.6976 H         1 DZW         0.0267
     46 H12        -0.9343   34.9532   36.9449 H         1 DZW         0.0289
     47 H13        -0.6071   33.1895   37.0393 H         1 DZW         0.0289
     48 H14        -1.1318   33.1791   39.4068 H         1 DZW         0.0434
     49 H15        -1.5959   34.9132   39.3415 H         1 DZW         0.0434
     50 H16         5.9375   27.7419   34.7877 H         1 DZW         0.2101
     51 H17         6.7521   30.6206   32.8624 H         1 DZW         0.0257
     52 H18         7.5456   29.0144   32.7316 H         1 DZW         0.0257
     53 H19         7.1907   29.7119   34.3485 H         1 DZW         0.0257
     54 H20         4.8498   29.7353   31.4000 H         1 DZW         0.0257
     55 H21         4.0092   28.2278   31.8972 H         1 DZW         0.0257
     56 H22         5.7073   28.1592   31.3154 H         1 DZW         0.0257
     57 H23         3.5121   29.1516   34.0784 H         1 DZW         0.0293
     58 H24         4.3231   30.6930   33.6390 H         1 DZW         0.0293
     59 H25         5.4607   30.8087   35.6764 H         1 DZW         0.0266
     60 H26         5.1423   29.0828   36.0591 H         1 DZW         0.0266
     61 H27         2.6934   30.6396   35.6117 H         1 DZW         0.0267
     62 H28         3.6990   31.2813   36.9547 H         1 DZW         0.0267
     63 H29         3.7521   28.8955   37.8495 H         1 DZW         0.0287
     64 H30         2.4582   28.5344   36.6570 H         1 DZW         0.0287
     65 H31         1.7675   29.0201   39.0734 H         1 DZW         0.0425
     66 H32         0.8913   29.8710   37.7561 H         1 DZW         0.0425
     67 H33         0.3075   32.0070   38.2338 H         1 DZW         0.0549
     68 H34         3.9692   30.5179   39.8567 H         1 DZW         0.0551
     69 H35         4.4225   32.7200   40.8633 H         1 DZW         0.0598
     70 H36         2.8094   34.5646   40.5933 H         1 DZW         0.0561
     71 H37         2.0353   35.9386   39.3146 H         1 DZW         0.0476
     72 H38        -0.8287   36.9914   38.9324 H         1 DZW         0.0491
     73 H39         2.4284   36.8210   36.9487 H         1 DZW         0.0312
     74 H40         3.9062   37.9831   37.1022 H         1 DZW         0.0312
     75 H41         2.6462   39.7612   39.7831 H         1 DZW         0.0753
     76 H42         3.9334   40.1840   37.2755 H         1 DZW         0.2129
     77 H43         1.6981   41.0984   37.2005 H         1 DZW         0.0339
     78 H44         2.0485   41.9232   38.7572 H         1 DZW         0.0339
     79 H45        -0.3760   41.5125   38.4358 H         1 DZW         0.0619
     80 H46        -0.6523   40.4346   40.4716 H         1 DZW         0.2100
     81 H47        -1.1745   39.1428   38.5958 H         1 DZW         0.0449
     82 H48        -0.3025   39.5294   37.0737 H         1 DZW         0.0449
@<TRIPOS>BOND
     1    2    1 1  
     2    3    2 1  
     3    4    3 1  
     4    5    4 1  
     5    6    5 1  
     6    7    6 1  
     7    8    7 1  
     8   23    8 1  
     9    8   24 2  
    10   10    9 1  
    11   10   11 1  
    12   10   12 1  
    13   13   10 1  
    14   14   13 1  
    15   15   14 1  
    16   16   15 1  
    17   17   16 1  
    18   18   17 1  
    19   19   18 ar 
    20   18   20 ar 
    21   19   23 ar 
    22   20   21 ar 
    23   21   22 ar 
    24   22   23 ar 
    25   24   25 1  
    26   25   26 2  
    27   26   27 1  
    28   26   34 1  
    29   27   28 2  
    30   27   29 1  
    31   29   30 1  
    32   29   31 1  
    33   31   32 1  
    34   32   33 1  
    35   32   34 1  
    36    1   35 1  
    37    1   36 1  
    38    1   37 1  
    39    2   38 1  
    40    2   39 1  
    41    3   40 1  
    42    3   41 1  
    43    4   42 1  
    44    4   43 1  
    45    5   44 1  
    46    5   45 1  
    47    6   46 1  
    48    6   47 1  
    49    7   48 1  
    50    7   49 1  
    51    9   50 1  
    52   11   51 1  
    53   11   52 1  
    54   11   53 1  
    55   12   54 1  
    56   12   55 1  
    57   12   56 1  
    58   13   57 1  
    59   13   58 1  
    60   14   59 1  
    61   14   60 1  
    62   15   61 1  
    63   15   62 1  
    64   16   63 1  
    65   16   64 1  
    66   17   65 1  
    67   17   66 1  
    68   19   67 1  
    69   20   68 1  
    70   21   69 1  
    71   22   70 1  
    72   24   71 1  
    73   25   72 1  
    74   28   73 1  
    75   28   74 1  
    76   29   75 1  
    77   30   76 1  
    78   31   77 1  
    79   31   78 1  
    80   32   79 1  
    81   33   80 1  
    82   34   81 1  
    83   34   82 1  
@<TRIPOS>SUBSTRUCTURE
     1 DZW         1

