### 
### Created by X-TOOL on Wed Jan  1 15:39:36 2020
### 

@<TRIPOS>MOLECULE
6fod_ligand
   67    68     1     0     0
SMALL
GAST_HUCK


@<TRIPOS>ATOM
      1 C6         -1.7820   34.1150   37.1750 C.3       1 E05        -0.0552
      2 C7         -1.3190   33.9500   38.6410 C.3       1 E05        -0.0226
      3 C8          0.0750   34.4570   38.9260 C.2       1 E05        -0.0413
      4 O9          5.1630   27.6640   34.1480 O.3       1 E05        -0.3891
      5 C10         5.0120   28.8080   33.2900 C.3       1 E05         0.0605
      6 C11         6.4020   29.2340   32.8370 C.3       1 E05        -0.0363
      7 C12         4.1660   28.3900   32.0950 C.3       1 E05        -0.0363
      8 C13         4.3420   29.9070   34.1160 C.3       1 E05        -0.0245
      9 C14         2.8520   29.7840   34.4360 C.3       1 E05        -0.0503
     10 C15         2.4660   30.4180   35.7570 C.3       1 E05        -0.0512
     11 C16         2.6800   29.5020   36.9490 C.3       1 E05        -0.0433
     12 C17         1.7720   29.7850   38.1570 C.3       1 E05        -0.0195
     13 C18         1.9390   31.1530   38.7740 C.ar      1 E05        -0.0439
     14 C19         0.9180   32.1010   38.6860 C.ar      1 E05        -0.0544
     15 C20         3.1390   31.5080   39.3730 C.ar      1 E05        -0.0612
     16 C21         3.3230   32.7810   39.8820 C.ar      1 E05        -0.0687
     17 C22         2.3170   33.7250   39.7740 C.ar      1 E05        -0.0619
     18 C23         1.1070   33.4020   39.1560 C.ar      1 E05        -0.0276
     19 C24         0.5170   35.7540   38.9710 C.2       1 E05        -0.0721
     20 C25        -0.1180   37.0040   38.7360 C.2       1 E05        -0.0724
     21 C26         0.4940   38.2000   38.4510 C.2       1 E05        -0.0378
     22 C27         1.9490   38.3820   38.2480 C.2       1 E05        -0.0242
     23 C28         2.6860   37.4980   37.5890 C.2       1 E05        -0.1088
     24 C29         2.5030   39.6720   38.8110 C.3       1 E05         0.0895
     25 O30         3.8470   39.8150   38.3790 O.3       1 E05        -0.3796
     26 C31         1.6740   40.8460   38.3070 C.3       1 E05         0.0108
     27 C32         0.2380   40.7060   38.7740 C.3       1 E05         0.0684
     28 O33         0.1740   40.7000   40.2010 O.3       1 E05        -0.3894
     29 C34        -0.3620   39.4280   38.2120 C.3       1 E05         0.0056
     30 H1         -2.8027   33.7195   37.0661 H         1 E05         0.0254
     31 H2         -1.1016   33.5616   36.5111 H         1 E05         0.0254
     32 H3         -1.7712   35.1812   36.9048 H         1 E05         0.0254
     33 H4         -1.3516   32.8795   38.8917 H         1 E05         0.0432
     34 H5         -2.0212   34.4991   39.2855 H         1 E05         0.0432
     35 H6          4.3074   27.3774   34.4454 H         1 E05         0.2101
     36 H7          6.3200   30.1101   32.1768 H         1 E05         0.0257
     37 H8          6.8793   28.4069   32.2910 H         1 E05         0.0257
     38 H9          7.0108   29.4929   33.7158 H         1 E05         0.0257
     39 H10         4.0345   29.2489   31.4205 H         1 E05         0.0257
     40 H11         3.1820   28.0448   32.4451 H         1 E05         0.0257
     41 H12         4.6703   27.5744   31.5560 H         1 E05         0.0257
     42 H13         4.4780   30.8512   33.5684 H         1 E05         0.0293
     43 H14         4.8755   29.9600   35.0765 H         1 E05         0.0293
     44 H15         2.5900   28.7163   34.4720 H         1 E05         0.0266
     45 H16         2.2814   30.2748   33.6338 H         1 E05         0.0266
     46 H17         1.4017   30.6926   35.7146 H         1 E05         0.0267
     47 H18         3.0730   31.3241   35.8998 H         1 E05         0.0267
     48 H19         3.7251   29.6059   37.2760 H         1 E05         0.0287
     49 H20         2.4994   28.4676   36.6213 H         1 E05         0.0287
     50 H21         1.9885   29.0332   38.9302 H         1 E05         0.0425
     51 H22         0.7268   29.6837   37.8295 H         1 E05         0.0425
     52 H23        -0.0336   31.8235   38.2472 H         1 E05         0.0549
     53 H24         3.9400   30.7809   39.4428 H         1 E05         0.0551
     54 H25         4.2575   33.0397   40.3666 H         1 E05         0.0598
     55 H26         2.4692   34.7219   40.1717 H         1 E05         0.0561
     56 H27         1.5679   35.8452   39.2417 H         1 E05         0.0476
     57 H28        -1.2057   37.0143   38.7875 H         1 E05         0.0491
     58 H29         2.2300   36.5860   37.2067 H         1 E05         0.0312
     59 H30         3.7472   37.6842   37.4302 H         1 E05         0.0312
     60 H31         2.4680   39.6427   39.9100 H         1 E05         0.0753
     61 H32         3.8725   39.8388   37.4296 H         1 E05         0.2129
     62 H33         1.6992   40.8642   37.2075 H         1 E05         0.0339
     63 H34         2.0946   41.7838   38.6990 H         1 E05         0.0339
     64 H35        -0.3408   41.5633   38.3999 H         1 E05         0.0619
     65 H36         0.5300   41.5144   40.5363 H         1 E05         0.2100
     66 H37        -1.3418   39.2665   38.6851 H         1 E05         0.0449
     67 H38        -0.4947   39.5538   37.1273 H         1 E05         0.0449
@<TRIPOS>BOND
     1    2    1 1  
     2    3    2 1  
     3   18    3 1  
     4    3   19 2  
     5    5    4 1  
     6    5    6 1  
     7    5    7 1  
     8    8    5 1  
     9    9    8 1  
    10   10    9 1  
    11   11   10 1  
    12   12   11 1  
    13   13   12 1  
    14   14   13 ar 
    15   13   15 ar 
    16   14   18 ar 
    17   15   16 ar 
    18   16   17 ar 
    19   17   18 ar 
    20   19   20 1  
    21   20   21 2  
    22   21   22 1  
    23   21   29 1  
    24   22   23 2  
    25   22   24 1  
    26   24   25 1  
    27   24   26 1  
    28   26   27 1  
    29   27   28 1  
    30   27   29 1  
    31    1   30 1  
    32    1   31 1  
    33    1   32 1  
    34    2   33 1  
    35    2   34 1  
    36    4   35 1  
    37    6   36 1  
    38    6   37 1  
    39    6   38 1  
    40    7   39 1  
    41    7   40 1  
    42    7   41 1  
    43    8   42 1  
    44    8   43 1  
    45    9   44 1  
    46    9   45 1  
    47   10   46 1  
    48   10   47 1  
    49   11   48 1  
    50   11   49 1  
    51   12   50 1  
    52   12   51 1  
    53   14   52 1  
    54   15   53 1  
    55   16   54 1  
    56   17   55 1  
    57   19   56 1  
    58   20   57 1  
    59   23   58 1  
    60   23   59 1  
    61   24   60 1  
    62   25   61 1  
    63   26   62 1  
    64   26   63 1  
    65   27   64 1  
    66   28   65 1  
    67   29   66 1  
    68   29   67 1  
@<TRIPOS>SUBSTRUCTURE
     1 E05         1

