### 
### Created by X-TOOL on Mon Aug  2 16:13:25 2021
### 

@<TRIPOS>MOLECULE
6fpu_ligand
   51    56     1     0     0
SMALL
GAST_HUCK


@<TRIPOS>ATOM
      1 C2         18.4500   17.6180   11.2590 C.3       1 E48        -0.0135
      2 C3         16.6170   20.5140   12.1290 C.3       1 E48         0.1137
      3 C4         17.1670   21.0810   13.4150 C.3       1 E48         0.0799
      4 C5         16.4290   19.2780   14.7860 C.3       1 E48         0.2258
      5 C10        15.8270   16.7330   21.5700 C.ar      1 E48         0.1328
      6 C11        15.0420   16.5450   23.7620 C.cat     1 E48         0.1874
      7 C6         17.0740   17.9450   15.1850 C.3       1 E48         0.1050
      8 C7         17.6020   17.8120   17.5740 C.2       1 E48         0.2969
      9 N1         16.4420   17.2740   17.9130 N.pl3     1 E48        -0.1846
     10 O2         18.3320   17.8140   23.9200 O.2       1 E48        -0.3882
     11 C12        17.2940   17.3730   23.4450 C.2       1 E48         0.2089
     12 N4         16.2290   17.0200   24.2430 N.am      1 E48        -0.2586
     13 N3         14.0870   16.2500   24.6490 N.pl3     1 E48        -0.3362
     14 N2         14.8140   16.3750   22.4620 N.pl3     1 E48        -0.2480
     15 C13        17.0620   17.2310   22.0090 C.ar      1 E48         0.1178
     16 C9         15.5520   16.6720   20.2010 C.ar      1 E48         0.0491
     17 C14        18.0330   17.6640   21.1090 C.ar      1 E48         0.0129
     18 C15        17.7310   17.6200   19.7590 C.ar      1 E48         0.1175
     19 C8         16.5030   17.1420   19.2990 C.ar      1 E48         0.1433
     20 N5         18.4220   18.0310   18.6270 N.2       1 E48        -0.1918
     21 N          17.9490   18.1470   16.3290 N.pl3     1 E48        -0.2342
     22 O1         17.5360   19.9800   14.2520 O.3       1 E48        -0.3418
     23 C19        15.2340   19.1930   13.8290 C.3       1 E48         0.1460
     24 O4         14.3980   20.2690   14.2410 O.3       1 E48        -0.3426
     25 C16        14.5880   20.4610   15.6450 C.3       1 E48         0.1523
     26 O3         15.9150   19.9670   15.9170 O.3       1 E48        -0.3179
     27 C20        15.5890   19.4020   12.3640 C.3       1 E48         0.1212
     28 O          17.6800   19.8880   11.3920 O.3       1 E48        -0.3434
     29 O5         16.2370   18.2170   11.9150 O.3       1 E48        -0.3430
     30 C1         17.2970   18.5610   11.0260 C.3       1 E48         0.1575
     31 H1         19.2756   17.8731   10.5783 H         1 E48         0.0278
     32 H2         18.1233   16.5851   11.0682 H         1 E48         0.0278
     33 H3         18.7925   17.7078   12.3005 H         1 E48         0.0278
     34 H4         16.1638   21.3264   11.5419 H         1 E48         0.0647
     35 H5         16.3996   21.6907   13.9143 H         1 E48         0.0588
     36 H6         18.0492   21.7031   13.2034 H         1 E48         0.0588
     37 H7         17.6608   17.5553   14.3402 H         1 E48         0.0624
     38 H8         16.2875   17.2228   15.4493 H         1 E48         0.0624
     39 H9         15.6651   17.0108   17.2900 H         1 E48         0.2433
     40 H10        16.3304   17.1171   25.2331 H         1 E48         0.1811
     41 H11        13.1779   15.8893   24.3261 H         1 E48         0.1758
     42 H12        14.2601   16.3833   25.6556 H         1 E48         0.1758
     43 H13        13.9194   15.9918   22.1247 H         1 E48         0.2306
     44 H14        14.6120   16.2647   19.8466 H         1 E48         0.0743
     45 H15        18.9951   18.0242   21.4551 H         1 E48         0.0890
     46 H16        18.8765   18.5666   16.1720 H         1 E48         0.2173
     47 H17        14.7261   18.2241   13.9437 H         1 E48         0.0679
     48 H18        13.8399   19.8925   16.2170 H         1 E48         0.0872
     49 H19        14.5132   21.5279   15.9022 H         1 E48         0.0872
     50 H20        14.6741   19.6043   11.7877 H         1 E48         0.0652
     51 H21        16.9699   18.5171    9.9767 H         1 E48         0.0907
@<TRIPOS>BOND
     1   30    1 1  
     2    2    3 1  
     3    2   27 1  
     4   28    2 1  
     5    3   22 1  
     6    4    7 1  
     7   22    4 1  
     8   23    4 1  
     9    4   26 1  
    10    5   14 1  
    11   15    5 ar 
    12   16    5 ar 
    13   12    6 ar 
    14    6   13 ar 
    15   14    6 ar 
    16    7   21 1  
    17    8    9 1  
    18    8   20 2  
    19   21    8 1  
    20    9   19 1  
    21   11   10 2  
    22   11   12 am 
    23   15   11 1  
    24   17   15 ar 
    25   19   16 ar 
    26   18   17 ar 
    27   18   19 ar 
    28   20   18 1  
    29   23   24 1  
    30   27   23 1  
    31   24   25 1  
    32   25   26 1  
    33   27   29 1  
    34   28   30 1  
    35   29   30 1  
    36    1   31 1  
    37    1   32 1  
    38    1   33 1  
    39    2   34 1  
    40    3   35 1  
    41    3   36 1  
    42    7   37 1  
    43    7   38 1  
    44    9   39 1  
    45   12   40 1  
    46   13   41 1  
    47   13   42 1  
    48   14   43 1  
    49   16   44 1  
    50   17   45 1  
    51   21   46 1  
    52   23   47 1  
    53   25   48 1  
    54   25   49 1  
    55   27   50 1  
    56   30   51 1  
@<TRIPOS>SUBSTRUCTURE
     1 E48         1

