### 
### Created by X-TOOL on Wed Jan  1 15:39:35 2020
### 

@<TRIPOS>MOLECULE
6fqo_ligand
   58    61     1     0     0
SMALL
GAST_HUCK


@<TRIPOS>ATOM
      1 CAA         6.8330   -8.5440   28.7330 C.3       1 E2T        -0.0367
      2 CAB        10.8950   -3.7860   23.7420 C.3       1 E2T         0.0091
      3 CAC         5.6120   -3.4650   22.2140 C.3       1 E2T         0.0199
      4 CAD         1.0490   -4.4690   20.6980 C.3       1 E2T         0.0595
      5 CAH         6.1270  -13.7330   19.5140 C.2       1 E2T        -0.0557
      6 CAI         6.8230  -14.4000   20.4270 C.2       1 E2T         0.0866
      7 CAJ         6.0650  -12.4420   19.8960 C.2       1 E2T        -0.0431
      8 CAK        10.1550   -6.0870   26.6710 C.ar      1 E2T        -0.0509
      9 CAL         9.2660   -7.1110   26.9910 C.ar      1 E2T        -0.0247
     10 CAM         7.1380   -8.5370   23.3040 C.ar      1 E2T        -0.0471
     11 CAN         5.2670   -7.9260   21.9280 C.ar      1 E2T        -0.0523
     12 CAO         6.1830   -6.3500   23.4620 C.ar      1 E2T        -0.0800
     13 CAP         9.0470   -5.8650   24.5490 C.ar      1 E2T        -0.0428
     14 CAQ         7.5890   -9.2050   27.5880 C.3       1 E2T         0.0699
     15 CAV        11.0130   -4.4620   25.1060 C.2       1 E2T         0.1221
     16 CAW         6.9260  -11.1950   21.8430 C.2       1 E2T         0.2554
     17 CAX         6.2030   -8.8950   22.3220 C.ar      1 E2T         0.0524
     18 CAY        10.0650   -5.4520   25.4350 C.ar      1 E2T         0.0222
     19 CAZ         7.1500   -7.2580   23.8940 C.ar      1 E2T        -0.0445
     20 CBA         5.2160   -6.6370   22.4760 C.ar      1 E2T        -0.0568
     21 CBB         4.4120   -4.3650   21.9010 C.2       1 E2T         0.1530
     22 CBC         8.2560   -7.5000   26.1060 C.ar      1 E2T         0.1070
     23 CBD         6.7020  -12.2910   21.0660 C.2       1 E2T         0.1903
     24 CBE         8.1270   -6.8900   24.8620 C.ar      1 E2T         0.0134
     25 CBF         4.2630   -5.7130   22.0330 C.2       1 E2T         0.0654
     26 CBG         2.9860   -5.9430   21.5940 C.2       1 E2T         0.1999
     27 NAR         6.1280  -10.1160   21.6670 N.am      1 E2T        -0.2362
     28 NBH         2.4030   -4.7900   21.2330 N.am      1 E2T        -0.1210
     29 OAE        11.9970   -4.2150   25.8130 O.2       1 E2T        -0.3840
     30 OAF         7.8190  -11.2540   22.6860 O.2       1 E2T        -0.3786
     31 OAG         2.3860   -7.0340   21.5240 O.2       1 E2T        -0.4205
     32 OAS         7.3430   -8.4890   26.3760 O.3       1 E2T        -0.3119
     33 OAT         7.2020  -13.5040   21.4050 O.3       1 E2T        -0.2500
     34 OAU         3.2870   -3.7860   21.4230 O.3       1 E2T        -0.1499
     35 H1          7.0233   -9.0962   29.6651 H         1 E2T         0.0256
     36 H2          5.7549   -8.5539   28.5146 H         1 E2T         0.0256
     37 H3          7.1747   -7.5046   28.8463 H         1 E2T         0.0256
     38 H4         11.6980   -3.0425   23.6306 H         1 E2T         0.0448
     39 H5          9.9186   -3.2855   23.6640 H         1 E2T         0.0448
     40 H6         10.9835   -4.5429   22.9487 H         1 E2T         0.0448
     41 H7          5.3589   -2.4210   21.9774 H         1 E2T         0.0520
     42 H8          6.4743   -3.7796   21.6078 H         1 E2T         0.0520
     43 H9          5.8643   -3.5483   23.2814 H         1 E2T         0.0520
     44 H10         0.9690   -3.3850   20.5293 H         1 E2T         0.0527
     45 H11         0.2841   -4.7847   21.4227 H         1 E2T         0.0527
     46 H12         0.8949   -5.0004   19.7473 H         1 E2T         0.0527
     47 H13         5.6836  -14.1554   18.6135 H         1 E2T         0.0364
     48 H14         7.0535  -15.4642   20.4073 H         1 E2T         0.1039
     49 H15         5.5735  -11.6448   19.3403 H         1 E2T         0.0434
     50 H16        10.9150   -5.7853   27.3826 H         1 E2T         0.0648
     51 H17         9.3593   -7.6163   27.9455 H         1 E2T         0.0558
     52 H18         7.8745   -9.2674   23.6188 H         1 E2T         0.0408
     53 H19         4.5471   -8.1879   21.1610 H         1 E2T         0.0388
     54 H20         6.1742   -5.3636   23.9115 H         1 E2T         0.0391
     55 H21         8.9677   -5.3739   23.5859 H         1 E2T         0.0653
     56 H22         7.2472  -10.2444   27.4751 H         1 E2T         0.0616
     57 H23         8.6670   -9.1952   27.8068 H         1 E2T         0.0616
     58 H24         5.4009  -10.2095   20.9869 H         1 E2T         0.2241
@<TRIPOS>BOND
     1   14    1 1  
     2   15    2 1  
     3   21    3 1  
     4   28    4 1  
     5    6    5 2  
     6    7    5 1  
     7   33    6 1  
     8   23    7 2  
     9    9    8 ar 
    10   18    8 ar 
    11   22    9 ar 
    12   17   10 ar 
    13   19   10 ar 
    14   11   17 ar 
    15   20   11 ar 
    16   12   19 ar 
    17   20   12 ar 
    18   13   18 ar 
    19   24   13 ar 
    20   32   14 1  
    21   18   15 1  
    22   15   29 2  
    23   16   23 1  
    24   27   16 am 
    25   16   30 2  
    26   17   27 1  
    27   19   24 1  
    28   25   20 1  
    29   25   21 2  
    30   21   34 1  
    31   24   22 ar 
    32   22   32 1  
    33   23   33 1  
    34   26   25 1  
    35   26   28 am 
    36   26   31 2  
    37   28   34 1  
    38    1   35 1  
    39    1   36 1  
    40    1   37 1  
    41    2   38 1  
    42    2   39 1  
    43    2   40 1  
    44    3   41 1  
    45    3   42 1  
    46    3   43 1  
    47    4   44 1  
    48    4   45 1  
    49    4   46 1  
    50    5   47 1  
    51    6   48 1  
    52    7   49 1  
    53    8   50 1  
    54    9   51 1  
    55   10   52 1  
    56   11   53 1  
    57   12   54 1  
    58   13   55 1  
    59   14   56 1  
    60   14   57 1  
    61   27   58 1  
@<TRIPOS>SUBSTRUCTURE
     1 E2T         1

