### 
### Created by X-TOOL on Wed Jan  1 15:39:35 2020
### 

@<TRIPOS>MOLECULE
6fqu_ligand
   49    51     1     0     0
SMALL
GAST_HUCK


@<TRIPOS>ATOM
      1 CAA        -0.8010   -3.6550   -5.9090 C.3       1 E3B        -0.0367
      2 CAB        -6.9280   -1.9030   -1.1050 C.3       1 E3B         0.0091
      3 CAF        -0.7310   -0.6500    0.1720 C.ar      1 E3B        -0.0746
      4 CAG        -1.7560   -0.6660   -0.7730 C.ar      1 E3B        -0.0699
      5 CAH        -5.0520   -1.9610   -4.4360 C.ar      1 E3B        -0.0509
      6 CAI         0.1800   -1.6990    0.2480 C.ar      1 E3B        -0.0458
      7 CAJ        -3.7410   -1.9540   -4.8940 C.ar      1 E3B        -0.0247
      8 CAK        -0.9600   -2.7840   -1.5810 C.ar      1 E3B        -0.0400
      9 CAL        -4.2340   -1.8050   -2.1720 C.ar      1 E3B        -0.0426
     10 CAM        -1.2230   -2.1880   -5.7900 C.3       1 E3B         0.0699
     11 CAN         2.8040   -4.8670    0.7000 C.3       1 E3B        -0.0278
     12 CAO         2.2570   -3.5920    0.0690 C.3       1 E3B         0.0270
     13 CAP         2.7040   -6.0230   -0.2810 C.3       1 E3B         0.0145
     14 CAQ         0.6590   -5.0570   -1.3070 C.3       1 E3B         0.0899
     15 CAS        -6.6490   -1.9290   -2.6200 C.2       1 E3B         0.1221
     16 CAT        -5.3120   -1.8810   -3.0630 C.ar      1 E3B         0.0222
     17 CAU        -1.8700   -1.7270   -1.6730 C.ar      1 E3B        -0.0323
     18 CAV         0.0580   -2.7740   -0.6320 C.ar      1 E3B         0.0387
     19 CAW        -2.6800   -1.8740   -3.9930 C.ar      1 E3B         0.1072
     20 CAX        -2.9100   -1.7860   -2.6180 C.ar      1 E3B         0.0161
     21 CAZ         1.2380   -6.2580   -0.5870 C.3       1 E3B         0.2680
     22 FAD         0.5450   -6.4860    0.5730 F         1 E3B        -0.2035
     23 FAE         1.1010   -7.2980   -1.3660 F         1 E3B        -0.2035
     24 NAY         0.9400   -3.7900   -0.5870 N.pl3     1 E3B        -0.3036
     25 OAC        -7.5740   -2.1480   -3.4130 O.2       1 E3B        -0.3840
     26 OAR        -1.3770   -1.8590   -4.4040 O.3       1 E3B        -0.3119
     27 H1         -0.6803   -3.9168   -6.9705 H         1 E3B         0.0256
     28 H2         -1.5730   -4.2963   -5.4587 H         1 E3B         0.0256
     29 H3          0.1534   -3.8058   -5.3833 H         1 E3B         0.0256
     30 H4         -8.0133   -1.9467   -0.9313 H         1 E3B         0.0448
     31 H5         -6.5247   -0.9749   -0.6737 H         1 E3B         0.0448
     32 H6         -6.4453   -2.7689   -0.6283 H         1 E3B         0.0448
     33 H7         -0.6429    0.1878    0.8542 H         1 E3B         0.0580
     34 H8         -2.4685    0.1502   -0.8091 H         1 E3B         0.0498
     35 H9         -5.8728   -2.0283   -5.1408 H         1 E3B         0.0648
     36 H10         0.9761   -1.6808    0.9835 H         1 E3B         0.0504
     37 H11        -3.5415   -2.0111   -5.9580 H         1 E3B         0.0558
     38 H12        -1.0486   -3.6248   -2.2595 H         1 E3B         0.0499
     39 H13        -4.4323   -1.7597   -1.1073 H         1 E3B         0.0653
     40 H14        -2.1781   -2.0351   -6.3138 H         1 E3B         0.0616
     41 H15        -0.4517   -1.5446   -6.2384 H         1 E3B         0.0616
     42 H16         2.2214   -5.1048    1.6022 H         1 E3B         0.0286
     43 H17         3.8581   -4.7134    0.9741 H         1 E3B         0.0286
     44 H18         2.9750   -3.2380   -0.6854 H         1 E3B         0.0513
     45 H19         2.1463   -2.8309    0.8554 H         1 E3B         0.0513
     46 H20         3.1413   -6.9286    0.1646 H         1 E3B         0.0324
     47 H21         3.2424   -5.7733   -1.2071 H         1 E3B         0.0324
     48 H22        -0.4304   -5.1840   -1.3907 H         1 E3B         0.0572
     49 H23         1.0999   -4.9992   -2.3131 H         1 E3B         0.0572
@<TRIPOS>BOND
     1   10    1 1  
     2   15    2 1  
     3    4    3 ar 
     4    3    6 ar 
     5   17    4 ar 
     6    7    5 ar 
     7    5   16 ar 
     8   18    6 ar 
     9   19    7 ar 
    10   17    8 ar 
    11    8   18 ar 
    12    9   16 ar 
    13   20    9 ar 
    14   26   10 1  
    15   12   11 1  
    16   11   13 1  
    17   24   12 1  
    18   21   13 1  
    19   14   21 1  
    20   24   14 1  
    21   16   15 1  
    22   15   25 2  
    23   20   17 1  
    24   18   24 1  
    25   19   20 ar 
    26   19   26 1  
    27   21   22 1  
    28   21   23 1  
    29    1   27 1  
    30    1   28 1  
    31    1   29 1  
    32    2   30 1  
    33    2   31 1  
    34    2   32 1  
    35    3   33 1  
    36    4   34 1  
    37    5   35 1  
    38    6   36 1  
    39    7   37 1  
    40    8   38 1  
    41    9   39 1  
    42   10   40 1  
    43   10   41 1  
    44   11   42 1  
    45   11   43 1  
    46   12   44 1  
    47   12   45 1  
    48   13   46 1  
    49   13   47 1  
    50   14   48 1  
    51   14   49 1  
@<TRIPOS>SUBSTRUCTURE
     1 E3B         1

