### 
### Created by X-TOOL on Wed Jan  1 15:39:36 2020
### 

@<TRIPOS>MOLECULE
6fr0_ligand
   61    64     1     0     0
SMALL
GAST_HUCK


@<TRIPOS>ATOM
      1 CAA       -14.5480  -17.3810    3.4160 C.3       1 E3H        -0.0367
      2 CAB       -20.4610  -11.8680   -4.6810 C.3       1 E3H        -0.0409
      3 CAC       -10.4420  -12.4600   -1.4980 C.3       1 E3H         0.0091
      4 CAD       -15.6110  -12.2370   -3.0850 C.3       1 E3H         0.0199
      5 CAH       -15.2880  -22.3950   -5.6540 C.2       1 E3H        -0.0557
      6 CAI       -14.4020  -23.0540   -4.9060 C.2       1 E3H         0.0866
      7 CAJ       -15.3750  -21.1270   -5.2050 C.2       1 E3H        -0.0431
      8 CAK       -11.1190  -14.8190    1.4060 C.ar      1 E3H        -0.0509
      9 CAL       -12.0090  -15.8440    1.7320 C.ar      1 E3H        -0.0247
     10 CAM       -14.1560  -17.2570   -1.9630 C.ar      1 E3H        -0.0471
     11 CAN       -16.0720  -16.6370   -3.2940 C.ar      1 E3H        -0.0523
     12 CAO       -15.1240  -15.0710   -1.7560 C.ar      1 E3H        -0.0800
     13 CAP       -12.2480  -14.5770   -0.7090 C.ar      1 E3H        -0.0428
     14 CAQ       -13.6470  -17.9290    2.3120 C.3       1 E3H         0.0699
     15 CAR       -20.3640  -13.2870   -4.1280 C.3       1 E3H         0.0678
     16 CAW       -10.2890  -13.1720   -0.1490 C.2       1 E3H         0.1221
     17 CAX       -14.3240  -19.8810   -3.4170 C.2       1 E3H         0.2554
     18 CAY       -15.1090  -17.6050   -2.9330 C.ar      1 E3H         0.0524
     19 CAZ       -11.2320  -14.1730    0.1730 C.ar      1 E3H         0.0222
     20 CBA       -14.1460  -15.9810   -1.3500 C.ar      1 E3H        -0.0445
     21 CBB       -16.1040  -15.3580   -2.7190 C.ar      1 E3H        -0.0568
     22 CBC       -16.8730  -13.0950   -3.2700 C.2       1 E3H         0.1530
     23 CBD       -13.0240  -16.2220    0.8430 C.ar      1 E3H         0.1070
     24 CBE       -14.5540  -20.9820   -4.1650 C.2       1 E3H         0.1903
     25 CBF       -13.1610  -15.6020   -0.3950 C.ar      1 E3H         0.0134
     26 CBG       -17.0530  -14.4330   -3.0970 C.2       1 E3H         0.0654
     27 CBH       -18.3530  -14.6710   -3.3970 C.2       1 E3H         0.2003
     28 NAS       -15.1780  -18.8260   -3.5800 N.am      1 E3H        -0.2362
     29 NBI       -18.9730  -13.5390   -3.7360 N.am      1 E3H        -0.1182
     30 OAE        -9.3130  -12.9160    0.5670 O.2       1 E3H        -0.3840
     31 OAF       -13.3770  -19.9020   -2.6440 O.2       1 E3H        -0.3786
     32 OAG       -18.9360  -15.7610   -3.3700 O.2       1 E3H        -0.4205
     33 OAT       -13.9340  -17.2300    1.1000 O.3       1 E3H        -0.3119
     34 OAU       -13.9200  -22.1260   -3.9610 O.3       1 E3H        -0.2500
     35 OAV       -18.0410  -12.5020   -3.6570 O.3       1 E3H        -0.1497
     36 H1        -14.3382  -17.9105    4.3571 H         1 E3H         0.0256
     37 H2        -15.6016  -17.5312    3.1378 H         1 E3H         0.0256
     38 H3        -14.3534  -16.3065    3.5486 H         1 E3H         0.0256
     39 H4        -21.4991  -11.6614   -4.9805 H         1 E3H         0.0251
     40 H5        -19.8006  -11.7692   -5.5551 H         1 E3H         0.0251
     41 H6        -20.1533  -11.1506   -3.9060 H         1 E3H         0.0251
     42 H7         -9.6432  -11.7121   -1.6105 H         1 E3H         0.0448
     43 H8        -11.4209  -11.9600   -1.5398 H         1 E3H         0.0448
     44 H9        -10.3715  -13.1969   -2.3116 H         1 E3H         0.0448
     45 H10       -15.8440  -11.1874   -3.3173 H         1 E3H         0.0520
     46 H11       -14.8213  -12.5957   -3.7616 H         1 E3H         0.0520
     47 H12       -15.2647  -12.3139   -2.0438 H         1 E3H         0.0520
     48 H13       -15.8484  -22.8123   -6.4893 H         1 E3H         0.0364
     49 H14       -14.1099  -24.0984   -5.0053 H         1 E3H         0.1039
     50 H15       -16.0116  -20.3487   -5.6233 H         1 E3H         0.0434
     51 H16       -10.3447  -14.5262    2.1059 H         1 E3H         0.0648
     52 H17       -11.9137  -16.3535    2.6841 H         1 E3H         0.0558
     53 H18       -13.4068  -17.9856   -1.6753 H         1 E3H         0.0408
     54 H19       -16.8134  -16.8917   -4.0427 H         1 E3H         0.0388
     55 H20       -15.1266  -14.0868   -1.3016 H         1 E3H         0.0391
     56 H21       -12.3324  -14.0803   -1.6688 H         1 E3H         0.0653
     57 H22       -13.8405  -19.0031    2.1749 H         1 E3H         0.0616
     58 H23       -12.5923  -17.7784    2.5856 H         1 E3H         0.0616
     59 H24       -20.6683  -14.0082   -4.9009 H         1 E3H         0.0561
     60 H25       -21.0209  -13.3896   -3.2517 H         1 E3H         0.0561
     61 H26       -15.9267  -18.9490   -4.2314 H         1 E3H         0.2241
@<TRIPOS>BOND
     1   14    1 1  
     2   15    2 1  
     3   16    3 1  
     4   22    4 1  
     5    6    5 2  
     6    7    5 1  
     7   34    6 1  
     8   24    7 2  
     9    9    8 ar 
    10   19    8 ar 
    11   23    9 ar 
    12   18   10 ar 
    13   20   10 ar 
    14   11   18 ar 
    15   21   11 ar 
    16   12   20 ar 
    17   21   12 ar 
    18   13   19 ar 
    19   25   13 ar 
    20   33   14 1  
    21   29   15 1  
    22   19   16 1  
    23   16   30 2  
    24   17   24 1  
    25   28   17 am 
    26   17   31 2  
    27   18   28 1  
    28   20   25 1  
    29   26   21 1  
    30   26   22 2  
    31   22   35 1  
    32   25   23 ar 
    33   23   33 1  
    34   24   34 1  
    35   27   26 1  
    36   27   29 am 
    37   27   32 2  
    38   29   35 1  
    39    1   36 1  
    40    1   37 1  
    41    1   38 1  
    42    2   39 1  
    43    2   40 1  
    44    2   41 1  
    45    3   42 1  
    46    3   43 1  
    47    3   44 1  
    48    4   45 1  
    49    4   46 1  
    50    4   47 1  
    51    5   48 1  
    52    6   49 1  
    53    7   50 1  
    54    8   51 1  
    55    9   52 1  
    56   10   53 1  
    57   11   54 1  
    58   12   55 1  
    59   13   56 1  
    60   14   57 1  
    61   14   58 1  
    62   15   59 1  
    63   15   60 1  
    64   28   61 1  
@<TRIPOS>SUBSTRUCTURE
     1 E3H         1

