### 
### Created by X-TOOL on Wed Jan  1 15:39:35 2020
### 

@<TRIPOS>MOLECULE
6fr2_ligand
   63    65     1     0     0
SMALL
GAST_HUCK


@<TRIPOS>ATOM
      1 C10       -10.5200  -30.2570  -33.8200 C.3       1 E3N         0.0319
      2 C13        -9.6250  -33.2370  -35.2680 C.3       1 E3N         0.0901
      3 C15       -10.9830  -33.1240  -34.6140 C.3       1 E3N        -0.0414
      4 C20       -12.5720  -27.3630  -35.5640 C.3       1 E3N        -0.0007
      5 C22       -15.9290  -24.3690  -39.0540 C.3       1 E3N         0.0599
      6 C24       -18.0220  -24.6960  -37.6780 C.ar      1 E3N        -0.0668
      7 C26       -20.2050  -24.0380  -38.4300 C.ar      1 E3N         0.0934
      8 C28       -22.3060  -24.7830  -37.5520 C.3       1 E3N         0.5451
      9 C02       -14.0570  -25.2010  -37.5750 C.2       1 E3N         0.2593
     10 C04       -12.1670  -25.9750  -36.0510 C.3       1 E3N         0.0471
     11 C05       -11.3580  -25.3550  -34.9140 C.3       1 E3N        -0.0065
     12 C06       -10.1640  -26.1940  -34.5900 C.3       1 E3N         0.0504
     13 C08       -11.4360  -28.2060  -35.0480 C.3       1 E3N         0.0745
     14 C09       -11.7460  -29.4880  -34.3500 C.3       1 E3N        -0.0065
     15 C14        -9.8950  -33.4490  -36.7450 C.3       1 E3N        -0.0414
     16 C18        -9.2700  -29.4340  -35.7680 C.3       1 E3N         0.0319
     17 C19       -10.4690  -28.5880  -36.1330 C.3       1 E3N        -0.0065
     18 C23       -17.3970  -24.2590  -38.8220 C.ar      1 E3N        -0.0320
     19 C25       -19.3980  -24.5970  -37.4620 C.ar      1 E3N        -0.0392
     20 C32       -19.6150  -23.5930  -39.5700 C.ar      1 E3N        -0.0392
     21 C33       -18.2460  -23.7030  -39.7370 C.ar      1 E3N        -0.0668
     22 F29       -22.2030  -26.0090  -37.9880 F         1 E3N        -0.1402
     23 F30       -23.5830  -24.4070  -37.6280 F         1 E3N        -0.1402
     24 F31       -22.0800  -24.8490  -36.2540 F         1 E3N        -0.1402
     25 N03       -13.2780  -25.1400  -36.4330 N.am      1 E3N        -0.2699
     26 N11        -9.4490  -30.5600  -34.8110 N.am      1 E3N        -0.2380
     27 N21       -15.0910  -24.3340  -37.8820 N.am      1 E3N        -0.2635
     28 O01       -13.7920  -26.0840  -38.3680 O.2       1 E3N        -0.4007
     29 O07       -10.5010  -27.4880  -34.3330 O.3       1 E3N        -0.3731
     30 O16        -7.7580  -31.8220  -36.0200 O.2       1 E3N        -0.1551
     31 O17        -7.9540  -32.1730  -33.7020 O.2       1 E3N        -0.1551
     32 O27       -21.5510  -23.8910  -38.2630 O.3       1 E3N        -0.2304
     33 S12        -8.6050  -31.9590  -34.9230 S.o2      1 E3N         0.0437
     34 H1        -10.8764  -31.2133  -33.4096 H         1 E3N         0.0479
     35 H2        -10.0709  -29.6570  -33.0148 H         1 E3N         0.0479
     36 H3         -9.1325  -34.1410  -34.8804 H         1 E3N         0.0549
     37 H4        -11.5948  -33.9968  -34.8861 H         1 E3N         0.0248
     38 H5        -11.4807  -32.2056  -34.9587 H         1 E3N         0.0248
     39 H6        -10.8619  -33.0875  -33.5213 H         1 E3N         0.0248
     40 H7        -13.0410  -27.8972  -36.4035 H         1 E3N         0.0315
     41 H8        -13.3041  -27.2410  -34.7521 H         1 E3N         0.0315
     42 H9        -15.6294  -23.5342  -39.7047 H         1 E3N         0.0659
     43 H10       -15.7422  -25.3220  -39.5707 H         1 E3N         0.0659
     44 H11       -17.4126  -25.1422  -36.9004 H         1 E3N         0.0531
     45 H12       -11.5198  -26.0874  -36.9333 H         1 E3N         0.0554
     46 H13       -11.9949  -25.2748  -34.0208 H         1 E3N         0.0309
     47 H14       -11.0221  -24.3521  -35.2161 H         1 E3N         0.0309
     48 H15        -9.6659  -25.7746  -33.7034 H         1 E3N         0.0561
     49 H16        -9.4719  -26.1709  -35.4447 H         1 E3N         0.0561
     50 H17       -12.4013  -29.2612  -33.4961 H         1 E3N         0.0309
     51 H18       -12.2782  -30.1410  -35.0573 H         1 E3N         0.0309
     52 H19       -10.5720  -34.3063  -36.8746 H         1 E3N         0.0248
     53 H20        -8.9470  -33.6484  -37.2661 H         1 E3N         0.0248
     54 H21       -10.3619  -32.5462  -37.1657 H         1 E3N         0.0248
     55 H22        -8.5180  -28.7583  -35.3345 H         1 E3N         0.0479
     56 H23        -8.8813  -29.8637  -36.7030 H         1 E3N         0.0479
     57 H24       -10.0860  -27.6539  -36.5699 H         1 E3N         0.0309
     58 H25       -11.0377  -29.1426  -36.8939 H         1 E3N         0.0309
     59 H26       -19.8304  -24.9586  -36.5360 H         1 E3N         0.0525
     60 H27       -20.2199  -23.1495  -40.3527 H         1 E3N         0.0525
     61 H28       -17.8175  -23.3219  -40.6569 H         1 E3N         0.0531
     62 H29       -13.5187  -24.4181  -35.7842 H         1 E3N         0.1848
     63 H30       -15.2762  -23.6067  -37.2211 H         1 E3N         0.1869
@<TRIPOS>BOND
     1    1   14 1  
     2   26    1 1  
     3    2    3 1  
     4    2   15 1  
     5   33    2 1  
     6    4   10 1  
     7   13    4 1  
     8    5   18 1  
     9   27    5 1  
    10   18    6 ar 
    11    6   19 ar 
    12   19    7 ar 
    13   20    7 ar 
    14    7   32 1  
    15    8   22 1  
    16    8   23 1  
    17    8   24 1  
    18   32    8 1  
    19   25    9 am 
    20    9   27 am 
    21    9   28 2  
    22   10   11 1  
    23   10   25 1  
    24   12   11 1  
    25   29   12 1  
    26   14   13 1  
    27   17   13 1  
    28   13   29 1  
    29   16   17 1  
    30   26   16 1  
    31   18   21 ar 
    32   21   20 ar 
    33   26   33 am 
    34   33   30 2  
    35   33   31 2  
    36    1   34 1  
    37    1   35 1  
    38    2   36 1  
    39    3   37 1  
    40    3   38 1  
    41    3   39 1  
    42    4   40 1  
    43    4   41 1  
    44    5   42 1  
    45    5   43 1  
    46    6   44 1  
    47   10   45 1  
    48   11   46 1  
    49   11   47 1  
    50   12   48 1  
    51   12   49 1  
    52   14   50 1  
    53   14   51 1  
    54   15   52 1  
    55   15   53 1  
    56   15   54 1  
    57   16   55 1  
    58   16   56 1  
    59   17   57 1  
    60   17   58 1  
    61   19   59 1  
    62   20   60 1  
    63   21   61 1  
    64   25   62 1  
    65   27   63 1  
@<TRIPOS>SUBSTRUCTURE
     1 E3N         1

