### 
### Created by X-TOOL on Wed Jan  1 15:39:36 2020
### 

@<TRIPOS>MOLECULE
6frf_ligand
   57    60     1     0     0
SMALL
GAST_HUCK


@<TRIPOS>ATOM
      1 CAA       -16.3600   -4.5920   15.1970 C.3       1 E3T        -0.0367
      2 CAB       -12.6330   -3.4780   22.4380 C.3       1 E3T         0.0091
      3 CAC       -14.3630    3.8250   17.4960 C.3       1 E3T        -0.0269
      4 CAD       -15.6830   -0.1340   14.5080 C.3       1 E3T         0.0132
      5 CAG       -20.4810    3.2480   22.5140 C.2       1 E3T        -0.0557
      6 CAH       -21.1810    2.1840   22.9240 C.2       1 E3T         0.0866
      7 CAI       -19.4530    2.8300   21.7710 C.2       1 E3T        -0.0431
      8 CAJ       -13.9470   -5.0290   19.2030 C.ar      1 E3T        -0.0509
      9 CAK       -14.6810   -4.6800   18.0760 C.ar      1 E3T        -0.0247
     10 CAL       -16.3540   -0.5790   19.7470 C.ar      1 E3T        -0.0437
     11 CAM       -16.3750    1.4280   18.4140 C.ar      1 E3T        -0.0473
     12 CAN       -15.0830   -0.4230   17.6890 C.ar      1 E3T        -0.0754
     13 CAO       -14.2550   -2.8040   20.1060 C.ar      1 E3T        -0.0428
     14 CAP       -15.4240   -3.4900   15.6640 C.3       1 E3T         0.0699
     15 CAV       -12.9590   -4.5050   21.3250 C.2       1 E3T         0.1221
     16 CAW       -18.6450    0.7160   21.0350 C.2       1 E3T         0.2555
     17 CAX       -16.8010    0.7310   19.5440 C.ar      1 E3T         0.0563
     18 CAY       -13.7310   -4.0970   20.2250 C.ar      1 E3T         0.0222
     19 CAZ       -14.6470    2.8750   16.3270 C.2       1 E3T         0.0232
     20 CBA       -15.5030   -1.1570   18.8070 C.ar      1 E3T        -0.0409
     21 CBB       -15.5060    0.8880   17.4580 C.ar      1 E3T        -0.0546
     22 CBC       -15.2070    1.2090   15.0700 C.2       1 E3T         0.1465
     23 CBD       -19.4900    1.5010   21.7140 C.2       1 E3T         0.1903
     24 CBE       -15.1970   -3.3880   17.9660 C.ar      1 E3T         0.1071
     25 CBF       -15.0000   -2.4510   18.9710 C.ar      1 E3T         0.0141
     26 CBG       -15.1310    1.6080   16.3580 C.2       1 E3T         0.0168
     27 NAQ       -14.4100    3.2650   15.0740 N.2       1 E3T        -0.1672
     28 NAR       -17.6530    1.3770   20.3620 N.am      1 E3T        -0.2354
     29 OAE       -12.4810   -5.6370   21.3630 O.2       1 E3T        -0.3840
     30 OAF       -18.8400   -0.5040   21.0270 O.2       1 E3T        -0.3786
     31 OAS       -15.9350   -2.9700   16.8990 O.3       1 E3T        -0.3119
     32 OAT       -20.5450    1.0430   22.4090 O.3       1 E3T        -0.2500
     33 OAU       -14.7690    2.2000   14.2430 O.3       1 E3T        -0.1733
     34 H1        -15.9905   -5.0095   14.2488 H         1 E3T         0.0256
     35 H2        -17.3680   -4.1779   15.0472 H         1 E3T         0.0256
     36 H3        -16.3991   -5.3864   15.9569 H         1 E3T         0.0256
     37 H4        -12.0249   -3.9618   23.2166 H         1 E3T         0.0448
     38 H5        -13.5693   -3.1080   22.8812 H         1 E3T         0.0448
     39 H6        -12.0732   -2.6351   22.0066 H         1 E3T         0.0448
     40 H7        -13.9747    4.7782   17.1078 H         1 E3T         0.0379
     41 H8        -13.6173    3.3706   18.1650 H         1 E3T         0.0379
     42 H9        -15.2931    4.0080   18.0541 H         1 E3T         0.0379
     43 H10       -15.6128   -0.1177   13.4104 H         1 E3T         0.0469
     44 H11       -16.7277   -0.3067   14.8060 H         1 E3T         0.0469
     45 H12       -15.0504   -0.9421   14.9039 H         1 E3T         0.0469
     46 H13       -20.7120    4.2862   22.7481 H         1 E3T         0.0364
     47 H14       -22.0774    2.2000   23.5422 H         1 E3T         0.1039
     48 H15       -18.7110    3.4680   21.2932 H         1 E3T         0.0434
     49 H16       -13.5390   -6.0294   19.2914 H         1 E3T         0.0648
     50 H17       -14.8514   -5.4053   17.2887 H         1 E3T         0.0558
     51 H18       -16.6652   -1.1365   20.6230 H         1 E3T         0.0435
     52 H19       -16.7351    2.4400   18.2681 H         1 E3T         0.0422
     53 H20       -14.4075   -0.8883   16.9802 H         1 E3T         0.0422
     54 H21       -14.0850   -2.0759   20.8908 H         1 E3T         0.0653
     55 H22       -15.3835   -2.6899   14.9102 H         1 E3T         0.0616
     56 H23       -14.4146   -3.8984   15.8199 H         1 E3T         0.0616
     57 H24       -17.5588    2.3654   20.4811 H         1 E3T         0.2242
@<TRIPOS>BOND
     1   14    1 1  
     2   15    2 1  
     3   19    3 1  
     4   22    4 1  
     5    6    5 2  
     6    7    5 1  
     7   32    6 1  
     8   23    7 2  
     9    9    8 ar 
    10    8   18 ar 
    11   24    9 ar 
    12   10   17 ar 
    13   20   10 ar 
    14   17   11 ar 
    15   21   11 ar 
    16   20   12 ar 
    17   12   21 ar 
    18   13   18 ar 
    19   25   13 ar 
    20   31   14 1  
    21   18   15 1  
    22   15   29 2  
    23   16   23 1  
    24   28   16 am 
    25   16   30 2  
    26   17   28 1  
    27   26   19 1  
    28   19   27 2  
    29   25   20 1  
    30   21   26 1  
    31   26   22 2  
    32   22   33 1  
    33   23   32 1  
    34   24   25 ar 
    35   24   31 1  
    36   27   33 1  
    37    1   34 1  
    38    1   35 1  
    39    1   36 1  
    40    2   37 1  
    41    2   38 1  
    42    2   39 1  
    43    3   40 1  
    44    3   41 1  
    45    3   42 1  
    46    4   43 1  
    47    4   44 1  
    48    4   45 1  
    49    5   46 1  
    50    6   47 1  
    51    7   48 1  
    52    8   49 1  
    53    9   50 1  
    54   10   51 1  
    55   11   52 1  
    56   12   53 1  
    57   13   54 1  
    58   14   55 1  
    59   14   56 1  
    60   28   57 1  
@<TRIPOS>SUBSTRUCTURE
     1 E3T         1

