### 
### Created by X-TOOL on Wed Jan  1 15:39:37 2020
### 

@<TRIPOS>MOLECULE
6fs1_ligand
   77    82     1     0     0
SMALL
GAST_HUCK


@<TRIPOS>ATOM
      1 C1          9.2420    3.3240   28.3930 C.2       1 E4Q         0.0594
      2 C2         10.3830    2.5910   28.5340 C.2       1 E4Q        -0.0483
      3 C3         11.2370    3.3470   29.3510 C.2       1 E4Q         0.0032
      4 C7         12.6380   -0.1170   31.5300 C.2       1 E4Q         0.0180
      5 C8         12.8280   -0.9480   30.3850 C.2       1 E4Q         0.0030
      6 C9         13.8980   -1.7700   30.6900 C.2       1 E4Q         0.0753
      7 C10        15.3900   -1.8870   32.8170 C.3       1 E4Q         0.0567
      8 C11        14.5480   -2.8340   29.8670 C.3       1 E4Q         0.0006
      9 C12        12.0670   -0.9120   29.1110 C.ar      1 E4Q        -0.0209
     10 C13        10.7160   -1.2590   29.1060 C.ar      1 E4Q        -0.0795
     11 C14         9.9990   -1.2910   27.9170 C.ar      1 E4Q        -0.0865
     12 C15        10.6090   -0.9660   26.7130 C.ar      1 E4Q        -0.0804
     13 C16        11.9480   -0.5800   26.6910 C.ar      1 E4Q        -0.0217
     14 C19        12.8480   -0.1450   25.6510 C.2       1 E4Q        -0.0304
     15 C20        12.5180   -0.0840   24.1780 C.3       1 E4Q        -0.0296
     16 C21        12.0610    1.2880   23.6680 C.3       1 E4Q        -0.0191
     17 C22        10.6580    1.6410   24.0780 C.3       1 E4Q         0.0736
     18 C24         7.8100    1.9120   24.4090 C.ar      1 E4Q        -0.0340
     19 C27         6.1810   -0.1910   23.5020 C.ar      1 E4Q        -0.0261
     20 C30         7.2870   -2.2940   22.0250 C.ar      1 E4Q        -0.0633
     21 C31         5.9250   -2.2590   22.2720 C.ar      1 E4Q        -0.0640
     22 C32         5.3710   -1.2390   22.9960 C.ar      1 E4Q        -0.0587
     23 C33        15.3430    0.6150   25.7520 C.2       1 E4Q         0.0759
     24 O1         16.3640    0.5480   26.4250 O.co2     1 E4Q        -0.5636
     25 O2         15.3360    1.0590   24.5300 O.co2     1 E4Q        -0.5636
     26 C18        14.0630    0.1080   26.2550 C.2       1 E4Q         0.0868
     27 O           9.7310    0.6740   23.5330 O.3       1 E4Q        -0.3129
     28 C23         8.3870    0.8430   23.7480 C.ar      1 E4Q         0.1043
     29 C28         7.5860   -0.2310   23.2610 C.ar      1 E4Q         0.0178
     30 C29         8.1110   -1.3170   22.5130 C.ar      1 E4Q        -0.0532
     31 C26         5.6340    0.9150   24.2010 C.ar      1 E4Q        -0.0685
     32 C25         6.4370    1.9350   24.6240 C.ar      1 E4Q        -0.0744
     33 N4         13.9770   -0.1450   27.6090 N.pl3     1 E4Q        -0.2817
     34 C17        12.6860   -0.5590   27.8930 C.ar      1 E4Q         0.0619
     35 N2         14.2940   -1.3970   31.9880 N.pl3     1 E4Q        -0.2131
     36 N3         13.5110   -0.3970   32.4690 N.2       1 E4Q        -0.2358
     37 C6         11.6670    0.9990   31.7030 C.3       1 E4Q         0.0315
     38 S          12.5330    2.5960   31.6760 S.3       1 E4Q        -0.1357
     39 C5         12.5540    2.8970   29.8880 C.3       1 E4Q         0.0292
     40 N          10.6810    4.4970   29.6880 N.2       1 E4Q        -0.2421
     41 N1          9.4450    4.4680   29.0950 N.pl3     1 E4Q        -0.2190
     42 C4          8.5430    5.5930   29.3050 C.3       1 E4Q         0.0553
     43 C           7.9650    3.0180   27.6850 C.3       1 E4Q        -0.0034
     44 H1         10.5900    1.6142   28.0994 H         1 E4Q         0.0216
     45 H2         15.3878   -1.3548   33.7797 H         1 E4Q         0.0591
     46 H3         16.3461   -1.7104   32.3026 H         1 E4Q         0.0591
     47 H4         15.2624   -2.9652   32.9938 H         1 E4Q         0.0591
     48 H5         14.0344   -2.9126   28.8974 H         1 E4Q         0.0452
     49 H6         14.4836   -3.7968   30.3951 H         1 E4Q         0.0452
     50 H7         15.6046   -2.5761   29.7023 H         1 E4Q         0.0452
     51 H8         10.2213   -1.5059   30.0384 H         1 E4Q         0.0461
     52 H9          8.9523   -1.5726   27.9292 H         1 E4Q         0.0494
     53 H10        10.0435   -1.0125   25.7894 H         1 E4Q         0.0483
     54 H11        11.7126   -0.8064   23.9794 H         1 E4Q         0.0368
     55 H12        13.4176   -0.3739   23.6153 H         1 E4Q         0.0368
     56 H13        12.1131    1.2866   22.5692 H         1 E4Q         0.0308
     57 H14        12.7435    2.0531   24.0665 H         1 E4Q         0.0308
     58 H15        10.4072    2.6421   23.6975 H         1 E4Q         0.0620
     59 H16        10.5863    1.6373   25.1756 H         1 E4Q         0.0620
     60 H17         8.4278    2.7310   24.7590 H         1 E4Q         0.0499
     61 H18         7.7049   -3.1043   21.4386 H         1 E4Q         0.0591
     62 H19         5.2903   -3.0490   21.8872 H         1 E4Q         0.0614
     63 H20         4.3035   -1.2319   23.1845 H         1 E4Q         0.0599
     64 H21         9.1773   -1.3729   22.3262 H         1 E4Q         0.0631
     65 H22         4.5692    0.9509   24.4012 H         1 E4Q         0.0493
     66 H23         5.9945    2.7804   25.1383 H         1 E4Q         0.0581
     67 H24        14.7418   -0.0434   28.2914 H         1 E4Q         0.2208
     68 H25        11.1486    0.8833   32.6663 H         1 E4Q         0.0528
     69 H26        10.9318    0.9708   30.8853 H         1 E4Q         0.0528
     70 H27        13.3027    3.6738   29.6733 H         1 E4Q         0.0522
     71 H28        12.8380    1.9636   29.3800 H         1 E4Q         0.0522
     72 H29         9.0407    6.3506   29.9282 H         1 E4Q         0.0589
     73 H30         7.6316    5.2427   29.8115 H         1 E4Q         0.0589
     74 H31         8.2759    6.0351   28.3338 H         1 E4Q         0.0589
     75 H32         8.0450    2.0381   27.1917 H         1 E4Q         0.0437
     76 H33         7.7693    3.7937   26.9300 H         1 E4Q         0.0437
     77 H34         7.1391    2.9965   28.4112 H         1 E4Q         0.0437
@<TRIPOS>BOND
     1    2    1 2  
     2    1   41 1  
     3    1   43 1  
     4    3    2 1  
     5   39    3 1  
     6    3   40 2  
     7    4    5 1  
     8    4   36 2  
     9   37    4 1  
    10    5    6 2  
    11    5    9 1  
    12    6    8 1  
    13   35    6 1  
    14   35    7 1  
    15    9   10 ar 
    16    9   34 ar 
    17   10   11 ar 
    18   11   12 ar 
    19   13   12 ar 
    20   13   14 1  
    21   34   13 ar 
    22   14   15 1  
    23   26   14 2  
    24   15   16 1  
    25   16   17 1  
    26   17   27 1  
    27   28   18 ar 
    28   18   32 ar 
    29   19   22 ar 
    30   29   19 ar 
    31   19   31 ar 
    32   20   21 ar 
    33   30   20 ar 
    34   22   21 ar 
    35   23   24 ar 
    36   23   25 ar 
    37   26   23 1  
    38   33   26 1  
    39   27   28 1  
    40   28   29 ar 
    41   29   30 ar 
    42   32   31 ar 
    43   34   33 1  
    44   36   35 1  
    45   38   37 1  
    46   38   39 1  
    47   40   41 1  
    48   41   42 1  
    49    2   44 1  
    50    7   45 1  
    51    7   46 1  
    52    7   47 1  
    53    8   48 1  
    54    8   49 1  
    55    8   50 1  
    56   10   51 1  
    57   11   52 1  
    58   12   53 1  
    59   15   54 1  
    60   15   55 1  
    61   16   56 1  
    62   16   57 1  
    63   17   58 1  
    64   17   59 1  
    65   18   60 1  
    66   20   61 1  
    67   21   62 1  
    68   22   63 1  
    69   30   64 1  
    70   31   65 1  
    71   32   66 1  
    72   33   67 1  
    73   37   68 1  
    74   37   69 1  
    75   39   70 1  
    76   39   71 1  
    77   42   72 1  
    78   42   73 1  
    79   42   74 1  
    80   43   75 1  
    81   43   76 1  
    82   43   77 1  
@<TRIPOS>SUBSTRUCTURE
     1 E4Q         1

