### 
### Created by X-TOOL on Wed Jan  1 15:39:36 2020
### 

@<TRIPOS>MOLECULE
6fsd_ligand
   48    49     1     0     0
SMALL
GAST_HUCK


@<TRIPOS>ATOM
      1 O01        31.6230   20.5540    6.9210 O.2       1 E5H        -0.3941
      2 C02        32.0680   21.3130    7.8090 C.2       1 E5H         0.2067
      3 N03        31.3130   21.5790    9.0820 N.am      1 E5H        -0.2846
      4 C04        29.9650   20.9550    9.3920 C.3       1 E5H         0.0358
      5 C05        29.0860   21.5520   10.5450 C.3       1 E5H         0.0077
      6 C06        27.9960   20.5100   10.9520 C.3       1 E5H        -0.0300
      7 N07        27.2990   20.9520   12.2550 N.4       1 E5H         0.2353
      8 C08        25.9510   20.2020   12.1820 C.3       1 E5H        -0.0319
      9 C09        25.2670   20.0680   13.5680 C.3       1 E5H        -0.0123
     10 C10        26.1900   19.5000   14.6170 C.3       1 E5H        -0.0434
     11 C11        27.4680   20.3090   14.7310 C.3       1 E5H        -0.0123
     12 C12        28.2110   20.4750   13.3800 C.3       1 E5H        -0.0319
     13 C13        33.4790   22.0180    7.5470 C.3       1 E5H         0.1574
     14 O14        33.8430   23.1600    8.3880 O.3       1 E5H        -0.3021
     15 C15        35.0560   23.8750    8.1040 C.ar      1 E5H         0.0872
     16 C16        35.6440   24.7600    9.0500 C.ar      1 E5H        -0.0394
     17 C17        36.8480   25.4570    8.7540 C.ar      1 E5H        -0.0690
     18 C18        37.5970   25.3730    7.5500 C.ar      1 E5H        -0.0568
     19 C19        38.9010   26.1630    7.3020 C.3       1 E5H        -0.0363
     20 C25        36.9890   24.4810    6.6200 C.ar      1 E5H        -0.0690
     21 C26        35.7850   23.7730    6.8820 C.ar      1 E5H        -0.0394
     22 H1         31.7185   22.1963    9.7562 H         1 E5H         0.1851
     23 H2         30.1507   19.9005    9.6442 H         1 E5H         0.0522
     24 H3         29.3664   21.0118    8.4709 H         1 E5H         0.0522
     25 H4         28.6003   22.4755   10.1969 H         1 E5H         0.0336
     26 H5         29.7221   21.7772   11.4137 H         1 E5H         0.0336
     27 H6         28.4702   19.5298   11.1078 H         1 E5H         0.0815
     28 H7         27.2490   20.4324   10.1483 H         1 E5H         0.0815
     29 H8         27.1592   21.9488   12.3090 H         1 E5H         0.2033
     30 H9         26.1298   19.1944   11.7786 H         1 E5H         0.0814
     31 H10        25.2776   20.7525   11.5086 H         1 E5H         0.0814
     32 H11        24.3958   19.4039   13.4684 H         1 E5H         0.0317
     33 H12        24.9334   21.0641   13.8942 H         1 E5H         0.0317
     34 H13        26.4454   18.4650   14.3457 H         1 E5H         0.0269
     35 H14        25.6744   19.5078   15.5886 H         1 E5H         0.0269
     36 H15        28.1401   19.8023   15.4391 H         1 E5H         0.0317
     37 H16        27.2157   21.3081   15.1158 H         1 E5H         0.0317
     38 H17        29.0190   21.2096   13.5120 H         1 E5H         0.0814
     39 H18        28.6415   19.5038   13.0948 H         1 E5H         0.0814
     40 H19        33.4822   22.3660    6.5035 H         1 E5H         0.0856
     41 H20        34.2572   21.2522    7.6805 H         1 E5H         0.0856
     42 H21        35.1666   24.9055   10.0123 H         1 E5H         0.0525
     43 H22        37.2319   26.1175    9.5231 H         1 E5H         0.0530
     44 H23        39.2878   25.9268    6.2997 H         1 E5H         0.0370
     45 H24        39.6487   25.8834    8.0588 H         1 E5H         0.0370
     46 H25        38.6952   27.2414    7.3708 H         1 E5H         0.0370
     47 H26        37.4712   24.3344    5.6603 H         1 E5H         0.0530
     48 H27        35.3986   23.1182    6.1094 H         1 E5H         0.0525
@<TRIPOS>BOND
     1    1    2 2  
     2    2    3 am 
     3    2   13 1  
     4    3    4 1  
     5    4    5 1  
     6    5    6 1  
     7    6    7 1  
     8    7    8 1  
     9    7   12 1  
    10    8    9 1  
    11    9   10 1  
    12   10   11 1  
    13   11   12 1  
    14   13   14 1  
    15   14   15 1  
    16   15   16 ar 
    17   15   21 ar 
    18   16   17 ar 
    19   17   18 ar 
    20   18   19 1  
    21   18   20 ar 
    22   20   21 ar 
    23    3   22 1  
    24    4   23 1  
    25    4   24 1  
    26    5   25 1  
    27    5   26 1  
    28    6   27 1  
    29    6   28 1  
    30    7   29 1  
    31    8   30 1  
    32    8   31 1  
    33    9   32 1  
    34    9   33 1  
    35   10   34 1  
    36   10   35 1  
    37   11   36 1  
    38   11   37 1  
    39   12   38 1  
    40   12   39 1  
    41   13   40 1  
    42   13   41 1  
    43   16   42 1  
    44   17   43 1  
    45   19   44 1  
    46   19   45 1  
    47   19   46 1  
    48   20   47 1  
    49   21   48 1  
@<TRIPOS>SUBSTRUCTURE
     1 E5H         1

