### 
### Created by X-TOOL on Wed Jan  1 15:39:37 2020
### 

@<TRIPOS>MOLECULE
6fse_ligand
   58    60     1     0     0
SMALL
GAST_HUCK


@<TRIPOS>ATOM
      1 O01        31.7200   22.0440    8.2350 O.2       1 E5K        -0.3939
      2 C02        31.7380   22.8090    9.2020 C.2       1 E5K         0.2091
      3 N03        30.5060   22.9250    9.9660 N.am      1 E5K        -0.2706
      4 C04        30.3310   23.8220   11.1810 C.3       1 E5K         0.0390
      5 C05        29.6130   23.1790   12.3900 C.3       1 E5K         0.0108
      6 C06        29.2530   22.2200    9.6610 C.3       1 E5K         0.0390
      7 C07        28.5680   21.5280   10.8610 C.3       1 E5K         0.0108
      8 C08        28.3010   22.5080   11.9940 C.3       1 E5K        -0.0167
      9 N09        27.8190   21.8350   13.2650 N.4       1 E5K         0.2449
     10 C10        28.7970   20.8370   13.7450 C.3       1 E5K         0.0097
     11 C11        28.1860   20.0430   14.9490 C.3       1 E5K         0.0094
     12 N12        26.8190   19.4940   14.6750 N.4       1 E5K         0.2425
     13 C13        26.2510   19.0260   15.9680 C.3       1 E5K        -0.0344
     14 C14        26.9230   17.7190   16.2990 C.3       1 E5K        -0.0245
     15 C15        25.9760   20.4630   14.1760 C.3       1 E5K         0.0094
     16 C16        26.5270   21.1660   12.9400 C.3       1 E5K         0.0097
     17 C17        33.1500   23.5920    9.5040 C.3       1 E5K         0.1576
     18 O18        34.2550   23.3720    8.5740 O.3       1 E5K        -0.3020
     19 C19        35.3250   24.3000    8.5030 C.ar      1 E5K         0.0872
     20 C20        36.0210   24.5540    7.3020 C.ar      1 E5K        -0.0394
     21 C21        37.0970   25.4780    7.2230 C.ar      1 E5K        -0.0690
     22 C22        37.6050   26.2440    8.2980 C.ar      1 E5K        -0.0568
     23 C23        38.8060   27.2610    8.1580 C.3       1 E5K        -0.0363
     24 C31        36.8850   25.9650    9.4860 C.ar      1 E5K        -0.0690
     25 C32        35.8040   25.0450    9.5970 C.ar      1 E5K        -0.0394
     26 H1         29.7485   24.7019   10.8706 H         1 E5K         0.0524
     27 H2         31.3301   24.1418   11.5120 H         1 E5K         0.0524
     28 H3         29.3998   23.9621   13.1324 H         1 E5K         0.0339
     29 H4         30.2769   22.4230   12.8347 H         1 E5K         0.0339
     30 H5         29.4726   21.4503    8.9065 H         1 E5K         0.0524
     31 H6         28.5458   22.9517    9.2433 H         1 E5K         0.0524
     32 H7         29.2218   20.7243   11.2307 H         1 E5K         0.0339
     33 H8         27.6118   21.0986   10.5275 H         1 E5K         0.0339
     34 H9         27.5643   23.2535   11.6601 H         1 E5K         0.0852
     35 H10        27.6760   22.5280   13.9828 H         1 E5K         0.2040
     36 H11        29.7137   21.3498   14.0716 H         1 E5K         0.0868
     37 H12        29.0380   20.1386   12.9300 H         1 E5K         0.0868
     38 H13        28.1220   20.7189   15.8144 H         1 E5K         0.0868
     39 H14        28.8560   19.2039   15.1878 H         1 E5K         0.0868
     40 H15        26.8843   18.7299   14.0208 H         1 E5K         0.2037
     41 H16        25.1652   18.8784   15.8719 H         1 E5K         0.0812
     42 H17        26.4522   19.7645   16.7580 H         1 E5K         0.0812
     43 H18        26.5303   17.3360   17.2524 H         1 E5K         0.0281
     44 H19        28.0082   17.8764   16.3862 H         1 E5K         0.0281
     45 H20        26.7212   16.9903   15.5001 H         1 E5K         0.0281
     46 H21        25.8078   21.2163   14.9597 H         1 E5K         0.0868
     47 H22        25.0191   19.9899   13.9106 H         1 E5K         0.0868
     48 H23        26.6909   20.4257   12.1431 H         1 E5K         0.0868
     49 H24        25.8030   21.9198   12.5971 H         1 E5K         0.0868
     50 H25        33.4924   23.2811   10.5020 H         1 E5K         0.0856
     51 H26        32.9341   24.6706    9.5099 H         1 E5K         0.0856
     52 H27        35.7230   24.0234    6.4049 H         1 E5K         0.0525
     53 H28        37.5693   25.6071    6.2559 H         1 E5K         0.0530
     54 H29        39.0072   27.7273    9.1338 H         1 E5K         0.0370
     55 H30        38.5438   28.0397    7.4267 H         1 E5K         0.0370
     56 H31        39.7032   26.7241    7.8162 H         1 E5K         0.0370
     57 H32        37.1814   26.4953   10.3838 H         1 E5K         0.0530
     58 H33        35.3307   24.9130   10.5632 H         1 E5K         0.0525
@<TRIPOS>BOND
     1    1    2 2  
     2    2    3 am 
     3    2   17 1  
     4    3    4 1  
     5    3    6 1  
     6    4    5 1  
     7    5    8 1  
     8    6    7 1  
     9    7    8 1  
    10    8    9 1  
    11    9   10 1  
    12    9   16 1  
    13   10   11 1  
    14   11   12 1  
    15   12   13 1  
    16   12   15 1  
    17   13   14 1  
    18   15   16 1  
    19   17   18 1  
    20   18   19 1  
    21   19   20 ar 
    22   19   25 ar 
    23   20   21 ar 
    24   21   22 ar 
    25   22   23 1  
    26   22   24 ar 
    27   24   25 ar 
    28    4   26 1  
    29    4   27 1  
    30    5   28 1  
    31    5   29 1  
    32    6   30 1  
    33    6   31 1  
    34    7   32 1  
    35    7   33 1  
    36    8   34 1  
    37    9   35 1  
    38   10   36 1  
    39   10   37 1  
    40   11   38 1  
    41   11   39 1  
    42   12   40 1  
    43   13   41 1  
    44   13   42 1  
    45   14   43 1  
    46   14   44 1  
    47   14   45 1  
    48   15   46 1  
    49   15   47 1  
    50   16   48 1  
    51   16   49 1  
    52   17   50 1  
    53   17   51 1  
    54   20   52 1  
    55   21   53 1  
    56   23   54 1  
    57   23   55 1  
    58   23   56 1  
    59   24   57 1  
    60   25   58 1  
@<TRIPOS>SUBSTRUCTURE
     1 E5K         1

