### 
### Created by X-TOOL on Mon Aug  2 16:13:25 2021
### 

@<TRIPOS>MOLECULE
6fsy_ligand
   38    40     1     0     0
SMALL
GAST_HUCK


@<TRIPOS>ATOM
      1 C4         32.5000   15.1440   -0.9330 C.3       1 E5Q         0.0133
      2 C14        27.6260   16.1080   -4.6230 C.ar      1 E5Q         0.0170
      3 C5         30.4190   18.8680    1.9890 C.3       1 E5Q        -0.0269
      4 C6         29.6140   16.1870    0.3770 C.ar      1 E5Q        -0.0549
      5 C11        28.7630   16.0060    1.4810 C.ar      1 E5Q        -0.0444
      6 C7         29.2310   15.7480   -0.8960 C.ar      1 E5Q        -0.0706
      7 C8         28.0080   15.1490   -1.0960 C.ar      1 E5Q        -0.0182
      8 C9         27.1360   15.0030    0.0130 C.ar      1 E5Q        -0.0346
      9 C10        27.5180   15.4410    1.2970 C.ar      1 E5Q         0.0742
     10 C12        27.6860   14.7220   -2.5200 C.3       1 E5Q         0.1244
     11 C13        27.1460   15.9010   -3.3310 C.ar      1 E5Q         0.0242
     12 N1         32.6570   18.1240    1.0050 N.2       1 E5Q        -0.1671
     13 N2         27.2150   17.1600   -5.3530 N.ar      1 E5Q        -0.3039
     14 C3         31.3060   17.9520    1.1860 C.2       1 E5Q         0.0232
     15 O1         33.1050   17.1210    0.2260 O.3       1 E5Q        -0.1732
     16 C1         32.1490   16.3200   -0.0520 C.2       1 E5Q         0.1465
     17 C2         30.9600   16.7900    0.5120 C.2       1 E5Q         0.0166
     18 O2         26.6700   15.3350    2.3800 O.3       1 E5Q        -0.3367
     19 O3         26.7300   13.7200   -2.4880 O.3       1 E5Q        -0.3661
     20 C15        26.2780   18.0050   -4.9390 C.ar      1 E5Q         0.0044
     21 C16        25.7830   17.8830   -3.6550 C.ar      1 E5Q        -0.0400
     22 C17        26.2250   16.8070   -2.8600 C.ar      1 E5Q        -0.0360
     23 H1         31.6023   14.5309   -1.1010 H         1 E5Q         0.0470
     24 H2         33.2729   14.5352   -0.4412 H         1 E5Q         0.0470
     25 H3         32.8803   15.5096   -1.8983 H         1 E5Q         0.0470
     26 H4         28.3408   15.4111   -5.0455 H         1 E5Q         0.0770
     27 H5         29.3856   18.4917    1.9647 H         1 E5Q         0.0379
     28 H6         30.4510   19.8797    1.5584 H         1 E5Q         0.0379
     29 H7         30.7727   18.9012    3.0300 H         1 E5Q         0.0379
     30 H8         29.0832   16.3087    2.4714 H         1 E5Q         0.0421
     31 H9         29.9055   15.8814   -1.7340 H         1 E5Q         0.0407
     32 H10        26.1623   14.5483   -0.1289 H         1 E5Q         0.0431
     33 H11        28.6006   14.3423   -2.9989 H         1 E5Q         0.0930
     34 H12        26.4498   14.4215    2.5202 H         1 E5Q         0.2476
     35 H13        27.0603   12.9847   -1.9852 H         1 E5Q         0.2163
     36 H14        25.9065   18.7800   -5.5996 H         1 E5Q         0.0768
     37 H15        25.0691   18.6005   -3.2670 H         1 E5Q         0.0693
     38 H16        25.8311   16.6910   -1.8568 H         1 E5Q         0.0682
@<TRIPOS>BOND
     1   16    1 1  
     2   11    2 ar 
     3    2   13 ar 
     4   14    3 1  
     5    4    5 ar 
     6    4    6 ar 
     7   17    4 1  
     8    5    9 ar 
     9    6    7 ar 
    10    7    8 ar 
    11    7   10 1  
    12    9    8 ar 
    13    9   18 1  
    14   10   11 1  
    15   10   19 1  
    16   11   22 ar 
    17   12   14 2  
    18   15   12 1  
    19   13   20 ar 
    20   14   17 1  
    21   15   16 1  
    22   16   17 2  
    23   20   21 ar 
    24   21   22 ar 
    25    1   23 1  
    26    1   24 1  
    27    1   25 1  
    28    2   26 1  
    29    3   27 1  
    30    3   28 1  
    31    3   29 1  
    32    5   30 1  
    33    6   31 1  
    34    8   32 1  
    35   10   33 1  
    36   18   34 1  
    37   19   35 1  
    38   20   36 1  
    39   21   37 1  
    40   22   38 1  
@<TRIPOS>SUBSTRUCTURE
     1 E5Q         1

