### 
### Created by X-TOOL on Mon Aug  2 16:13:25 2021
### 

@<TRIPOS>MOLECULE
6ft3_ligand
   36    38     1     0     0
SMALL
GAST_HUCK


@<TRIPOS>ATOM
      1 C4         32.9910   15.3120   -1.6910 C.3       1 E5T         0.0133
      2 C14        28.0110   17.7630   -4.5330 C.3       1 E5T        -0.0456
      3 C5         31.0510   18.7950    1.5550 C.3       1 E5T        -0.0269
      4 C6         30.1350   16.4130   -0.2920 C.ar      1 E5T        -0.0554
      5 C11        29.3190   16.2190    0.8360 C.ar      1 E5T        -0.0447
      6 C7         29.6550   16.1950   -1.5350 C.ar      1 E5T        -0.0728
      7 C8         28.3130   15.7670   -1.6830 C.ar      1 E5T        -0.0305
      8 C9         27.5000   15.5240   -0.5480 C.ar      1 E5T        -0.0368
      9 C10        27.9880   15.7950    0.7190 C.ar      1 E5T         0.0738
     10 C12        27.8100   15.5970   -3.0510 C.3       1 E5T         0.0880
     11 C13        27.1850   16.8850   -3.6110 C.3       1 E5T        -0.0053
     12 N1         33.2800   18.0020    0.6020 N.2       1 E5T        -0.1671
     13 C3         31.9300   17.8980    0.7090 C.2       1 E5T         0.0232
     14 O1         33.6810   17.0830   -0.2540 O.3       1 E5T        -0.1732
     15 C1         32.7000   16.4110   -0.6970 C.2       1 E5T         0.1465
     16 C2         31.5350   16.8790   -0.1170 C.2       1 E5T         0.0166
     17 O2         27.2570   15.6360    1.8850 O.3       1 E5T        -0.3368
     18 O3         28.8300   15.1350   -3.9610 O.3       1 E5T        -0.3793
     19 C15        26.8620   16.9870   -5.1030 C.3       1 E5T        -0.0456
     20 H1         32.0500   14.8221   -1.9818 H         1 E5T         0.0470
     21 H2         33.6634   14.5717   -1.2328 H         1 E5T         0.0470
     22 H3         33.4715   15.7416   -2.5824 H         1 E5T         0.0470
     23 H4         29.0430   17.4758   -4.7829 H         1 E5T         0.0270
     24 H5         27.9448   18.8579   -4.4507 H         1 E5T         0.0270
     25 H6         30.0013   18.4826    1.4519 H         1 E5T         0.0379
     26 H7         31.1583   19.8367    1.2183 H         1 E5T         0.0379
     27 H8         31.3548   18.7173    2.6094 H         1 E5T         0.0379
     28 H9         29.7298   16.4021    1.8223 H         1 E5T         0.0419
     29 H10        30.2854   16.3448   -2.4040 H         1 E5T         0.0402
     30 H11        26.4989   15.1271   -0.6715 H         1 E5T         0.0427
     31 H12        27.0221   14.8304   -3.0129 H         1 E5T         0.0757
     32 H13        26.5128   17.3317   -2.8636 H         1 E5T         0.0348
     33 H14        27.7934   15.8816    2.6297 H         1 E5T         0.2476
     34 H15        29.2200   14.3388   -3.6199 H         1 E5T         0.2130
     35 H16        27.0524   16.1305   -5.7664 H         1 E5T         0.0270
     36 H17        25.9542   17.5126   -5.4341 H         1 E5T         0.0270
@<TRIPOS>BOND
     1   15    1 1  
     2   11    2 1  
     3   19    2 1  
     4   13    3 1  
     5    4    5 ar 
     6    4    6 ar 
     7   16    4 1  
     8    5    9 ar 
     9    6    7 ar 
    10    7    8 ar 
    11    7   10 1  
    12    9    8 ar 
    13    9   17 1  
    14   10   11 1  
    15   10   18 1  
    16   11   19 1  
    17   12   13 2  
    18   14   12 1  
    19   13   16 1  
    20   14   15 1  
    21   15   16 2  
    22    1   20 1  
    23    1   21 1  
    24    1   22 1  
    25    2   23 1  
    26    2   24 1  
    27    3   25 1  
    28    3   26 1  
    29    3   27 1  
    30    5   28 1  
    31    6   29 1  
    32    8   30 1  
    33   10   31 1  
    34   11   32 1  
    35   17   33 1  
    36   18   34 1  
    37   19   35 1  
    38   19   36 1  
@<TRIPOS>SUBSTRUCTURE
     1 E5T         1

