### 
### Created by X-TOOL on Mon Aug  2 16:13:25 2021
### 

@<TRIPOS>MOLECULE
6ft4_ligand
   44    46     1     0     0
SMALL
GAST_HUCK


@<TRIPOS>ATOM
      1 C4         32.2120   29.5680   12.0780 C.3       1 E5W        -0.0269
      2 C14        33.0520   25.2990    6.3280 C.3       1 E5W         0.0511
      3 C5         36.0020   31.7370    9.3720 C.3       1 E5W         0.0133
      4 C6         34.9200   28.7650   10.5770 C.ar      1 E5W        -0.0553
      5 C11        35.0010   27.8780   11.6790 C.ar      1 E5W        -0.0447
      6 C7         35.4070   28.3610    9.3390 C.ar      1 E5W        -0.0703
      7 C8         35.9780   27.0900    9.1600 C.ar      1 E5W        -0.0145
      8 C9         36.0590   26.2210   10.2560 C.ar      1 E5W        -0.0343
      9 C10        35.5680   26.6230   11.4910 C.ar      1 E5W         0.0739
     10 C12        36.4560   26.6560    7.7380 C.3       1 E5W        -0.0021
     11 C13        34.2550   25.5430    7.2830 C.3       1 E5W        -0.0250
     12 N1         32.9190   31.7850   11.1560 N.2       1 E5W        -0.1671
     13 N2         35.3250   26.4700    6.7530 N.4       1 E5W         0.2472
     14 C3         33.1190   30.4480   11.2890 C.2       1 E5W         0.0232
     15 O1         33.9560   32.2600   10.4620 O.3       1 E5W        -0.1732
     16 C1         34.7870   31.3250   10.1650 C.2       1 E5W         0.1465
     17 C2         34.3190   30.1300   10.7050 C.2       1 E5W         0.0166
     18 O2         35.6110   25.7980   12.5670 O.3       1 E5W        -0.3368
     19 C15        33.4640   25.1140    4.8800 C.3       1 E5W         0.2585
     20 C16        34.6300   26.0180    4.5060 C.3       1 E5W         0.0511
     21 C17        35.7970   25.9010    5.4820 C.3       1 E5W        -0.0250
     22 F1         32.4280   25.3620    4.0800 F         1 E5W        -0.2052
     23 F2         33.7200   23.8790    4.6870 F         1 E5W        -0.2052
     24 H1         32.5796   28.5320   12.0374 H         1 E5W         0.0379
     25 H2         31.1975   29.6138   11.6553 H         1 E5W         0.0379
     26 H3         32.1893   29.9083   13.1238 H         1 E5W         0.0379
     27 H4         32.3753   26.1639    6.3907 H         1 E5W         0.0375
     28 H5         32.5217   24.3937    6.6585 H         1 E5W         0.0375
     29 H6         36.6319   30.8555    9.1817 H         1 E5W         0.0470
     30 H7         36.5766   32.4820    9.9419 H         1 E5W         0.0470
     31 H8         35.6838   32.1739    8.4140 H         1 E5W         0.0470
     32 H9         34.6269   28.1733   12.6526 H         1 E5W         0.0419
     33 H10        35.3449   29.0396    8.4959 H         1 E5W         0.0403
     34 H11        36.5031   25.2389   10.1403 H         1 E5W         0.0428
     35 H12        36.9989   25.7036    7.8287 H         1 E5W         0.0977
     36 H13        37.1342   27.4290    7.3475 H         1 E5W         0.0977
     37 H14        34.7230   24.5704    7.4949 H         1 E5W         0.0816
     38 H15        33.8651   25.9736    8.2171 H         1 E5W         0.0816
     39 H16        34.9154   27.3737    6.5754 H         1 E5W         0.2048
     40 H17        35.2333   26.2396   13.3185 H         1 E5W         0.2476
     41 H18        34.2797   27.0607    4.4986 H         1 E5W         0.0375
     42 H19        34.9818   25.7422    3.5009 H         1 E5W         0.0375
     43 H20        36.0773   24.8459    5.6169 H         1 E5W         0.0816
     44 H21        36.6641   26.4661    5.1095 H         1 E5W         0.0816
@<TRIPOS>BOND
     1   14    1 1  
     2   11    2 1  
     3    2   19 1  
     4   16    3 1  
     5    4    5 ar 
     6    4    6 ar 
     7   17    4 1  
     8    5    9 ar 
     9    6    7 ar 
    10    7    8 ar 
    11    7   10 1  
    12    9    8 ar 
    13    9   18 1  
    14   10   13 1  
    15   13   11 1  
    16   12   14 2  
    17   15   12 1  
    18   13   21 1  
    19   14   17 1  
    20   15   16 1  
    21   16   17 2  
    22   19   20 1  
    23   19   22 1  
    24   19   23 1  
    25   20   21 1  
    26    1   24 1  
    27    1   25 1  
    28    1   26 1  
    29    2   27 1  
    30    2   28 1  
    31    3   29 1  
    32    3   30 1  
    33    3   31 1  
    34    5   32 1  
    35    6   33 1  
    36    8   34 1  
    37   10   35 1  
    38   10   36 1  
    39   11   37 1  
    40   11   38 1  
    41   13   39 1  
    42   18   40 1  
    43   20   41 1  
    44   20   42 1  
    45   21   43 1  
    46   21   44 1  
@<TRIPOS>SUBSTRUCTURE
     1 E5W         1

