### 
### Created by X-TOOL on Wed Jan  1 15:39:36 2020
### 

@<TRIPOS>MOLECULE
6ft7_ligand
   31    34     1     0     0
SMALL
GAST_HUCK


@<TRIPOS>ATOM
      1 C4         62.8540   64.0220   52.4000 C.ar      1 E6Q        -0.0640
      2 C5         63.9270   64.8440   50.4290 C.ar      1 E6Q        -0.0679
      3 C6         62.9340   64.1040   51.0210 C.ar      1 E6Q        -0.0681
      4 N1         64.3960   64.5290   56.8350 N.pl3     1 E6Q        -0.2736
      5 C7         63.7220   64.5810   54.6800 C.2       1 E6Q        -0.0149
      6 C8         62.5390   64.4870   55.5420 C.ar      1 E6Q        -0.0143
      7 N2         61.0850   64.3060   59.9320 N.am      1 E6Q        -0.2776
      8 C9         64.8100   64.5930   55.5230 C.2       1 E6Q         0.0364
      9 C10        63.0240   64.4730   56.8650 C.ar      1 E6Q         0.0812
     10 C11        61.1630   64.4180   55.3040 C.ar      1 E6Q        -0.0719
     11 C12        60.2810   64.3520   56.3690 C.ar      1 E6Q        -0.0654
     12 C13        62.1160   64.4060   57.9420 C.ar      1 E6Q         0.0719
     13 C14        60.7490   64.3510   57.6770 C.ar      1 E6Q        -0.0124
     14 C15        62.3290   64.3590   59.3920 C.2       1 E6Q         0.1952
     15 C1         64.7520   65.4600   52.5850 C.ar      1 E6Q        -0.0640
     16 C3         64.8340   65.5180   51.2090 C.ar      1 E6Q        -0.0681
     17 C2         63.7680   64.7000   53.1990 C.ar      1 E6Q        -0.0406
     18 C16        60.0070   64.2960   58.9600 C.3       1 E6Q         0.0629
     19 O1         63.3880   64.3650   60.0170 O.2       1 E6Q        -0.3941
     20 H1         62.0743   63.4258   52.8600 H         1 E6Q         0.0565
     21 H2         63.9950   64.8962   49.3484 H         1 E6Q         0.0566
     22 H3         62.2099   63.5820   50.4060 H         1 E6Q         0.0601
     23 H4         65.0141   64.5240   57.6589 H         1 E6Q         0.2307
     24 H5         60.9242   64.2763   60.9186 H         1 E6Q         0.1866
     25 H6         65.8484   64.6455   55.1992 H         1 E6Q         0.0980
     26 H7         60.7874   64.4162   54.2872 H         1 E6Q         0.0580
     27 H8         59.2148   64.3006   56.1804 H         1 E6Q         0.0491
     28 H9         65.4617   66.0123   53.1903 H         1 E6Q         0.0565
     29 H10        65.6197   66.0996   50.7405 H         1 E6Q         0.0601
     30 H11        59.3518   65.1713   59.0807 H         1 E6Q         0.0686
     31 H12        59.4083   63.3764   59.0364 H         1 E6Q         0.0686
@<TRIPOS>BOND
     1    1    3 ar 
     2   17    1 ar 
     3    3    2 ar 
     4    2   16 ar 
     5    4    8 1  
     6    9    4 1  
     7    6    5 1  
     8    5    8 2  
     9    5   17 1  
    10    9    6 ar 
    11    6   10 ar 
    12   14    7 am 
    13    7   18 1  
    14   12    9 ar 
    15   11   10 ar 
    16   13   11 ar 
    17   12   13 ar 
    18   12   14 1  
    19   13   18 1  
    20   14   19 2  
    21   16   15 ar 
    22   15   17 ar 
    23    1   20 1  
    24    2   21 1  
    25    3   22 1  
    26    4   23 1  
    27    7   24 1  
    28    8   25 1  
    29   10   26 1  
    30   11   27 1  
    31   15   28 1  
    32   16   29 1  
    33   18   30 1  
    34   18   31 1  
@<TRIPOS>SUBSTRUCTURE
     1 E6Q         1

