### 
### Created by X-TOOL on Wed Jan  1 15:39:35 2020
### 

@<TRIPOS>MOLECULE
6ft8_ligand
   32    35     1     0     0
SMALL
GAST_HUCK


@<TRIPOS>ATOM
      1 C4        -19.7230   19.3540   12.3640 C.ar      1 E6T        -0.0145
      2 C5        -19.0310   18.2540   13.0300 C.2       1 E6T        -0.0175
      3 C6        -18.4580   17.5050   12.0270 C.2       1 E6T         0.0363
      4 N1        -20.4520   21.3830    8.2600 N.am      1 E6T        -0.2776
      5 C7        -19.5100   19.1770   10.9840 C.ar      1 E6T         0.0812
      6 C8        -19.9970   20.1280   10.0860 C.ar      1 E6T         0.0719
      7 C9        -19.7970   20.2590    8.6290 C.2       1 E6T         0.1952
      8 C10       -18.9240   17.8880   14.4720 C.ar      1 E6T        -0.0497
      9 C11       -19.9610   18.1670   15.3390 C.ar      1 E6T        -0.0748
     10 C12       -19.8650   17.8260   16.6780 C.ar      1 E6T        -0.0764
     11 C13       -18.7320   17.1930   17.1590 C.ar      1 E6T        -0.0393
     12 C14       -17.6960   16.8950   16.2890 C.ar      1 E6T         0.0811
     13 C15       -17.7810   17.2450   14.9510 C.ar      1 E6T        -0.0365
     14 O         -19.2230   19.4820    7.8610 O.2       1 E6T        -0.3941
     15 C         -21.0760   22.0850    9.3660 C.3       1 E6T         0.0629
     16 C1        -20.6800   21.2380   10.5410 C.ar      1 E6T        -0.0124
     17 C3        -20.4350   20.4740   12.8150 C.ar      1 E6T        -0.0719
     18 C2        -20.9130   21.4080   11.9050 C.ar      1 E6T        -0.0654
     19 N         -18.7530   18.0450   10.7990 N.pl3     1 E6T        -0.2735
     20 O1        -16.5840   16.2440   16.7460 O.3       1 E6T        -0.3348
     21 H1        -17.8562   16.6112   12.1848 H         1 E6T         0.0980
     22 H2        -20.5017   21.7008    7.3131 H         1 E6T         0.1866
     23 H3        -20.8555   18.6557   14.9700 H         1 E6T         0.0475
     24 H4        -20.6815   18.0561   17.3528 H         1 E6T         0.0574
     25 H5        -18.6559   16.9324   18.2085 H         1 E6T         0.0495
     26 H6        -16.9618   17.0201   14.2776 H         1 E6T         0.0482
     27 H7        -22.1693   22.1207    9.2502 H         1 E6T         0.0686
     28 H8        -20.6838   23.1082    9.4614 H         1 E6T         0.0686
     29 H9        -20.6128   20.6114   13.8755 H         1 E6T         0.0580
     30 H10       -21.4681   22.2705   12.2558 H         1 E6T         0.0491
     31 H11       -18.4558   17.6642    9.8893 H         1 E6T         0.2307
     32 H12       -15.8177   16.7852   16.5963 H         1 E6T         0.2478
@<TRIPOS>BOND
     1    1    2 1  
     2    5    1 ar 
     3    1   17 ar 
     4    3    2 2  
     5    2    8 1  
     6   19    3 1  
     7    7    4 am 
     8    4   15 1  
     9    6    5 ar 
    10    5   19 1  
    11    6    7 1  
    12    6   16 ar 
    13    7   14 2  
    14    8    9 ar 
    15    8   13 ar 
    16    9   10 ar 
    17   10   11 ar 
    18   11   12 ar 
    19   12   13 ar 
    20   12   20 1  
    21   15   16 1  
    22   16   18 ar 
    23   17   18 ar 
    24    3   21 1  
    25    4   22 1  
    26    9   23 1  
    27   10   24 1  
    28   11   25 1  
    29   13   26 1  
    30   15   27 1  
    31   15   28 1  
    32   17   29 1  
    33   18   30 1  
    34   19   31 1  
    35   20   32 1  
@<TRIPOS>SUBSTRUCTURE
     1 E6T         1

