### 
### Created by X-TOOL on Wed Jan  1 15:39:35 2020
### 

@<TRIPOS>MOLECULE
6ft9_ligand
   31    34     1     0     0
SMALL
GAST_HUCK


@<TRIPOS>ATOM
      1 C4         35.9590   29.9300   79.1190 C.ar      1 E6W        -0.0104
      2 C5         35.9340   30.9490   78.0710 C.2       1 E6W        -0.0047
      3 C6         35.9450   30.6810   76.6020 C.ar      1 E6W        -0.0369
      4 N1         36.2940   29.1760   83.6640 N.am      1 E6W        -0.2774
      5 C7         34.8360   30.9830   75.8190 C.ar      1 E6W        -0.0622
      6 C8         34.8720   30.7970   74.4440 C.ar      1 E6W        -0.0668
      7 C9         36.0070   30.3050   73.8370 C.ar      1 E6W        -0.0667
      8 C10        37.1110   29.9850   74.6060 C.ar      1 E6W        -0.0668
      9 C11        37.0820   30.1620   75.9790 C.ar      1 E6W        -0.0622
     10 C12        35.9160   32.1070   78.7770 C.2       1 E6W         0.1092
     11 C13        35.9330   30.6090   80.3560 C.ar      1 E6W         0.0820
     12 C14        36.0550   29.8780   81.5400 C.ar      1 E6W         0.0733
     13 C15        36.1070   30.2970   82.9490 C.2       1 E6W         0.1954
     14 BR         36.2000   33.7820   78.0430 Br        1 E6W        -0.0149
     15 N          35.8810   31.9540   80.1150 N.pl3     1 E6W        -0.2707
     16 C3         36.0670   28.5450   79.0900 C.ar      1 E6W        -0.0698
     17 C2         36.1670   27.8330   80.2700 C.ar      1 E6W        -0.0639
     18 C1         36.1840   28.4970   81.4890 C.ar      1 E6W        -0.0111
     19 O          36.0060   31.4250   83.4180 O.2       1 E6W        -0.3942
     20 C          36.3940   27.9660   82.8730 C.3       1 E6W         0.0635
     21 H1         36.3590   29.1761   84.6619 H         1 E6W         0.1866
     22 H2         33.9363   31.3667   76.2863 H         1 E6W         0.0576
     23 H3         34.0024   31.0401   73.8443 H         1 E6W         0.0604
     24 H4         36.0344   30.1694   72.7619 H         1 E6W         0.0576
     25 H5         38.0036   29.5936   74.1315 H         1 E6W         0.0604
     26 H6         37.9479   29.8959   76.5744 H         1 E6W         0.0576
     27 H7         35.8258   32.7038   80.8190 H         1 E6W         0.2287
     28 H8         36.0728   28.0223   78.1403 H         1 E6W         0.0591
     29 H9         36.2325   26.7513   80.2437 H         1 E6W         0.0495
     30 H10        35.6142   27.2405   83.1478 H         1 E6W         0.0688
     31 H11        37.3838   27.4978   82.9780 H         1 E6W         0.0688
@<TRIPOS>BOND
     1    1    2 1  
     2   11    1 ar 
     3    1   16 ar 
     4    2    3 1  
     5   10    2 2  
     6    3    5 ar 
     7    3    9 ar 
     8   13    4 am 
     9    4   20 1  
    10    5    6 ar 
    11    6    7 ar 
    12    8    7 ar 
    13    9    8 ar 
    14   10   14 1  
    15   15   10 1  
    16   12   11 ar 
    17   11   15 1  
    18   12   13 1  
    19   12   18 ar 
    20   13   19 2  
    21   16   17 ar 
    22   17   18 ar 
    23   18   20 1  
    24    4   21 1  
    25    5   22 1  
    26    6   23 1  
    27    7   24 1  
    28    8   25 1  
    29    9   26 1  
    30   15   27 1  
    31   16   28 1  
    32   17   29 1  
    33   20   30 1  
    34   20   31 1  
@<TRIPOS>SUBSTRUCTURE
     1 E6W         1

