### 
### Created by X-TOOL on Mon Aug  2 16:13:25 2021
### 

@<TRIPOS>MOLECULE
6ftf_ligand
   33    35     1     0     0
SMALL
GAST_HUCK


@<TRIPOS>ATOM
      1 C1        -25.4650   97.0380   52.6600 C.3       1 MOL         0.2005
      2 N1        -24.3150   96.8240   51.7030 N.pl3     1 MOL        -0.2165
      3 O1        -24.9820   97.5990   53.8610 O.3       1 MOL        -0.3360
      4 C2        -24.4220   96.9050   50.3880 C.2       1 MOL         0.1257
      5 N2        -25.5010   97.2220   49.6320 N.2       1 MOL        -0.2709
      6 O2        -27.4660   95.9390   53.2840 O.3       1 MOL        -0.3835
      7 C3        -25.3280   97.3290   48.2990 C.2       1 MOL         0.1257
      8 N3        -24.0940   97.0260   47.7030 N.am      1 MOL        -0.2055
      9 O3        -26.1510   94.4150   55.0250 O.3       1 MOL        -0.3864
     10 C4        -23.0040   96.6660   48.4490 C.2       1 MOL         0.2119
     11 N4        -19.7720   95.6730   50.9630 N.1       1 MOL        -0.3583
     12 C5        -23.1270   96.6240   49.8540 C.2       1 MOL         0.0774
     13 O5        -21.9470   96.3700   47.8210 O.2       1 MOL        -0.4061
     14 C6        -22.2380   96.3490   50.9770 C.2       1 MOL         0.0918
     15 C7        -23.0540   96.5060   52.0880 C.2       1 MOL         0.0679
     16 C8        -20.8930   95.9830   50.9610 C.1       1 MOL         0.0622
     17 C9        -26.1210   95.7560   53.0410 C.3       1 MOL         0.1394
     18 C10       -25.3910   95.3670   54.2190 C.3       1 MOL         0.1147
     19 C11       -25.2500   96.7210   54.9460 C.3       1 MOL         0.1136
     20 C12       -24.0550   96.7820   55.9800 C.3       1 MOL         0.0730
     21 O4        -22.9050   96.2580   55.4110 O.3       1 MOL        -0.3924
     22 H1        -26.2012   97.7093   52.1938 H         1 MOL         0.1009
     23 H2        -27.8855   96.2743   52.5003 H         1 MOL         0.2101
     24 H3        -26.1587   97.6556   47.6752 H         1 MOL         0.1480
     25 H4        -24.0088   97.0743   46.7078 H         1 MOL         0.2550
     26 H5        -25.6452   94.1775   55.7933 H         1 MOL         0.2100
     27 H6        -22.7287   96.3905   53.1209 H         1 MOL         0.1043
     28 H7        -26.0018   95.0037   52.2473 H         1 MOL         0.0677
     29 H8        -24.4105   94.9380   53.9651 H         1 MOL         0.0648
     30 H9        -26.1858   96.9846   55.4606 H         1 MOL         0.0647
     31 H10       -24.3174   96.1973   56.8740 H         1 MOL         0.0584
     32 H11       -23.8747   97.8287   56.2662 H         1 MOL         0.0584
     33 H12       -23.0587   95.3535   55.1646 H         1 MOL         0.2095
@<TRIPOS>BOND
     1    1    2 1  
     2    1    3 1  
     3   17    1 1  
     4    2    4 1  
     5    2   15 1  
     6    3   19 1  
     7    4    5 1  
     8    4   12 2  
     9    5    7 2  
    10   17    6 1  
    11    7    8 1  
    12   10    8 am 
    13   18    9 1  
    14   12   10 1  
    15   10   13 2  
    16   16   11 3  
    17   14   12 1  
    18   15   14 2  
    19   14   16 1  
    20   17   18 1  
    21   18   19 1  
    22   19   20 1  
    23   20   21 1  
    24    1   22 1  
    25    6   23 1  
    26    7   24 1  
    27    8   25 1  
    28    9   26 1  
    29   15   27 1  
    30   17   28 1  
    31   18   29 1  
    32   19   30 1  
    33   20   31 1  
    34   20   32 1  
    35   21   33 1  
@<TRIPOS>SUBSTRUCTURE
     1 MOL         1

