### 
### Created by X-TOOL on Wed Jan  1 15:39:38 2020
### 

@<TRIPOS>MOLECULE
6ftn_ligand
   49    52     1     0     0
SMALL
GAST_HUCK


@<TRIPOS>ATOM
      1 C1         -9.5860  -46.4830   25.1270 C.ar      1 E78        -0.0646
      2 C2         -8.6000  -47.4030   23.1520 C.ar      1 E78        -0.0668
      3 C3         -8.4810  -46.9810   24.4650 C.ar      1 E78        -0.0420
      4 C7         -7.1930  -47.0250   25.1310 C.2       1 E78         0.0352
      5 C8         -6.6910  -46.2360   26.1480 C.2       1 E78        -0.0091
      6 C9         -4.9240  -47.5150   25.8490 C.2       1 E78         0.2116
      7 C10       -12.2490  -46.6530   22.7100 C.2       1 E78         0.1934
      8 C11        -3.1750  -49.0980   25.2970 C.2       1 E78         0.2147
      9 C12       -12.0800  -45.9190   24.9640 C.3       1 E78         0.0666
     10 C13       -14.1930  -43.3110   22.5750 C.3       1 E78        -0.0478
     11 C14       -15.4710  -43.3410   23.3540 C.3       1 E78        -0.0478
     12 C15       -14.2800  -44.1190   23.8380 C.3       1 E78        -0.0179
     13 C16        -9.8750  -47.8100   21.0540 C.3       1 E78        -0.0311
     14 C19       -15.1730  -46.2750   24.6970 C.3       1 E78        -0.0414
     15 C20       -14.2610  -45.6020   23.6960 C.3       1 E78         0.0463
     16 N23        -3.6530  -48.0320   26.0190 N.am      1 E78        -0.1902
     17 C4        -10.8740  -46.8430   23.1600 C.ar      1 E78         0.0451
     18 C5        -10.7820  -46.4190   24.4540 C.ar      1 E78        -0.0162
     19 C6         -9.7970  -47.3480   22.4680 C.ar      1 E78        -0.0413
     20 C17        -7.3760  -45.1340   26.8430 C.3       1 E78        -0.0291
     21 C18        -1.8270  -49.5090   25.7930 C.3       1 E78         0.0344
     22 N21        -5.4100  -46.5190   26.5500 N.2       1 E78        -0.3008
     23 N22       -12.9160  -46.1260   23.7990 N.am      1 E78        -0.2612
     24 O24       -12.6520  -46.9010   21.5820 O.2       1 E78        -0.3964
     25 O25        -3.7190  -49.6680   24.3640 O.2       1 E78        -0.3789
     26 S26        -5.9910  -48.1650   24.6680 S.3       1 E78         0.0122
     27 H1         -9.5112  -46.1497   26.1558 H         1 E78         0.0436
     28 H2         -7.7237  -47.7895   22.6443 H         1 E78         0.0435
     29 H3        -12.0255  -44.8560   25.2415 H         1 E78         0.0694
     30 H4        -12.4313  -46.5054   25.8258 H         1 E78         0.0694
     31 H5        -13.5860  -42.3940   22.5500 H         1 E78         0.0269
     32 H6        -14.1309  -43.8185   21.6011 H         1 E78         0.0269
     33 H7        -16.3474  -43.8707   22.9523 H         1 E78         0.0269
     34 H8        -15.8024  -42.4462   23.9012 H         1 E78         0.0269
     35 H9        -13.7471  -43.8127   24.7502 H         1 E78         0.0323
     36 H10        -8.8865  -48.1675   20.7301 H         1 E78         0.0400
     37 H11       -10.1911  -46.9745   20.4121 H         1 E78         0.0400
     38 H12       -10.6049  -48.6292   20.9756 H         1 E78         0.0400
     39 H13       -15.1290  -47.3653   24.5579 H         1 E78         0.0252
     40 H14       -16.2053  -45.9272   24.5442 H         1 E78         0.0252
     41 H15       -14.8480  -46.0222   25.7170 H         1 E78         0.0252
     42 H16       -14.6367  -45.8417   22.6903 H         1 E78         0.0559
     43 H17        -3.0538  -47.6100   26.6994 H         1 E78         0.2448
     44 H18        -6.7052  -44.7065   27.6028 H         1 E78         0.0396
     45 H19        -8.2851  -45.5165   27.3301 H         1 E78         0.0396
     46 H20        -7.6495  -44.3555   26.1156 H         1 E78         0.0396
     47 H21        -1.4635  -50.3626   25.2021 H         1 E78         0.0475
     48 H22        -1.8987  -49.7998   26.8514 H         1 E78         0.0475
     49 H23        -1.1263  -48.6673   25.6906 H         1 E78         0.0475
@<TRIPOS>BOND
     1    1    3 ar 
     2   18    1 ar 
     3    3    2 ar 
     4    2   19 ar 
     5    3    4 1  
     6    4    5 2  
     7    4   26 1  
     8    5   20 1  
     9    5   22 1  
    10    6   16 1  
    11    6   22 2  
    12   26    6 1  
    13    7   17 1  
    14   23    7 am 
    15    7   24 2  
    16   16    8 am 
    17    8   21 1  
    18    8   25 2  
    19    9   18 1  
    20   23    9 1  
    21   11   10 1  
    22   12   10 1  
    23   12   11 1  
    24   15   12 1  
    25   19   13 1  
    26   15   14 1  
    27   15   23 1  
    28   17   18 ar 
    29   17   19 ar 
    30    1   27 1  
    31    2   28 1  
    32    9   29 1  
    33    9   30 1  
    34   10   31 1  
    35   10   32 1  
    36   11   33 1  
    37   11   34 1  
    38   12   35 1  
    39   13   36 1  
    40   13   37 1  
    41   13   38 1  
    42   14   39 1  
    43   14   40 1  
    44   14   41 1  
    45   15   42 1  
    46   16   43 1  
    47   20   44 1  
    48   20   45 1  
    49   20   46 1  
    50   21   47 1  
    51   21   48 1  
    52   21   49 1  
@<TRIPOS>SUBSTRUCTURE
     1 E78         1

