### 
### Created by X-TOOL on Wed Jan  1 15:39:37 2020
### 

@<TRIPOS>MOLECULE
6ftp_ligand
   69    73     1     0     0
SMALL
GAST_HUCK


@<TRIPOS>ATOM
      1 C1        -22.2120    6.9570    2.1750 C.ar      1 DM2        -0.0496
      2 C2        -22.4560    8.1910    2.7590 C.ar      1 DM2        -0.0604
      3 C3        -21.4090    9.0580    2.9920 C.ar      1 DM2        -0.0224
      4 C4        -20.1050    8.6980    2.6420 C.ar      1 DM2         0.1154
      5 O4        -19.0500    9.5370    2.8620 O.3       1 DM2        -0.3146
      6 C5        -19.8290    7.4540    2.0490 C.ar      1 DM2         0.0759
      7 C6        -18.4660    7.0520    1.6720 C.2       1 DM2         0.1471
      8 O6        -17.5000    7.7780    1.8540 O.2       1 DM2        -0.3797
      9 C7        -18.2960    5.7240    1.0570 C.ar      1 DM2         0.0568
     10 C8        -17.0260    5.2960    0.6820 C.ar      1 DM2         0.1006
     11 O8        -15.9580    6.1140    0.8900 O.3       1 DM2        -0.3380
     12 C9        -16.8250    4.0400    0.0950 C.ar      1 DM2         0.0212
     13 C10       -15.4250    3.6600   -0.2780 C.3       1 DM2         0.0945
     14 O10       -14.7570    3.3580    0.9250 O.3       1 DM2        -0.3376
     15 C11       -15.4150    2.4740   -1.2590 C.3       1 DM2         0.0174
     16 C12       -16.3080    1.3800   -0.6610 C.3       1 DM2         0.1420
     17 O12       -15.8900    1.2060    0.6600 O.3       1 DM2        -0.3840
     18 C13       -16.1250    0.0810   -1.4600 C.2       1 DM2         0.1854
     19 O13       -16.4980   -0.0210   -2.6070 O.2       1 DM2        -0.3270
     20 C14       -15.4510   -1.0640   -0.7340 C.3       1 DM2         0.1214
     21 O14       -14.1250   -1.0320   -1.1660 O.3       1 DM2        -0.3762
     22 C15       -17.7610    1.8460   -0.7450 C.3       1 DM2         0.0125
     23 C16       -17.8960    3.1930   -0.1270 C.ar      1 DM2        -0.0032
     24 C17       -19.1730    3.6240    0.2510 C.ar      1 DM2         0.0984
     25 O17       -20.2290    2.7900    0.0340 O.3       1 DM2        -0.3380
     26 C18       -19.3780    4.8700    0.8340 C.ar      1 DM2         0.0586
     27 C19       -20.7320    5.2730    1.2110 C.2       1 DM2         0.1504
     28 O19       -21.6860    4.5280    1.0180 O.2       1 DM2        -0.3730
     29 C20       -20.9200    6.5970    1.8270 C.ar      1 DM2         0.0393
     30 C21       -19.3820   10.9030    2.7120 C.3       1 DM2         0.0613
     31 C1'       -13.5970    4.1410    1.1050 C.3       1 DM2         0.1670
     32 C2'       -13.0770    3.9540    2.5350 C.3       1 DM2         0.0440
     33 C3'       -12.7030    2.4840    2.7580 C.3       1 DM2         0.0093
     34 N3'       -12.0490    2.3190    4.0520 N.4       1 DM2         0.2228
     35 C4'       -11.7300    2.0320    1.6280 C.3       1 DM2         0.1234
     36 O4'       -10.5680    2.7850    1.7460 O.3       1 DM2        -0.3836
     37 C5'       -12.4290    2.2940    0.2790 C.3       1 DM2         0.0900
     38 O5'       -12.6880    3.6700    0.1470 O.3       1 DM2        -0.3452
     39 C6'       -11.5880    1.8700   -0.9150 C.3       1 DM2        -0.0359
     40 H1        -23.0328    6.2734    1.9906 H         1 DM2         0.0591
     41 H2        -23.4665    8.4732    3.0315 H         1 DM2         0.0636
     42 H3        -21.5985   10.0227    3.4486 H         1 DM2         0.0591
     43 H4        -15.8796    6.3007    1.8182 H         1 DM2         0.2454
     44 H5        -14.9304    4.5146   -0.7628 H         1 DM2         0.0731
     45 H6        -14.3892    2.0966   -1.3829 H         1 DM2         0.0323
     46 H7        -15.8099    2.7901   -2.2358 H         1 DM2         0.0323
     47 H8        -15.9906    2.0236    1.1331 H         1 DM2         0.2078
     48 H9        -15.9218   -2.0218   -1.0004 H         1 DM2         0.0786
     49 H10       -15.5069   -0.9183    0.3549 H         1 DM2         0.0786
     50 H11       -13.6391   -1.7315   -0.7452 H         1 DM2         0.2129
     51 H12       -18.4046    1.1326   -0.2095 H         1 DM2         0.0410
     52 H13       -18.0678    1.8962   -1.8001 H         1 DM2         0.0410
     53 H14       -21.0275    3.2068    0.3359 H         1 DM2         0.2454
     54 H15       -18.4913   11.5198    2.9023 H         1 DM2         0.0581
     55 H16       -20.1723   11.1692    3.4293 H         1 DM2         0.0581
     56 H17       -19.7406   11.0829    1.6878 H         1 DM2         0.0581
     57 H18       -13.8137    5.2054    0.9319 H         1 DM2         0.0913
     58 H19       -13.8603    4.2450    3.2504 H         1 DM2         0.0370
     59 H20       -12.1888    4.5848    2.6870 H         1 DM2         0.0370
     60 H21       -13.6134    1.8672    2.7291 H         1 DM2         0.0878
     61 H22       -11.8087    1.3492    4.1858 H         1 DM2         0.1998
     62 H23       -12.6749    2.6142    4.7849 H         1 DM2         0.1998
     63 H24       -11.2116    2.8794    4.0792 H         1 DM2         0.1998
     64 H25       -11.4938    0.9621    1.7255 H         1 DM2         0.0676
     65 H26       -10.7784    3.7067    1.6528 H         1 DM2         0.2102
     66 H27       -13.3772    1.7367    0.2626 H         1 DM2         0.0622
     67 H28       -12.1377    2.0811   -1.8441 H         1 DM2         0.0255
     68 H29       -11.3769    0.7924   -0.8507 H         1 DM2         0.0255
     69 H30       -10.6411    2.4298   -0.9139 H         1 DM2         0.0255
@<TRIPOS>BOND
     1    1    2 ar 
     2    1   29 ar 
     3    2    3 ar 
     4    3    4 ar 
     5    4    5 1  
     6    4    6 ar 
     7    5   30 1  
     8    6    7 1  
     9    6   29 ar 
    10    7    8 2  
    11    7    9 1  
    12    9   10 ar 
    13    9   26 ar 
    14   10   11 1  
    15   10   12 ar 
    16   12   13 1  
    17   12   23 ar 
    18   13   14 1  
    19   13   15 1  
    20   14   31 1  
    21   15   16 1  
    22   16   17 1  
    23   16   18 1  
    24   16   22 1  
    25   18   19 2  
    26   18   20 1  
    27   20   21 1  
    28   22   23 1  
    29   23   24 ar 
    30   24   25 1  
    31   24   26 ar 
    32   26   27 1  
    33   27   28 2  
    34   27   29 1  
    35   31   32 1  
    36   31   38 1  
    37   32   33 1  
    38   33   34 1  
    39   33   35 1  
    40   35   36 1  
    41   35   37 1  
    42   37   38 1  
    43   37   39 1  
    44    1   40 1  
    45    2   41 1  
    46    3   42 1  
    47   11   43 1  
    48   13   44 1  
    49   15   45 1  
    50   15   46 1  
    51   17   47 1  
    52   20   48 1  
    53   20   49 1  
    54   21   50 1  
    55   22   51 1  
    56   22   52 1  
    57   25   53 1  
    58   30   54 1  
    59   30   55 1  
    60   30   56 1  
    61   31   57 1  
    62   32   58 1  
    63   32   59 1  
    64   33   60 1  
    65   34   61 1  
    66   34   62 1  
    67   34   63 1  
    68   35   64 1  
    69   36   65 1  
    70   37   66 1  
    71   39   67 1  
    72   39   68 1  
    73   39   69 1  
@<TRIPOS>SUBSTRUCTURE
     1 DM2         1

