### 
### Created by X-TOOL on Mon Aug  2 16:13:26 2021
### 

@<TRIPOS>MOLECULE
6ftw_ligand
   60    63     1     0     0
SMALL
GAST_HUCK


@<TRIPOS>ATOM
      1 C1        -22.5570  114.0890  355.0100 C.3       1 E6Z         0.0609
      2 C10       -22.5880  120.0310  355.0320 C.2       1 E6Z         0.2440
      3 C11       -21.1620  116.2840  348.9790 C.2       1 E6Z         0.0455
      4 C12       -21.6680  119.0720  346.8090 C.3       1 E6Z         0.0794
      5 C13       -21.0220  120.3020  347.4630 C.3       1 E6Z        -0.0230
      6 C14       -21.3510  121.6840  346.9020 C.3       1 E6Z        -0.0504
      7 C15       -22.8080  121.9960  346.8260 C.3       1 E6Z        -0.0530
      8 C16       -23.5070  121.2340  345.7320 C.3       1 E6Z        -0.0530
      9 C17       -24.0760  119.9030  346.1710 C.3       1 E6Z        -0.0504
     10 C18       -23.1930  118.9970  347.0320 C.3       1 E6Z        -0.0230
     11 C19       -20.0350  117.1480  346.5610 C.2       1 E6Z         0.2243
     12 C2        -22.0920  115.5300  353.1090 C.ar      1 E6Z         0.1117
     13 C20       -19.4810  115.8800  347.1810 C.3       1 E6Z         0.0759
     14 C21       -18.8600  114.8610  346.2030 C.3       1 E6Z        -0.0140
     15 C22       -19.8510  113.9190  345.6080 C.2       1 E6Z        -0.0958
     16 C23       -21.1010  113.8290  346.0110 C.2       1 E6Z        -0.0963
     17 C24       -21.6340  114.5270  347.2200 C.3       1 E6Z        -0.0215
     18 C25       -20.5620  115.2160  348.0620 C.3       1 E6Z         0.0297
     19 C3        -21.7780  114.4660  352.2620 C.ar      1 E6Z        -0.0288
     20 C4        -21.4880  114.6880  350.9250 C.ar      1 E6Z        -0.0607
     21 C5        -21.4890  115.9790  350.4010 C.ar      1 E6Z        -0.0159
     22 C6        -21.7950  117.0570  351.2430 C.ar      1 E6Z        -0.0438
     23 C7        -22.1060  116.8490  352.5860 C.ar      1 E6Z         0.0633
     24 C8        -22.4030  117.9820  353.4150 C.1       1 E6Z        -0.0466
     25 C9        -22.5220  118.9650  354.0850 C.1       1 E6Z         0.0089
     26 N1        -22.1370  121.1870  354.5400 N.am      1 E6Z        -0.2940
     27 N2        -21.3610  117.4950  348.5840 N.2       1 E6Z        -0.2033
     28 N3        -21.0010  117.8390  347.3120 N.am      1 E6Z        -0.1659
     29 O1        -22.3990  115.3920  354.4440 O.3       1 E6Z        -0.3167
     30 O2        -22.9980  119.8680  356.1850 O.2       1 E6Z        -0.3769
     31 O3        -19.6150  117.5950  345.4990 O.2       1 E6Z        -0.3833
     32 H1        -22.7984  114.1805  356.0793 H         1 E6Z         0.0581
     33 H2        -21.6216  113.5223  354.8925 H         1 E6Z         0.0581
     34 H3        -23.3727  113.5615  354.4939 H         1 E6Z         0.0581
     35 H4        -21.4954  119.1390  345.7247 H         1 E6Z         0.0640
     36 H5        -19.9320  120.1734  347.3903 H         1 E6Z         0.0293
     37 H6        -21.3215  120.3017  348.5214 H         1 E6Z         0.0293
     38 H7        -20.9333  121.7498  345.8866 H         1 E6Z         0.0266
     39 H8        -20.8725  122.4375  347.5449 H         1 E6Z         0.0266
     40 H9        -22.9283  123.0730  346.6374 H         1 E6Z         0.0265
     41 H10       -23.2742  121.7379  347.7883 H         1 E6Z         0.0265
     42 H11       -22.7845  121.0506  344.9231 H         1 E6Z         0.0265
     43 H12       -24.3326  121.8540  345.3526 H         1 E6Z         0.0265
     44 H13       -24.3340  119.3408  345.2615 H         1 E6Z         0.0266
     45 H14       -24.9907  120.1110  346.7454 H         1 E6Z         0.0266
     46 H15       -23.3855  119.2523  348.0845 H         1 E6Z         0.0293
     47 H16       -23.5033  117.9586  346.8439 H         1 E6Z         0.0293
     48 H17       -18.6652  116.1950  347.8482 H         1 E6Z         0.0588
     49 H18       -18.1057  114.2733  346.7467 H         1 E6Z         0.0417
     50 H19       -18.3743  115.4152  345.3863 H         1 E6Z         0.0417
     51 H20       -19.5232  113.2708  344.7967 H         1 E6Z         0.0452
     52 H21       -21.7849  113.2113  345.4308 H         1 E6Z         0.0452
     53 H22       -22.1453  113.7849  347.8507 H         1 E6Z         0.0413
     54 H23       -22.3566  115.2878  346.8899 H         1 E6Z         0.0413
     55 H24       -20.0803  114.4497  348.6871 H         1 E6Z         0.0505
     56 H25       -21.7608  113.4555  352.6540 H         1 E6Z         0.0550
     57 H26       -21.2578  113.8479  350.2798 H         1 E6Z         0.0600
     58 H27       -21.7898  118.0652  350.8449 H         1 E6Z         0.0609
     59 H28       -22.1341  122.0069  355.1125 H         1 E6Z         0.1814
     60 H29       -21.8020  121.2331  353.5989 H         1 E6Z         0.1814
@<TRIPOS>BOND
     1   29    1 1  
     2   25    2 1  
     3    2   26 am 
     4    2   30 2  
     5    3   18 1  
     6   21    3 1  
     7    3   27 2  
     8    4    5 1  
     9    4   10 1  
    10   28    4 1  
    11    5    6 1  
    12    6    7 1  
    13    8    7 1  
    14    9    8 1  
    15   10    9 1  
    16   13   11 1  
    17   11   28 am 
    18   11   31 2  
    19   12   19 ar 
    20   23   12 ar 
    21   12   29 1  
    22   13   14 1  
    23   18   13 1  
    24   14   15 1  
    25   16   15 2  
    26   17   16 1  
    27   18   17 1  
    28   19   20 ar 
    29   21   20 ar 
    30   22   21 ar 
    31   23   22 ar 
    32   24   23 1  
    33   24   25 3  
    34   27   28 1  
    35    1   32 1  
    36    1   33 1  
    37    1   34 1  
    38    4   35 1  
    39    5   36 1  
    40    5   37 1  
    41    6   38 1  
    42    6   39 1  
    43    7   40 1  
    44    7   41 1  
    45    8   42 1  
    46    8   43 1  
    47    9   44 1  
    48    9   45 1  
    49   10   46 1  
    50   10   47 1  
    51   13   48 1  
    52   14   49 1  
    53   14   50 1  
    54   15   51 1  
    55   16   52 1  
    56   17   53 1  
    57   17   54 1  
    58   18   55 1  
    59   19   56 1  
    60   20   57 1  
    61   22   58 1  
    62   26   59 1  
    63   26   60 1  
@<TRIPOS>SUBSTRUCTURE
     1 E6Z         1

