### 
### Created by X-TOOL on Wed Jan  1 15:39:35 2020
### 

@<TRIPOS>MOLECULE
6fty_ligand
   51    55     1     0     0
SMALL
GAST_HUCK


@<TRIPOS>ATOM
      1 C1          9.5800   11.7410    2.4730 C.3       1 E7H        -0.0360
      2 C2          7.5440   10.9620    0.4420 C.3       1 E7H         0.0051
      3 C3          7.8890   10.0010    1.6380 C.3       1 E7H         0.0621
      4 C11         6.6650    9.1930    2.0640 C.2       1 E7H         0.2283
      5 C15         3.0710    9.6260    2.2570 C.ar      1 E7H        -0.0543
      6 C16         1.8450    9.0370    2.6350 C.ar      1 E7H        -0.0887
      7 C17         1.7200    7.6400    2.6420 C.ar      1 E7H        -0.0566
      8 C18         4.1910    8.8530    1.8760 C.ar      1 E7H         0.0653
      9 C19         4.0070    7.4670    1.8340 C.ar      1 E7H         0.0103
     10 C20         2.8170    6.8740    2.2200 C.ar      1 E7H         0.0559
     11 C22         4.1140    5.1780    1.6660 C.2       1 E7H         0.1254
     12 C23         4.8660    6.2820    1.4930 C.2       1 E7H        -0.0429
     13 C24         4.6170    3.7980    1.4490 C.2       1 E7H         0.2189
     14 C4          9.0860    9.0880    1.2010 C.3       1 E7H        -0.0377
     15 C5         10.3140    9.9630    0.7990 C.3       1 E7H        -0.0360
     16 C6          9.9380   10.9190   -0.3760 C.3       1 E7H        -0.0044
     17 C7          8.7670   11.8560    0.0600 C.3       1 E7H        -0.0136
     18 C8          8.3510   10.8640    2.8560 C.3       1 E7H        -0.0377
     19 C9         10.7500   10.8140    2.0340 C.3       1 E7H        -0.0472
     20 C10         9.1940   12.6880    1.3050 C.3       1 E7H        -0.0044
     21 N12         5.4300    9.4790    1.5340 N.am      1 E7H        -0.2328
     22 O13         6.8600    8.3120    2.8920 O.2       1 E7H        -0.3361
     23 N14         8.3820   12.7870   -1.0290 N.4       1 E7H         0.2228
     24 N21         2.9250    5.5320    2.0870 N.pl3     1 E7H        -0.2737
     25 N25         5.7550    3.5300    0.8050 N.am      1 E7H        -0.3000
     26 O26         3.9890    2.8660    1.9030 O.2       1 E7H        -0.3878
     27 H1          9.8913   12.3392    3.3420 H         1 E7H         0.0301
     28 H2          6.7042   11.6097    0.7338 H         1 E7H         0.0312
     29 H3          7.2553   10.3581   -0.4309 H         1 E7H         0.0312
     30 H4          3.1561   10.7067    2.2591 H         1 E7H         0.0389
     31 H5          1.0050    9.6609    2.9182 H         1 E7H         0.0513
     32 H6          0.8006    7.1650    2.9648 H         1 E7H         0.0410
     33 H7          5.9045    6.3106    1.1664 H         1 E7H         0.0397
     34 H8          8.7798    8.4749    0.3406 H         1 E7H         0.0257
     35 H9          9.3664    8.4315    2.0379 H         1 E7H         0.0257
     36 H10        11.1428    9.3103    0.4874 H         1 E7H         0.0301
     37 H11         9.6246   10.3231   -1.2459 H         1 E7H         0.0325
     38 H12        10.8130   11.5288   -0.6452 H         1 E7H         0.0325
     39 H13         7.5241   11.5180    3.1698 H         1 E7H         0.0257
     40 H14         8.6272   10.1979    3.6867 H         1 E7H         0.0257
     41 H15        11.0162   10.1433    2.8643 H         1 E7H         0.0271
     42 H16        11.6218   11.4284    1.7650 H         1 E7H         0.0271
     43 H17        10.0592   13.3152    1.0440 H         1 E7H         0.0325
     44 H18         8.3572   13.3296    1.6182 H         1 E7H         0.0325
     45 H19         5.3942   10.1973    0.8392 H         1 E7H         0.2306
     46 H20         8.1036   12.2579   -1.8406 H         1 E7H         0.1999
     47 H21         9.1678   13.3732   -1.2634 H         1 E7H         0.1999
     48 H22         7.6130   13.3624   -0.7230 H         1 E7H         0.1999
     49 H23         2.1642    4.8686    2.2920 H         1 E7H         0.2239
     50 H24         6.0503    2.5822    0.6850 H         1 E7H         0.1803
     51 H25         6.3123    4.2770    0.4425 H         1 E7H         0.1803
@<TRIPOS>BOND
     1   18    1 1  
     2    1   19 1  
     3    1   20 1  
     4    3    2 1  
     5    2   17 1  
     6    4    3 1  
     7    3   14 1  
     8    3   18 1  
     9   21    4 am 
    10    4   22 2  
    11    5    6 ar 
    12    8    5 ar 
    13    6    7 ar 
    14    7   10 ar 
    15    8    9 ar 
    16    8   21 1  
    17    9   10 ar 
    18    9   12 1  
    19   10   24 1  
    20   12   11 2  
    21   11   13 1  
    22   11   24 1  
    23   13   25 am 
    24   13   26 2  
    25   14   15 1  
    26   15   16 1  
    27   15   19 1  
    28   16   17 1  
    29   17   20 1  
    30   17   23 1  
    31    1   27 1  
    32    2   28 1  
    33    2   29 1  
    34    5   30 1  
    35    6   31 1  
    36    7   32 1  
    37   12   33 1  
    38   14   34 1  
    39   14   35 1  
    40   15   36 1  
    41   16   37 1  
    42   16   38 1  
    43   18   39 1  
    44   18   40 1  
    45   19   41 1  
    46   19   42 1  
    47   20   43 1  
    48   20   44 1  
    49   21   45 1  
    50   23   46 1  
    51   23   47 1  
    52   23   48 1  
    53   24   49 1  
    54   25   50 1  
    55   25   51 1  
@<TRIPOS>SUBSTRUCTURE
     1 E7H         1

