### 
### Created by X-TOOL on Wed Jan  1 15:39:35 2020
### 

@<TRIPOS>MOLECULE
6ftz_ligand
   40    42     1     0     0
SMALL
GAST_HUCK


@<TRIPOS>ATOM
      1 C1          2.0730    9.5510    2.0510 C.ar      1 E7E        -0.0557
      2 C2          1.4250   10.8080    2.1110 C.ar      1 E7E        -0.0672
      3 C3          2.1250   12.0020    1.8540 C.ar      1 E7E        -0.0353
      4 C13         4.1800    8.0830    1.6630 C.2       1 E7E         0.2252
      5 C16         3.9730    5.5780    1.5220 C.ar      1 E7E         0.0590
      6 C17         3.0640    4.5870    1.1380 C.ar      1 E7E        -0.0356
      7 C18         4.7210    2.8570    1.4630 C.ar      1 E7E        -0.0705
      8 C19         5.6570    3.8250    1.8540 C.ar      1 E7E        -0.0817
      9 C20         3.4200    3.2270    1.0920 C.ar      1 E7E        -0.0125
     10 C21         5.2850    5.1840    1.8850 C.ar      1 E7E        -0.0481
     11 C22         2.3390    2.2080    0.6990 C.3       1 E7E        -0.0051
     12 C4          3.4460    9.4210    1.7130 C.ar      1 E7E         0.0450
     13 C5          4.1220   10.6350    1.4720 C.ar      1 E7E         0.0009
     14 C6          3.4880   11.8760    1.5320 C.ar      1 E7E         0.0731
     15 N7          4.3840   12.8460    1.2730 N.pl3     1 E7E        -0.2650
     16 C8          5.5750   12.3610    1.0100 C.2       1 E7E         0.1341
     17 C9          5.5340   11.0210    1.1050 C.2       1 E7E        -0.0360
     18 C10         6.7920   13.1500    0.6960 C.2       1 E7E         0.2259
     19 N11         6.7690   14.4960    0.6160 N.am      1 E7E        -0.2986
     20 O12         7.8440   12.5430    0.5350 O.2       1 E7E        -0.3833
     21 O14         5.4000    8.1080    1.7570 O.2       1 E7E        -0.3766
     22 N15         3.4790    6.9190    1.5480 N.am      1 E7E        -0.2359
     23 N23         2.6270    0.8480    1.1890 N.4       1 E7E         0.2306
     24 H1          1.5013    8.6566    2.2707 H         1 E7E         0.0585
     25 H2          0.3707   10.8520    2.3593 H         1 E7E         0.0564
     26 H3          1.6381   12.9693    1.9019 H         1 E7E         0.0594
     27 H4          2.0547    4.8757    0.8677 H         1 E7E         0.0439
     28 H5          5.0060    1.8113    1.4473 H         1 E7E         0.0433
     29 H6          6.6624    3.5294    2.1312 H         1 E7E         0.0561
     30 H7          6.0074    5.9330    2.1886 H         1 E7E         0.0448
     31 H8          2.2675    2.1778   -0.3982 H         1 E7E         0.0976
     32 H9          1.3774    2.5364    1.1202 H         1 E7E         0.0976
     33 H10         4.1612   13.8516    1.2803 H         1 E7E         0.2269
     34 H11         6.3675   10.3384    0.9461 H         1 E7E         0.0404
     35 H12         7.6067   14.9986    0.4024 H         1 E7E         0.1806
     36 H13         5.9142   14.9915    0.7703 H         1 E7E         0.1806
     37 H14         2.4867    7.0167    1.4717 H         1 E7E         0.2249
     38 H15         1.8883    0.2245    0.9033 H         1 E7E         0.2008
     39 H16         2.6869    0.8590    2.1951 H         1 E7E         0.2008
     40 H17         3.5026    0.5304    0.8037 H         1 E7E         0.2008
@<TRIPOS>BOND
     1    1    2 ar 
     2   12    1 ar 
     3    2    3 ar 
     4    3   14 ar 
     5    4   12 1  
     6    4   21 2  
     7   22    4 am 
     8    6    5 ar 
     9    5   10 ar 
    10    5   22 1  
    11    9    6 ar 
    12    7    8 ar 
    13    7    9 ar 
    14    8   10 ar 
    15    9   11 1  
    16   11   23 1  
    17   12   13 ar 
    18   13   14 ar 
    19   13   17 1  
    20   14   15 1  
    21   15   16 1  
    22   16   17 2  
    23   16   18 1  
    24   18   19 am 
    25   18   20 2  
    26    1   24 1  
    27    2   25 1  
    28    3   26 1  
    29    6   27 1  
    30    7   28 1  
    31    8   29 1  
    32   10   30 1  
    33   11   31 1  
    34   11   32 1  
    35   15   33 1  
    36   17   34 1  
    37   19   35 1  
    38   19   36 1  
    39   22   37 1  
    40   23   38 1  
    41   23   39 1  
    42   23   40 1  
@<TRIPOS>SUBSTRUCTURE
     1 E7E         1

