### 
### Created by X-TOOL on Mon Aug  2 16:10:43 2021
### 

@<TRIPOS>MOLECULE
6fu1_ligand
   42    43     1     0     0
SMALL
GAST_HUCK


@<TRIPOS>ATOM
      1 C01        51.7620   30.5570   84.0240 C.3       1 E7Q        -0.0653
      2 C02        51.1330   30.8300   85.3220 C.3       1 E7Q        -0.0558
      3 C03        50.9800   32.3140   85.6220 C.3       1 E7Q        -0.0512
      4 C04        50.1580   33.1040   84.6340 C.3       1 E7Q        -0.0361
      5 C05        48.8770   32.3910   84.2490 C.3       1 E7Q         0.0393
      6 C06        48.1370   31.8140   85.4330 C.2       1 E7Q         0.2044
      7 C10        46.1160   33.1660   86.0770 C.3       1 E7Q         0.1895
      8 C11        45.6720   34.1770   87.1590 C.3       1 E7Q         0.0919
      9 C12        44.4980   34.8530   86.4930 C.2       1 E7Q         0.2361
     10 C15        43.7120   35.2300   84.1350 C.ar      1 E7Q         0.0959
     11 C16        42.3570   35.3410   84.4260 C.ar      1 E7Q        -0.0351
     12 C17        41.4700   35.7790   83.4580 C.ar      1 E7Q        -0.0597
     13 C18        41.9460   36.0990   82.2040 C.ar      1 E7Q         0.0256
     14 C20        43.2880   36.0200   81.9040 C.ar      1 E7Q        -0.0597
     15 C21        44.1730   35.5890   82.8750 C.ar      1 E7Q        -0.0351
     16 C22        45.6690   33.8120   84.7830 C.2       1 E7Q         0.2623
     17 N08        47.5100   32.6800   86.2620 N.am      1 E7Q        -0.1253
     18 N14        44.6240   34.6790   85.1080 N.am      1 E7Q        -0.1307
     19 O07        48.1240   30.6080   85.6550 O.2       1 E7Q        -0.3966
     20 O09        47.8190   32.4600   87.6090 O.3       1 E7Q        -0.2664
     21 O13        43.5510   35.4010   87.0380 O.2       1 E7Q        -0.3753
     22 O23        46.0950   33.6150   83.6620 O.2       1 E7Q        -0.3727
     23 CL         40.8200   36.5660   80.9580 Cl        1 E7Q        -0.0834
     24 H1         51.8396   29.4698   83.8756 H         1 E7Q         0.0230
     25 H2         52.7675   31.0026   84.0028 H         1 E7Q         0.0230
     26 H3         51.1503   30.9939   83.2210 H         1 E7Q         0.0230
     27 H4         51.7517   30.3773   86.1109 H         1 E7Q         0.0263
     28 H5         50.1345   30.3686   85.3290 H         1 E7Q         0.0263
     29 H6         51.9863   32.7571   85.6538 H         1 E7Q         0.0267
     30 H7         50.5052   32.4112   86.6095 H         1 E7Q         0.0267
     31 H8         50.7576   33.2680   83.7265 H         1 E7Q         0.0289
     32 H9         49.9009   34.0743   85.0840 H         1 E7Q         0.0289
     33 H10        49.1271   31.5709   83.5599 H         1 E7Q         0.0502
     34 H11        48.2168   33.1089   83.7404 H         1 E7Q         0.0502
     35 H12        45.4992   32.2625   86.1922 H         1 E7Q         0.0867
     36 H13        46.4720   34.8971   87.3857 H         1 E7Q         0.0562
     37 H14        45.3667   33.6649   88.0834 H         1 E7Q         0.0562
     38 H15        41.9940   35.0836   85.4145 H         1 E7Q         0.0521
     39 H16        40.4135   35.8694   83.6830 H         1 E7Q         0.0588
     40 H17        43.6462   36.2926   80.9179 H         1 E7Q         0.0588
     41 H18        45.2322   35.5310   82.6517 H         1 E7Q         0.0521
     42 H19        47.2285   31.8068   87.9656 H         1 E7Q         0.2495
@<TRIPOS>BOND
     1    2    1 1  
     2    3    2 1  
     3    4    3 1  
     4    5    4 1  
     5    6    5 1  
     6   17    6 am 
     7    6   19 2  
     8    8    7 1  
     9    7   16 1  
    10    7   17 1  
    11    9    8 1  
    12   18    9 am 
    13    9   21 2  
    14   10   11 ar 
    15   10   15 ar 
    16   10   18 1  
    17   11   12 ar 
    18   12   13 ar 
    19   13   14 ar 
    20   13   23 1  
    21   14   15 ar 
    22   16   18 am 
    23   16   22 2  
    24   17   20 1  
    25    1   24 1  
    26    1   25 1  
    27    1   26 1  
    28    2   27 1  
    29    2   28 1  
    30    3   29 1  
    31    3   30 1  
    32    4   31 1  
    33    4   32 1  
    34    5   33 1  
    35    5   34 1  
    36    7   35 1  
    37    8   36 1  
    38    8   37 1  
    39   11   38 1  
    40   12   39 1  
    41   14   40 1  
    42   15   41 1  
    43   20   42 1  
@<TRIPOS>SUBSTRUCTURE
     1 E7Q         1

