### 
### Created by X-TOOL on Wed Jan  1 15:39:36 2020
### 

@<TRIPOS>MOLECULE
6fu4_ligand
   18    18     1     0     0
SMALL
GAST_HUCK


@<TRIPOS>ATOM
      1 N          48.3070   21.3010   90.7990 N.4       1 HSM         0.2196
      2 CA         47.6910   22.2590   91.7040 C.3       1 HSM        -0.0294
      3 CB         47.7730   21.7770   93.1550 C.3       1 HSM         0.0142
      4 CG         49.2410   21.7400   93.5970 C.2       1 HSM        -0.0021
      5 ND1        50.1800   22.5850   93.2320 N.2       1 HSM        -0.3253
      6 CD2        49.8140   20.8360   94.4450 C.2       1 HSM         0.0291
      7 CE1        51.3340   22.2320   93.8210 C.2       1 HSM         0.0907
      8 NE2        51.0920   21.1450   94.5710 N.pl3     1 HSM        -0.2752
      9 H1         48.2397   21.6415   89.8527 H         1 HSM         0.1995
     10 H2         47.8309   20.4155   90.8721 H         1 HSM         0.1995
     11 H3         49.2772   21.1822   91.0450 H         1 HSM         0.1995
     12 H4         46.6342   22.3869   91.4270 H         1 HSM         0.0830
     13 H5         48.2125   23.2235   91.6157 H         1 HSM         0.0830
     14 H6         47.3411   20.7682   93.2316 H         1 HSM         0.0424
     15 H7         47.2119   22.4663   93.8030 H         1 HSM         0.0424
     16 H8         49.3059   20.0052   94.9324 H         1 HSM         0.0729
     17 H9         52.2929   22.7363   93.7103 H         1 HSM         0.1199
     18 H10        51.7826   20.6401   95.1446 H         1 HSM         0.2361
@<TRIPOS>BOND
     1    1    2 1  
     2    2    3 1  
     3    3    4 1  
     4    4    5 1  
     5    4    6 2  
     6    5    7 2  
     7    6    8 1  
     8    7    8 1  
     9    1    9 1  
    10    1   10 1  
    11    1   11 1  
    12    2   12 1  
    13    2   13 1  
    14    3   14 1  
    15    3   15 1  
    16    6   16 1  
    17    7   17 1  
    18    8   18 1  
@<TRIPOS>SUBSTRUCTURE
     1 HSM         1

