### 
### Created by X-TOOL on Wed Jan  1 15:39:38 2020
### 

@<TRIPOS>MOLECULE
6fu5_ligand
   66    69     1     0     0
SMALL
GAST_HUCK


@<TRIPOS>ATOM
      1 C15        -1.3240  -37.6770   24.1550 C.3       1 E7N         0.0672
      2 C17         0.7650  -33.8910   23.4670 C.ar      1 E7N        -0.0659
      3 C20         4.6580  -30.2020   20.0500 C.ar      1 E7N        -0.0431
      4 C21         4.5570  -30.4960   18.7170 C.ar      1 E7N        -0.0472
      5 C22         5.5690  -30.1330   17.8190 C.ar      1 E7N         0.0922
      6 C26         7.0300  -33.4010   16.9900 C.3       1 E7N        -0.0342
      7 C02         3.0690  -29.6430   22.0080 C.ar      1 E7N         0.1156
      8 C04         1.4830  -31.0830   22.9500 C.ar      1 E7N        -0.0002
      9 C05         1.8410  -32.1020   22.0500 C.ar      1 E7N        -0.0133
     10 C06         1.0750  -33.4400   22.1830 C.ar      1 E7N        -0.0314
     11 C07         0.6670  -34.1940   21.0700 C.ar      1 E7N        -0.0659
     12 C08        -0.0410  -35.4110   21.2560 C.ar      1 E7N        -0.0432
     13 C09        -0.3400  -35.8610   22.5500 C.ar      1 E7N         0.0416
     14 C11        -0.7900  -38.3800   21.9400 C.3       1 E7N         0.0672
     15 C12         0.4240  -39.1580   22.4740 C.3       1 E7N        -0.0134
     16 C14        -0.1100  -38.4400   24.7020 C.3       1 E7N        -0.0134
     17 C16         0.0610  -35.1010   23.6520 C.ar      1 E7N        -0.0432
     18 C18         2.8680  -31.8710   21.0870 C.ar      1 E7N        -0.0439
     19 C19         3.5120  -30.6000   21.0630 C.ar      1 E7N         0.0172
     20 C25         5.4800  -33.3610   17.1360 C.3       1 E7N         0.0893
     21 C27         7.5140  -34.6290   16.1850 C.3       1 E7N        -0.0637
     22 C30         6.7120  -29.4450   18.2610 C.ar      1 E7N         0.1089
     23 C32         7.7650  -29.2510   16.0420 C.3       1 E7N         0.0562
     24 C33         6.8010  -29.1460   19.6020 C.ar      1 E7N        -0.0470
     25 C34         5.7930  -29.5160   20.4930 C.ar      1 E7N        -0.0804
     26 N01         3.6820  -28.2850   22.0530 N.pl3     1 E7N        -0.3211
     27 N03         2.1050  -29.9040   22.8960 N.ar      1 E7N        -0.2864
     28 N10        -1.1000  -37.1620   22.7680 N.pl3     1 E7N        -0.2981
     29 N13         0.3470  -39.4950   23.8480 N.4       1 E7N         0.2298
     30 N23         5.3540  -30.5050   16.4220 N.am      1 E7N        -0.1941
     31 O28         5.0380  -32.3960   14.5830 O.2       1 E7N        -0.1503
     32 O29         3.3070  -32.0950   16.0220 O.2       1 E7N        -0.1503
     33 O31         7.7940  -29.0260   17.4380 O.3       1 E7N        -0.3281
     34 S24         4.7750  -32.0850   16.0010 S.o2      1 E7N         0.0582
     35 H1         -1.5331  -36.8247   24.8182 H         1 E7N         0.0568
     36 H2         -2.1907  -38.3543   24.1440 H         1 E7N         0.0568
     37 H3          1.0671  -33.3076   24.3292 H         1 E7N         0.0586
     38 H4          3.6804  -31.0178   18.3506 H         1 E7N         0.0436
     39 H5          7.4787  -33.4373   17.9937 H         1 E7N         0.0279
     40 H6          7.3600  -32.4876   16.4736 H         1 E7N         0.0279
     41 H7          0.7048  -31.2546   23.6848 H         1 E7N         0.0759
     42 H8          0.8928  -33.8465   20.0683 H         1 E7N         0.0586
     43 H9         -0.3509  -35.9933   20.3958 H         1 E7N         0.0519
     44 H10        -1.6666  -39.0445   21.9472 H         1 E7N         0.0568
     45 H11        -0.5797  -38.0616   20.9083 H         1 E7N         0.0568
     46 H12         1.3218  -38.5411   22.3213 H         1 E7N         0.0833
     47 H13         0.5165  -40.0895   21.8964 H         1 E7N         0.0833
     48 H14        -0.3844  -38.8759   25.6739 H         1 E7N         0.0833
     49 H15         0.7145  -37.7251   24.8404 H         1 E7N         0.0833
     50 H16        -0.1697  -35.4423   24.6547 H         1 E7N         0.0519
     51 H17         3.1531  -32.6478   20.3867 H         1 E7N         0.0675
     52 H18         5.2177  -33.1104   18.1744 H         1 E7N         0.0523
     53 H19         5.0639  -34.3466   16.8803 H         1 E7N         0.0523
     54 H20         8.6114  -34.6098   16.1113 H         1 E7N         0.0230
     55 H21         7.0782  -34.6006   15.1754 H         1 E7N         0.0230
     56 H22         7.1969  -35.5503   16.6955 H         1 E7N         0.0230
     57 H23         8.6862  -28.8571   15.5879 H         1 E7N         0.0572
     58 H24         6.8939  -28.7399   15.6062 H         1 E7N         0.0572
     59 H25         7.6924  -30.3310   15.8461 H         1 E7N         0.0572
     60 H26         7.6697  -28.6136   19.9722 H         1 E7N         0.0494
     61 H27         5.8912  -29.2681   21.5437 H         1 E7N         0.0450
     62 H28         3.3541  -27.5946   22.7434 H         1 E7N         0.1779
     63 H29         4.4335  -28.0371   21.3937 H         1 E7N         0.1779
     64 H30         1.2667  -39.7704   24.1551 H         1 E7N         0.2015
     65 H31        -0.2866  -40.2730   23.9448 H         1 E7N         0.2015
     66 H32         5.5432  -29.8400   15.6995 H         1 E7N         0.2118
@<TRIPOS>BOND
     1    1   16 1  
     2   28    1 1  
     3   10    2 ar 
     4    2   17 ar 
     5    4    3 ar 
     6    3   19 1  
     7    3   25 ar 
     8    5    4 ar 
     9    5   22 ar 
    10   30    5 1  
    11   20    6 1  
    12    6   21 1  
    13   19    7 ar 
    14    7   26 1  
    15    7   27 ar 
    16    9    8 ar 
    17   27    8 ar 
    18    9   10 1  
    19   18    9 ar 
    20   10   11 ar 
    21   11   12 ar 
    22   12   13 ar 
    23   17   13 ar 
    24   13   28 1  
    25   14   15 1  
    26   28   14 1  
    27   15   29 1  
    28   16   29 1  
    29   19   18 ar 
    30   34   20 1  
    31   22   24 ar 
    32   22   33 1  
    33   33   23 1  
    34   24   25 ar 
    35   30   34 am 
    36   34   31 2  
    37   34   32 2  
    38    1   35 1  
    39    1   36 1  
    40    2   37 1  
    41    4   38 1  
    42    6   39 1  
    43    6   40 1  
    44    8   41 1  
    45   11   42 1  
    46   12   43 1  
    47   14   44 1  
    48   14   45 1  
    49   15   46 1  
    50   15   47 1  
    51   16   48 1  
    52   16   49 1  
    53   17   50 1  
    54   18   51 1  
    55   20   52 1  
    56   20   53 1  
    57   21   54 1  
    58   21   55 1  
    59   21   56 1  
    60   23   57 1  
    61   23   58 1  
    62   23   59 1  
    63   24   60 1  
    64   25   61 1  
    65   26   62 1  
    66   26   63 1  
    67   29   64 1  
    68   29   65 1  
    69   30   66 1  
@<TRIPOS>SUBSTRUCTURE
     1 E7N         1

