### 
### Created by X-TOOL on Wed Jan  1 15:39:38 2020
### 

@<TRIPOS>MOLECULE
6fug_ligand
   44    47     1     0     0
SMALL
GAST_HUCK


@<TRIPOS>ATOM
      1 N1          1.5830   -1.1800   -9.0950 N.2       1 E85        -0.4130
      2 N3          2.0500   -2.3520   -8.5290 N.pl3     1 E85        -0.2491
      3 C4          3.3160   -2.0810   -8.1290 C.2       1 E85         0.2644
      4 C5          3.6910   -0.6970   -8.4710 C.ar      1 E85         0.1501
      5 C6          2.5090   -0.2070   -9.0740 C.ar      1 E85         0.0317
      6 C8          3.5100    1.8870   -9.3920 C.ar      1 E85         0.0731
      7 N12         5.9990   -0.2370   -7.9120 N.pl3     1 E85        -0.2539
      8 C15         8.2410    0.0780   -7.3280 C.ar      1 E85        -0.0110
      9 C17         9.4710    0.6980   -7.4550 C.ar      1 E85         0.0781
     10 C20         8.6440    1.9130   -9.3820 C.ar      1 E85        -0.0798
     11 C22         7.4130    1.2900   -9.2540 C.ar      1 E85        -0.0493
     12 C28         3.9940   -4.3570   -7.5680 C.ar      1 E85         0.0756
     13 O24        10.4710    0.3650   -6.5780 O.3       1 E85        -0.3361
     14 C18         9.6740    1.6160   -8.4830 C.ar      1 E85        -0.0448
     15 C14         7.1880    0.3640   -8.2020 C.ar      1 E85         0.0552
     16 C11         4.7890    0.1690   -8.3630 C.ar      1 E85         0.1724
     17 N10         4.6490    1.4440   -8.8340 N.ar      1 E85        -0.2457
     18 N7          2.4380    1.0880   -9.5160 N.ar      1 E85        -0.2854
     19 N26         4.1860   -3.0110   -7.6210 N.pl3     1 E85        -0.2047
     20 C36         3.1280   -5.0850   -8.3990 C.ar      1 E85        -0.0410
     21 C34         2.9320   -6.4400   -8.1490 C.ar      1 E85        -0.0760
     22 C32         3.5550   -7.0940   -7.0840 C.ar      1 E85        -0.0654
     23 C31         4.4180   -6.3890   -6.2660 C.ar      1 E85        -0.0067
     24 C29         4.6220   -5.0450   -6.5290 C.ar      1 E85        -0.0282
     25 C38         5.1070   -7.0530   -5.0930 C.3       1 E85        -0.0039
     26 N41         6.5560   -6.9140   -5.2320 N.4       1 E85         0.2307
     27 H1          1.5426   -3.2431   -8.4319 H         1 E85         0.2557
     28 H2          3.4554    2.9091   -9.7490 H         1 E85         0.1086
     29 H3          6.0234   -1.0659   -7.3011 H         1 E85         0.2162
     30 H4          8.0904   -0.6447   -6.5342 H         1 E85         0.0455
     31 H5          8.8089    2.6300  -10.1781 H         1 E85         0.0561
     32 H6          6.6197    1.5104   -9.9591 H         1 E85         0.0446
     33 H7         11.2514    0.8658   -6.7844 H         1 E85         0.2478
     34 H8         10.6366    2.1035   -8.5871 H         1 E85         0.0448
     35 H9          5.0747   -2.6548   -7.2411 H         1 E85         0.2421
     36 H10         2.6193   -4.5988   -9.2235 H         1 E85         0.0497
     37 H11         2.2756   -7.0050   -8.8009 H         1 E85         0.0574
     38 H12         3.3636   -8.1451   -6.9004 H         1 E85         0.0474
     39 H13         5.3074   -4.4970   -5.8926 H         1 E85         0.0490
     40 H14         4.8423   -8.1204   -5.0694 H         1 E85         0.0977
     41 H15         4.7814   -6.5737   -4.1580 H         1 E85         0.0977
     42 H16         7.0125   -7.3568   -4.4500 H         1 E85         0.2008
     43 H17         6.7992   -5.9360   -5.2533 H         1 E85         0.2008
     44 H18         6.8551   -7.3534   -6.0884 H         1 E85         0.2008
@<TRIPOS>BOND
     1    1    2 1  
     2    5    1 2  
     3    3    2 1  
     4    4    3 2  
     5    3   19 1  
     6    4    5 ar 
     7   16    4 ar 
     8    5   18 ar 
     9    6   17 ar 
    10   18    6 ar 
    11   15    7 1  
    12    7   16 1  
    13    9    8 ar 
    14    8   15 ar 
    15    9   13 1  
    16   14    9 ar 
    17   10   11 ar 
    18   10   14 ar 
    19   11   15 ar 
    20   19   12 1  
    21   12   20 ar 
    22   12   24 ar 
    23   16   17 ar 
    24   20   21 ar 
    25   21   22 ar 
    26   22   23 ar 
    27   23   24 ar 
    28   23   25 1  
    29   25   26 1  
    30    2   27 1  
    31    6   28 1  
    32    7   29 1  
    33    8   30 1  
    34   10   31 1  
    35   11   32 1  
    36   13   33 1  
    37   14   34 1  
    38   19   35 1  
    39   20   36 1  
    40   21   37 1  
    41   22   38 1  
    42   24   39 1  
    43   25   40 1  
    44   25   41 1  
    45   26   42 1  
    46   26   43 1  
    47   26   44 1  
@<TRIPOS>SUBSTRUCTURE
     1 E85         1

