### 
### Created by X-TOOL on Wed Jan  1 15:39:34 2020
### 

@<TRIPOS>MOLECULE
6fui_ligand
   54    57     1     0     0
SMALL
GAST_HUCK


@<TRIPOS>ATOM
      1 N1          7.0090    9.7010    0.8850 N.pl3     1 E7W        -0.2884
      2 C5          8.9910    8.5170    1.2110 C.3       1 E7W         0.0351
      3 C7          9.8400    9.7850    1.3250 C.3       1 E7W        -0.0364
      4 C10        10.5330   10.0990    0.0140 C.3       1 E7W        -0.0511
      5 C13         9.4250   10.5400   -0.8140 C.3       1 E7W        -0.0507
      6 C26         3.1910    9.2470    1.8090 C.ar      1 E7W         0.0486
      7 O21         8.3530    6.7390    2.5510 O.co2     1 E7W        -0.5686
      8 C19         8.5810    8.0250    2.5560 C.2       1 E7W         0.0401
      9 O20         8.5770    8.8170    3.5160 O.co2     1 E7W        -0.5686
     10 C16         8.4230    9.4660   -1.0300 C.3       1 E7W        -0.0277
     11 C3          7.8520    8.7310    0.2550 C.3       1 E7W         0.0561
     12 C23         5.7620    9.4690    1.2330 C.ar      1 E7W         0.1629
     13 N28         5.1730    8.2650    1.2220 N.ar      1 E7W        -0.2339
     14 C27         3.9450    8.0210    1.5250 C.ar      1 E7W         0.1546
     15 C47         1.8380    9.1610    2.1090 C.ar      1 E7W        -0.0450
     16 C49         1.0990   10.3750    2.2900 C.ar      1 E7W        -0.0587
     17 C51         1.6910   11.6290    2.1640 C.ar      1 E7W        -0.0603
     18 C53         3.0090   11.7340    1.8450 C.ar      1 E7W        -0.0477
     19 C25         3.8090   10.5250    1.7420 C.ar      1 E7W         0.0268
     20 N24         5.0620   10.6680    1.3480 N.ar      1 E7W        -0.2918
     21 N29         3.4080    6.7530    1.6470 N.pl3     1 E7W        -0.2481
     22 C31         3.9320    5.5180    1.5190 C.ar      1 E7W         0.0622
     23 C39         5.2770    5.2440    1.7010 C.ar      1 E7W        -0.0436
     24 C37         5.8120    3.9390    1.5510 C.ar      1 E7W        -0.0769
     25 C35         5.0190    2.9050    1.1630 C.ar      1 E7W        -0.0661
     26 C34         3.7310    3.1930    0.8380 C.ar      1 E7W        -0.0076
     27 C32         3.2370    4.4710    1.0840 C.ar      1 E7W        -0.0308
     28 C41         2.8810    2.0480    0.3220 C.3       1 E7W        -0.0041
     29 N44         2.2360    1.3790    1.3760 N.4       1 E7W         0.2307
     30 H1          7.4012   10.6339    1.0768 H         1 E7W         0.1872
     31 H2          9.6280    7.7349    0.7722 H         1 E7W         0.0489
     32 H3         10.5999    9.6392    2.1068 H         1 E7W         0.0286
     33 H4          9.1898   10.6290    1.5985 H         1 E7W         0.0286
     34 H5         11.0158    9.2049   -0.4073 H         1 E7W         0.0266
     35 H6         11.2812   10.8957    0.1380 H         1 E7W         0.0266
     36 H7          9.8179   10.8593   -1.7906 H         1 E7W         0.0266
     37 H8          8.9315   11.3907   -0.3214 H         1 E7W         0.0266
     38 H9          8.8913    8.7010   -1.6668 H         1 E7W         0.0289
     39 H10         7.5696    9.9129   -1.5610 H         1 E7W         0.0289
     40 H11         7.3273    7.7960    0.0091 H         1 E7W         0.0582
     41 H12         1.3517    8.1969    2.2041 H         1 E7W         0.0675
     42 H13         0.0443   10.3153    2.5330 H         1 E7W         0.0592
     43 H14         1.0998   12.5240    2.3206 H         1 E7W         0.0661
     44 H15         3.4564   12.7057    1.6700 H         1 E7W         0.0589
     45 H16         2.4055    6.7519    1.8833 H         1 E7W         0.2227
     46 H17         5.9446    6.0554    1.9675 H         1 E7W         0.0487
     47 H18         6.8636    3.7643    1.7477 H         1 E7W         0.0572
     48 H19         5.3990    1.8909    1.1147 H         1 E7W         0.0469
     49 H20         2.1799    4.6285    0.9028 H         1 E7W         0.0481
     50 H21         3.5255    1.3358   -0.2140 H         1 E7W         0.0977
     51 H22         2.1223    2.4467   -0.3675 H         1 E7W         0.0977
     52 H23         1.6796    0.6249    1.0048 H         1 E7W         0.2008
     53 H24         1.6399    2.0251    1.8693 H         1 E7W         0.2008
     54 H25         2.9257    1.0071    2.0100 H         1 E7W         0.2008
@<TRIPOS>BOND
     1    1   11 1  
     2   12    1 1  
     3    2    3 1  
     4    2    8 1  
     5   11    2 1  
     6    3    4 1  
     7    5    4 1  
     8   10    5 1  
     9   14    6 ar 
    10    6   15 ar 
    11    6   19 ar 
    12    8    7 ar 
    13    8    9 ar 
    14   11   10 1  
    15   13   12 ar 
    16   12   20 ar 
    17   13   14 ar 
    18   14   21 1  
    19   15   16 ar 
    20   16   17 ar 
    21   17   18 ar 
    22   18   19 ar 
    23   19   20 ar 
    24   21   22 1  
    25   22   23 ar 
    26   22   27 ar 
    27   23   24 ar 
    28   24   25 ar 
    29   25   26 ar 
    30   26   27 ar 
    31   26   28 1  
    32   28   29 1  
    33    1   30 1  
    34    2   31 1  
    35    3   32 1  
    36    3   33 1  
    37    4   34 1  
    38    4   35 1  
    39    5   36 1  
    40    5   37 1  
    41   10   38 1  
    42   10   39 1  
    43   11   40 1  
    44   15   41 1  
    45   16   42 1  
    46   17   43 1  
    47   18   44 1  
    48   21   45 1  
    49   23   46 1  
    50   24   47 1  
    51   25   48 1  
    52   27   49 1  
    53   28   50 1  
    54   28   51 1  
    55   29   52 1  
    56   29   53 1  
    57   29   54 1  
@<TRIPOS>SUBSTRUCTURE
     1 E7W         1

