### 
### Created by X-TOOL on Wed Jan  1 15:39:38 2020
### 

@<TRIPOS>MOLECULE
6fuj_ligand
   44    45     1     0     0
SMALL
GAST_HUCK


@<TRIPOS>ATOM
      1 N1          9.8650   47.2850   72.5540 N.4       1 E8B         0.2308
      2 C4          8.5630   47.7940   72.9790 C.3       1 E8B        -0.0017
      3 C7          8.2920   49.2380   72.6490 C.ar      1 E8B         0.0017
      4 C8          7.1690   49.8140   73.2160 C.ar      1 E8B        -0.0481
      5 C10         6.8000   51.1460   72.9020 C.ar      1 E8B        -0.0282
      6 C13         8.7610   51.3460   71.5720 C.ar      1 E8B        -0.0675
      7 C15         9.0810   50.0050   71.8150 C.ar      1 E8B        -0.0551
      8 C17         5.6170   51.7810   73.5560 C.ar      1 E8B        -0.0334
      9 C20         3.8360   53.4350   73.5030 C.ar      1 E8B         0.0666
     10 C21         3.4780   53.1180   74.7810 C.ar      1 E8B        -0.0410
     11 O30         3.2440   53.8480   70.7690 O.2       1 E8B        -0.3849
     12 C29         3.0400   54.6990   71.6200 C.2       1 E8B         0.2037
     13 C31         2.4770   56.0760   71.2700 C.3       1 E8B         0.0455
     14 C34         3.5660   57.1010   70.8120 C.3       1 E8B        -0.0293
     15 C40         4.3480   56.6620   69.5590 C.3       1 E8B        -0.0606
     16 C36         4.5450   57.5380   71.9210 C.3       1 E8B        -0.0606
     17 N27         3.2360   54.5120   72.8440 N.am      1 E8B        -0.2340
     18 C18         4.9320   52.7940   72.9220 C.ar      1 E8B        -0.0342
     19 C23         4.1510   52.0990   75.4580 C.ar      1 E8B        -0.0745
     20 C25         5.2240   51.4340   74.8680 C.ar      1 E8B        -0.0694
     21 C11         7.6230   51.9410   72.0770 C.ar      1 E8B        -0.0611
     22 H1          9.9498   46.3161   72.8190 H         1 E8B         0.2008
     23 H2         10.5957   47.8196   72.9970 H         1 E8B         0.2008
     24 H3          9.9477   47.3680   71.5528 H         1 E8B         0.2008
     25 H4          8.4933   47.6771   74.0705 H         1 E8B         0.0979
     26 H5          7.7862   47.1842   72.4945 H         1 E8B         0.0979
     27 H6          6.5642   49.2398   73.9085 H         1 E8B         0.0562
     28 H7          9.4333   51.9400   70.9635 H         1 E8B         0.0600
     29 H8          9.9538   49.5660   71.3454 H         1 E8B         0.0561
     30 H9          2.6734   53.6558   75.2693 H         1 E8B         0.0506
     31 H10         1.9708   56.4807   72.1588 H         1 E8B         0.0510
     32 H11         1.7477   55.9565   70.4552 H         1 E8B         0.0510
     33 H12         3.0100   58.0055   70.5246 H         1 E8B         0.0320
     34 H13         5.0908   57.4316   69.3021 H         1 E8B         0.0234
     35 H14         3.6504   56.5307   68.7187 H         1 E8B         0.0234
     36 H15         4.8612   55.7104   69.7617 H         1 E8B         0.0234
     37 H16         3.9768   57.8491   72.8100 H         1 E8B         0.0234
     38 H17         5.1537   58.3807   71.5616 H         1 E8B         0.0234
     39 H18         5.2026   56.6958   72.1824 H         1 E8B         0.0234
     40 H19         2.9134   55.2465   73.4410 H         1 E8B         0.2255
     41 H20         5.2558   53.1051   71.9354 H         1 E8B         0.0504
     42 H21         3.8342   51.8213   76.4568 H         1 E8B         0.0579
     43 H22         5.7520   50.6580   75.4103 H         1 E8B         0.0497
     44 H23         7.3731   52.9712   71.8503 H         1 E8B         0.0567
@<TRIPOS>BOND
     1    2    1 1  
     2    3    2 1  
     3    4    3 ar 
     4    3    7 ar 
     5    5    4 ar 
     6    8    5 1  
     7    5   21 ar 
     8    6    7 ar 
     9   21    6 ar 
    10   18    8 ar 
    11    8   20 ar 
    12    9   10 ar 
    13   17    9 1  
    14    9   18 ar 
    15   10   19 ar 
    16   12   11 2  
    17   12   13 1  
    18   12   17 am 
    19   13   14 1  
    20   14   15 1  
    21   14   16 1  
    22   19   20 ar 
    23    1   22 1  
    24    1   23 1  
    25    1   24 1  
    26    2   25 1  
    27    2   26 1  
    28    4   27 1  
    29    6   28 1  
    30    7   29 1  
    31   10   30 1  
    32   13   31 1  
    33   13   32 1  
    34   14   33 1  
    35   15   34 1  
    36   15   35 1  
    37   15   36 1  
    38   16   37 1  
    39   16   38 1  
    40   16   39 1  
    41   17   40 1  
    42   18   41 1  
    43   19   42 1  
    44   20   43 1  
    45   21   44 1  
@<TRIPOS>SUBSTRUCTURE
     1 E8B         1

