### 
### Created by X-TOOL on Wed Jan  1 15:39:35 2020
### 

@<TRIPOS>MOLECULE
6ful_ligand
   20    20     1     0     0
SMALL
GAST_HUCK


@<TRIPOS>ATOM
      1 C4         23.5100    5.6480   13.9610 C.2       1 E7Z         0.0819
      2 C5         22.9150    6.7560   14.0320 C.2       1 E7Z        -0.0455
      3 C6         22.9200    7.6240   12.8360 C.3       1 E7Z         0.0959
      4 C7         22.2020    8.9530   12.8920 C.2       1 E7Z         0.0643
      5 N          23.5530    7.2480   11.7130 N.pl3     1 E7Z        -0.3065
      6 C1         23.5530    8.1140   10.5390 C.3       1 E7Z         0.0167
      7 C2         24.2040    6.0240   11.6560 C.2       1 E7Z         0.0254
      8 C3         24.2040    5.2240   12.7310 C.2       1 E7Z         0.1026
      9 O1         23.5540    4.7920   15.0320 O.3       1 E7Z        -0.3498
     10 O2         22.8610   10.0080   12.7440 O.co2     1 E7Z        -0.5649
     11 O3         20.9590    8.9380   13.0850 O.co2     1 E7Z        -0.5649
     12 O4         24.8400    3.9840   12.7220 O.3       1 E7Z        -0.3571
     13 H1         22.4121    7.0650   14.9472 H         1 E7Z         0.0278
     14 H2         22.0010    7.1374   12.4774 H         1 E7Z         0.0800
     15 H3         24.1201    7.6329    9.7285 H         1 E7Z         0.0483
     16 H4         24.0215    9.0763   10.7931 H         1 E7Z         0.0483
     17 H5         22.5175    8.2858   10.2101 H         1 E7Z         0.0483
     18 H6         24.7117    5.7154   10.7434 H         1 E7Z         0.0743
     19 H7         24.4584    4.6506   15.2860 H         1 E7Z         0.2407
     20 H8         24.4556    3.4371   12.0469 H         1 E7Z         0.2339
@<TRIPOS>BOND
     1    1    2 2  
     2    1    8 1  
     3    1    9 1  
     4    2    3 1  
     5    3    4 1  
     6    3    5 1  
     7    4   10 ar 
     8    4   11 ar 
     9    5    6 1  
    10    5    7 1  
    11    7    8 2  
    12    8   12 1  
    13    2   13 1  
    14    3   14 1  
    15    6   15 1  
    16    6   16 1  
    17    6   17 1  
    18    7   18 1  
    19    9   19 1  
    20   12   20 1  
@<TRIPOS>SUBSTRUCTURE
     1 E7Z         1

