### 
### Created by X-TOOL on Wed Jan  1 15:39:35 2020
### 

@<TRIPOS>MOLECULE
6fut_ligand
   52    55     1     0     0
SMALL
GAST_HUCK


@<TRIPOS>ATOM
      1 C3          2.3940   10.0840  -24.3520 C.3       1 E82         0.0728
      2 C42         1.8440   17.7020  -19.7140 C.ar      1 E82        -0.0676
      3 C44         1.2730   17.1520  -20.8410 C.ar      1 E82        -0.0608
      4 C46         5.1600   15.8280  -19.7910 C.3       1 E82        -0.0017
      5 C11         5.3010    9.1960  -24.4620 C.3       1 E82        -0.0213
      6 C14         4.4910    9.1180  -23.2080 C.ar      1 E82        -0.0388
      7 C15         3.1320    9.5130  -23.2230 C.ar      1 E82        -0.0160
      8 C16         2.4190    9.3590  -22.0190 C.ar      1 E82        -0.0647
      9 C18         2.9820    8.8210  -20.8540 C.ar      1 E82        -0.0754
     10 C20         4.3020    8.4780  -20.8560 C.ar      1 E82        -0.0755
     11 C22         5.0290    8.6010  -22.0050 C.ar      1 E82        -0.0668
     12 C24         1.1130   12.1840  -24.6150 C.2       1 E82         0.2070
     13 C26         0.8810   13.6440  -24.2730 C.ar      1 E82         0.0507
     14 C27         1.5250   14.1810  -23.1310 C.ar      1 E82        -0.0342
     15 C29         1.2620   15.5170  -22.8170 C.ar      1 E82        -0.0140
     16 C30         0.3340   16.2860  -23.4940 C.ar      1 E82        -0.0500
     17 O25         0.1680   11.6750  -25.3010 O.2       1 E82        -0.3844
     18 N1          2.1470   11.5700  -24.1380 N.am      1 E82        -0.2729
     19 C8          4.6990   10.0630  -25.5610 C.3       1 E82        -0.0405
     20 C5          3.1960    9.8890  -25.6620 C.3       1 E82        -0.0194
     21 C34        -0.0790   14.4130  -24.9310 C.ar      1 E82        -0.0420
     22 C32        -0.3120   15.7680  -24.6300 C.ar      1 E82        -0.0557
     23 C36         1.9460   16.1740  -21.6380 C.ar      1 E82        -0.0235
     24 C40         3.1400   17.3130  -19.3480 C.ar      1 E82        -0.0551
     25 C39         3.7990   16.3350  -20.1440 C.ar      1 E82         0.0017
     26 C37         3.2280   15.8290  -21.2890 C.ar      1 E82        -0.0478
     27 N49         6.2400   16.6910  -20.3210 N.4       1 E82         0.2308
     28 H1          1.4262    9.5687  -24.4408 H         1 E82         0.0704
     29 H2          1.2986   18.4254  -19.1188 H         1 E82         0.0600
     30 H3          0.2794   17.4717  -21.1335 H         1 E82         0.0567
     31 H4          5.2793   14.8171  -20.2079 H         1 E82         0.0979
     32 H5          5.2477   15.7855  -18.6953 H         1 E82         0.0979
     33 H6          5.4185    8.1761  -24.8571 H         1 E82         0.0411
     34 H7          6.2890    9.6061  -24.2058 H         1 E82         0.0411
     35 H8          1.3817    9.6725  -21.9917 H         1 E82         0.0538
     36 H9          2.3778    8.6797  -19.9651 H         1 E82         0.0541
     37 H10         4.7711    8.1099  -19.9507 H         1 E82         0.0541
     38 H11         6.0668    8.2881  -21.9957 H         1 E82         0.0537
     39 H12         2.1942   13.5802  -22.5258 H         1 E82         0.0677
     40 H13         0.1046   17.2878  -23.1491 H         1 E82         0.0658
     41 H14         2.8121   12.0942  -23.6061 H         1 E82         0.1873
     42 H15         5.1542    9.7843  -26.5228 H         1 E82         0.0288
     43 H16         4.9205   11.1181  -25.3425 H         1 E82         0.0288
     44 H17         2.8226   10.6187  -26.3955 H         1 E82         0.0309
     45 H18         3.0003    8.8698  -26.0264 H         1 E82         0.0309
     46 H19        -0.6721   13.9461  -25.7090 H         1 E82         0.0669
     47 H20        -0.9589   16.3830  -25.2450 H         1 E82         0.0629
     48 H21         3.6271   17.7457  -18.4817 H         1 E82         0.0560
     49 H22         3.7943   15.1534  -21.9197 H         1 E82         0.0562
     50 H23         7.1349   16.3091  -20.0578 H         1 E82         0.2008
     51 H24         6.1458   17.6194  -19.9400 H         1 E82         0.2008
     52 H25         6.1747   16.7320  -21.3260 H         1 E82         0.2008
@<TRIPOS>BOND
     1    1    7 1  
     2   18    1 1  
     3    1   20 1  
     4    2    3 ar 
     5   24    2 ar 
     6    3   23 ar 
     7   25    4 1  
     8    4   27 1  
     9    6    5 1  
    10   19    5 1  
    11    7    6 ar 
    12    6   11 ar 
    13    7    8 ar 
    14    8    9 ar 
    15    9   10 ar 
    16   11   10 ar 
    17   13   12 1  
    18   12   17 2  
    19   12   18 am 
    20   14   13 ar 
    21   13   21 ar 
    22   15   14 ar 
    23   15   16 ar 
    24   23   15 1  
    25   16   22 ar 
    26   20   19 1  
    27   22   21 ar 
    28   23   26 ar 
    29   24   25 ar 
    30   25   26 ar 
    31    1   28 1  
    32    2   29 1  
    33    3   30 1  
    34    4   31 1  
    35    4   32 1  
    36    5   33 1  
    37    5   34 1  
    38    8   35 1  
    39    9   36 1  
    40   10   37 1  
    41   11   38 1  
    42   14   39 1  
    43   16   40 1  
    44   18   41 1  
    45   19   42 1  
    46   19   43 1  
    47   20   44 1  
    48   20   45 1  
    49   21   46 1  
    50   22   47 1  
    51   24   48 1  
    52   26   49 1  
    53   27   50 1  
    54   27   51 1  
    55   27   52 1  
@<TRIPOS>SUBSTRUCTURE
     1 E82         1

