### 
### Created by X-TOOL on Mon Aug  2 16:10:03 2021
### 

@<TRIPOS>MOLECULE
6fv1_ligand
   77    79     1     0     0
SMALL
GAST_HUCK


@<TRIPOS>ATOM
      1 C10        49.7300    5.1970   51.9530 C.ar      1 E8E        -0.0580
      2 C20        51.5130   12.1820   48.4540 C.3       1 E8E         0.1301
      3 O01        50.6980    9.8350   47.2310 O.2       1 E8E        -0.3904
      4 C02        50.8750    9.8740   48.5050 C.2       1 E8E         0.1942
      5 C03        50.7490    8.7060   49.4970 C.2       1 E8E         0.0113
      6 C05        50.2770    7.3810   49.0190 C.2       1 E8E        -0.0379
      7 C07        50.1260    6.2790   49.8520 C.ar      1 E8E        -0.0147
      8 C08        49.9130    6.3890   51.2340 C.ar      1 E8E        -0.0501
      9 C12        49.7400    3.9360   51.3290 C.ar      1 E8E        -0.0589
     10 C14        49.9320    3.8290   49.9580 C.ar      1 E8E        -0.0580
     11 C16        50.1170    5.0010   49.2360 C.ar      1 E8E        -0.0501
     12 C74        56.5390   15.8950   51.1770 C.ar      1 E8E        -0.0584
     13 C82        57.1280   15.2100   52.2690 C.ar      1 E8E        -0.0685
     14 C80        58.1380   15.8530   52.9660 C.ar      1 E8E        -0.0687
     15 C78        58.5990   17.1280   52.5790 C.ar      1 E8E        -0.0685
     16 C76        58.0210   17.7730   51.4770 C.ar      1 E8E        -0.0584
     17 C73        56.9900   17.1570   50.7420 C.ar      1 E8E        -0.0210
     18 C70        56.3960   17.8660   49.6710 C.3       1 E8E         0.0645
     19 N68        55.4110   17.0110   48.9610 N.am      1 E8E        -0.2734
     20 C66        55.6400   16.2790   47.8350 C.2       1 E8E         0.2091
     21 O67        56.7060   16.2380   47.2270 O.2       1 E8E        -0.3940
     22 C57        54.4480   15.4640   47.4340 C.3       1 E8E         0.1665
     23 O58        53.3330   15.8070   48.3620 O.3       1 E8E        -0.3691
     24 C40        54.7030   13.9740   47.6240 C.3       1 E8E         0.0873
     25 C42        55.6450   13.3410   46.5500 C.3       1 E8E        -0.0054
     26 C45        55.9850   11.8690   46.8290 C.3       1 E8E         0.0527
     27 C54        56.8230   11.7180   48.1250 C.3       1 E8E        -0.0129
     28 C51        57.7820   10.5880   47.8000 C.3       1 E8E         0.0332
     29 N49        57.8300   10.5680   46.2890 N.am      1 E8E        -0.2866
     30 C47        56.8470   11.3140   45.7720 C.2       1 E8E         0.1792
     31 O48        56.5950   11.3560   44.5610 O.2       1 E8E        -0.3968
     32 N38        53.3520   13.3660   47.5300 N.am      1 E8E        -0.2770
     33 C36        52.8730   12.6670   48.6110 C.2       1 E8E         0.2020
     34 O37        53.4800   12.5010   49.6630 O.2       1 E8E        -0.3945
     35 C22        50.5870   13.2470   49.0590 C.3       1 E8E        -0.0102
     36 C25        49.0970   12.9040   48.8280 C.3       1 E8E        -0.0425
     37 C34        48.6620   13.1870   47.4050 C.3       1 E8E        -0.0625
     38 C26        48.2450   13.7990   49.7910 C.3       1 E8E        -0.0625
     39 N18        51.3490   10.9270   49.1710 N.am      1 E8E        -0.2673
     40 H1         49.5759    5.2500   53.0247 H         1 E8E         0.0626
     41 H2         51.2813   12.0343   47.3889 H         1 E8E         0.0798
     42 H3         51.0047    8.8495   50.5458 H         1 E8E         0.0668
     43 H4         50.0373    7.2676   47.9628 H         1 E8E         0.0747
     44 H5         49.8906    7.3544   51.7266 H         1 E8E         0.0650
     45 H6         49.5967    3.0408   51.9233 H         1 E8E         0.0641
     46 H7         49.9373    2.8625   49.4673 H         1 E8E         0.0626
     47 H8         50.2596    4.9369   48.1633 H         1 E8E         0.0650
     48 H9         55.7096   15.4301   50.6564 H         1 E8E         0.0557
     49 H10        56.7991   14.2159   52.5496 H         1 E8E         0.0599
     50 H11        58.5828   15.3660   53.8263 H         1 E8E         0.0559
     51 H12        59.3982   17.6080   53.1322 H         1 E8E         0.0599
     52 H13        58.3716   18.7570   51.1873 H         1 E8E         0.0557
     53 H14        57.1797   18.1775   48.9648 H         1 E8E         0.0683
     54 H15        55.8839   18.7557   50.0662 H         1 E8E         0.0683
     55 H16        54.4895   16.9684   49.3471 H         1 E8E         0.1878
     56 H17        54.1775   15.6779   46.3895 H         1 E8E         0.0861
     57 H18        53.1387   16.7343   48.2927 H         1 E8E         0.2134
     58 H19        55.1384   13.7969   48.6185 H         1 E8E         0.0609
     59 H20        56.5820   13.9167   46.5251 H         1 E8E         0.0317
     60 H21        55.1493   13.4047   45.5701 H         1 E8E         0.0317
     61 H22        55.0513   11.2927   46.9063 H         1 E8E         0.0539
     62 H23        56.1816   11.4553   48.9791 H         1 E8E         0.0312
     63 H24        57.3704   12.6454   48.3491 H         1 E8E         0.0312
     64 H25        57.4053    9.6315   48.1913 H         1 E8E         0.0521
     65 H26        58.7787   10.7889   48.2196 H         1 E8E         0.0521
     66 H27        58.5051   10.0652   45.7491 H         1 E8E         0.1851
     67 H28        52.8037   13.4630   46.6994 H         1 E8E         0.1857
     68 H29        50.8063   14.2181   48.5911 H         1 E8E         0.0315
     69 H30        50.7750   13.3104   50.1409 H         1 E8E         0.0315
     70 H31        48.9290   11.8405   49.0533 H         1 E8E         0.0298
     71 H32        47.5991   12.9287   47.2883 H         1 E8E         0.0232
     72 H33        49.2644   12.5832   46.7104 H         1 E8E         0.0232
     73 H34        48.8064   14.2546   47.1829 H         1 E8E         0.0232
     74 H35        48.5463   13.6080   50.8315 H         1 E8E         0.0232
     75 H36        47.1788   13.5582   49.6680 H         1 E8E         0.0232
     76 H37        48.4118   14.8592   49.5498 H         1 E8E         0.0232
     77 H38        51.5861   10.8559   50.1399 H         1 E8E         0.1868
@<TRIPOS>BOND
     1    8    1 ar 
     2    1    9 ar 
     3   33    2 1  
     4    2   35 1  
     5    2   39 1  
     6    4    3 2  
     7    4    5 1  
     8   39    4 am 
     9    5    6 2  
    10    6    7 1  
    11    7    8 ar 
    12    7   11 ar 
    13   10    9 ar 
    14   11   10 ar 
    15   12   13 ar 
    16   17   12 ar 
    17   13   14 ar 
    18   15   14 ar 
    19   16   15 ar 
    20   17   16 ar 
    21   18   17 1  
    22   19   18 1  
    23   20   19 am 
    24   20   21 2  
    25   22   20 1  
    26   22   23 1  
    27   24   22 1  
    28   24   25 1  
    29   32   24 1  
    30   25   26 1  
    31   26   27 1  
    32   26   30 1  
    33   27   28 1  
    34   29   28 1  
    35   30   29 am 
    36   30   31 2  
    37   32   33 am 
    38   33   34 2  
    39   35   36 1  
    40   36   37 1  
    41   36   38 1  
    42    1   40 1  
    43    2   41 1  
    44    5   42 1  
    45    6   43 1  
    46    8   44 1  
    47    9   45 1  
    48   10   46 1  
    49   11   47 1  
    50   12   48 1  
    51   13   49 1  
    52   14   50 1  
    53   15   51 1  
    54   16   52 1  
    55   18   53 1  
    56   18   54 1  
    57   19   55 1  
    58   22   56 1  
    59   23   57 1  
    60   24   58 1  
    61   25   59 1  
    62   25   60 1  
    63   26   61 1  
    64   27   62 1  
    65   27   63 1  
    66   28   64 1  
    67   28   65 1  
    68   29   66 1  
    69   32   67 1  
    70   35   68 1  
    71   35   69 1  
    72   36   70 1  
    73   37   71 1  
    74   37   72 1  
    75   37   73 1  
    76   38   74 1  
    77   38   75 1  
    78   38   76 1  
    79   39   77 1  
@<TRIPOS>SUBSTRUCTURE
     1 E8E         1

