### 
### Created by X-TOOL on Mon Aug  2 16:10:03 2021
### 

@<TRIPOS>MOLECULE
6fv2_ligand
   80    83     1     0     0
SMALL
GAST_HUCK


@<TRIPOS>ATOM
      1 O01        51.7830    9.3480   47.3190 O.2       1 D03        -0.3967
      2 C02        51.3500    9.3540   48.4640 C.2       1 D03         0.1803
      3 C03        50.9770    8.0450   49.1410 C.3       1 D03         0.0470
      4 C05        49.4530    7.9360   49.3570 C.3       1 D03        -0.0022
      5 C07        48.8920    6.6320   48.8050 C.ar      1 D03        -0.0408
      6 C16        47.9270    6.6480   47.7870 C.ar      1 D03        -0.0602
      7 C14        47.4190    5.4390   47.2880 C.ar      1 D03        -0.0686
      8 C12        47.8720    4.2120   47.7990 C.ar      1 D03        -0.0687
      9 C10        48.8280    4.1970   48.8190 C.ar      1 D03        -0.0686
     10 C08        49.3370    5.4000   49.3170 C.ar      1 D03        -0.0602
     11 N18        51.1590   10.4720   49.1770 N.am      1 D03        -0.2637
     12 C20        51.3940   11.8110   48.6450 C.3       1 D03         0.1402
     13 C22        50.9900   12.8720   49.6540 C.3       1 D03         0.0214
     14 C25        49.5000   12.9220   49.7930 C.ar      1 D03        -0.0386
     15 C34        48.9100   12.5490   50.9940 C.ar      1 D03        -0.0601
     16 C32        47.5360   12.6110   51.0930 C.ar      1 D03        -0.0686
     17 C30        46.7710   13.0350   50.0030 C.ar      1 D03        -0.0687
     18 C28        47.3660   13.4020   48.8070 C.ar      1 D03        -0.0686
     19 C26        48.7420   13.3460   48.7060 C.ar      1 D03        -0.0601
     20 C36        52.8210   12.1320   48.3970 C.2       1 D03         0.2042
     21 O37        53.6050   11.7630   49.2560 O.2       1 D03        -0.3943
     22 N38        53.1290   12.8320   47.2870 N.am      1 D03        -0.2769
     23 C40        54.4960   13.2900   46.9860 C.3       1 D03         0.0873
     24 C42        55.1950   12.4730   45.8790 C.3       1 D03        -0.0054
     25 C45        55.3400   11.0040   46.2170 C.3       1 D03         0.0527
     26 C47        55.9200   10.2830   45.0710 C.2       1 D03         0.1792
     27 O48        55.4740   10.3720   43.9670 O.2       1 D03        -0.3968
     28 N49        56.9240    9.5300   45.4330 N.am      1 D03        -0.2866
     29 C51        57.2040    9.5890   46.8410 C.3       1 D03         0.0332
     30 C54        56.3290   10.7310   47.3410 C.3       1 D03        -0.0129
     31 C57        54.4780   14.7800   46.6440 C.3       1 D03         0.1665
     32 O58        55.8160   15.2040   46.3080 O.3       1 D03        -0.3691
     33 C66        53.8890   15.5740   47.7930 C.2       1 D03         0.2091
     34 O67        52.6820   15.5370   47.9680 O.2       1 D03        -0.3940
     35 N68        54.7440   16.2300   48.5980 N.am      1 D03        -0.2734
     36 C70        54.3320   16.8170   49.8570 C.3       1 D03         0.0645
     37 C73        55.5130   16.8540   50.8000 C.ar      1 D03        -0.0210
     38 C74        55.5120   16.1270   52.0020 C.ar      1 D03        -0.0584
     39 C76        56.6230   17.6460   50.4610 C.ar      1 D03        -0.0584
     40 C78        57.7490   17.7470   51.2920 C.ar      1 D03        -0.0685
     41 C80        57.7460   17.0170   52.4860 C.ar      1 D03        -0.0687
     42 C82        56.6360   16.2120   52.8390 C.ar      1 D03        -0.0685
     43 H1         51.4814    7.9906   50.1170 H         1 D03         0.0525
     44 H2         51.3095    7.2081   48.5093 H         1 D03         0.0525
     45 H3         48.9608    8.7781   48.8485 H         1 D03         0.0451
     46 H4         49.2424    7.9851   50.4355 H         1 D03         0.0451
     47 H5         47.5747    7.5919   47.3869 H         1 D03         0.0557
     48 H6         46.6718    5.4522   46.5027 H         1 D03         0.0599
     49 H7         47.4822    3.2807   47.4044 H         1 D03         0.0559
     50 H8         49.1744    3.2529   49.2236 H         1 D03         0.0599
     51 H9         50.0814    5.3831   50.1049 H         1 D03         0.0557
     52 H10        50.8396   10.3850   50.1206 H         1 D03         0.1884
     53 H11        50.8177   11.9197   47.7144 H         1 D03         0.0823
     54 H12        51.3551   13.8525   49.3144 H         1 D03         0.0474
     55 H13        51.4369   12.6323   50.6301 H         1 D03         0.0474
     56 H14        49.5137   12.2179   51.8312 H         1 D03         0.0557
     57 H15        47.0478   12.3300   52.0191 H         1 D03         0.0599
     58 H16        45.6918   13.0775   50.0951 H         1 D03         0.0559
     59 H17        46.7631   13.7268   47.9667 H         1 D03         0.0599
     60 H18        49.2307   13.6318   47.7816 H         1 D03         0.0557
     61 H19        52.3980   13.0496   46.6402 H         1 D03         0.1857
     62 H20        55.0912   13.1636   47.9024 H         1 D03         0.0609
     63 H21        56.1981   12.8939   45.7155 H         1 D03         0.0317
     64 H22        54.6050   12.5616   44.9548 H         1 D03         0.0317
     65 H23        54.3507   10.5990   46.4764 H         1 D03         0.0539
     66 H24        57.4468    8.9673   44.7926 H         1 D03         0.1851
     67 H25        58.2679    9.8040   47.0198 H         1 D03         0.0521
     68 H26        56.9330    8.6437   47.3339 H         1 D03         0.0521
     69 H27        55.7978   10.4358   48.2579 H         1 D03         0.0312
     70 H28        56.9393   11.6238   47.5421 H         1 D03         0.0312
     71 H29        53.8376   14.9315   45.7626 H         1 D03         0.0861
     72 H30        55.8095   16.1297   46.0947 H         1 D03         0.2134
     73 H31        55.6999   16.3158   48.3170 H         1 D03         0.1878
     74 H32        53.5273   16.2113   50.2992 H         1 D03         0.0683
     75 H33        53.9677   17.8404   49.6838 H         1 D03         0.0683
     76 H34        54.6617   15.5136   52.2774 H         1 D03         0.0557
     77 H35        56.6090   18.1967   49.5274 H         1 D03         0.0557
     78 H36        58.5931   18.3697   51.0183 H         1 D03         0.0599
     79 H37        58.6029   17.0684   53.1479 H         1 D03         0.0559
     80 H38        56.6543   15.6538   53.7680 H         1 D03         0.0599
@<TRIPOS>BOND
     1    1    2 2  
     2    2    3 1  
     3    2   11 am 
     4    3    4 1  
     5    4    5 1  
     6    5    6 ar 
     7    5   10 ar 
     8    6    7 ar 
     9    7    8 ar 
    10    8    9 ar 
    11    9   10 ar 
    12   11   12 1  
    13   12   13 1  
    14   12   20 1  
    15   13   14 1  
    16   14   15 ar 
    17   14   19 ar 
    18   15   16 ar 
    19   16   17 ar 
    20   17   18 ar 
    21   18   19 ar 
    22   20   21 2  
    23   20   22 am 
    24   22   23 1  
    25   23   24 1  
    26   23   31 1  
    27   24   25 1  
    28   25   26 1  
    29   25   30 1  
    30   26   27 2  
    31   26   28 am 
    32   28   29 1  
    33   29   30 1  
    34   31   32 1  
    35   31   33 1  
    36   33   34 2  
    37   33   35 am 
    38   35   36 1  
    39   36   37 1  
    40   37   38 ar 
    41   37   39 ar 
    42   38   42 ar 
    43   39   40 ar 
    44   40   41 ar 
    45   41   42 ar 
    46    3   43 1  
    47    3   44 1  
    48    4   45 1  
    49    4   46 1  
    50    6   47 1  
    51    7   48 1  
    52    8   49 1  
    53    9   50 1  
    54   10   51 1  
    55   11   52 1  
    56   12   53 1  
    57   13   54 1  
    58   13   55 1  
    59   15   56 1  
    60   16   57 1  
    61   17   58 1  
    62   18   59 1  
    63   19   60 1  
    64   22   61 1  
    65   23   62 1  
    66   24   63 1  
    67   24   64 1  
    68   25   65 1  
    69   28   66 1  
    70   29   67 1  
    71   29   68 1  
    72   30   69 1  
    73   30   70 1  
    74   31   71 1  
    75   32   72 1  
    76   35   73 1  
    77   36   74 1  
    78   36   75 1  
    79   38   76 1  
    80   39   77 1  
    81   40   78 1  
    82   41   79 1  
    83   42   80 1  
@<TRIPOS>SUBSTRUCTURE
     1 D03         1

