### 
### Created by X-TOOL on Wed Jan  1 15:39:38 2020
### 

@<TRIPOS>MOLECULE
6fyi_ligand
   33    34     1     0     0
SMALL
GAST_HUCK


@<TRIPOS>ATOM
      1 C1         13.4830   92.1270   35.9650 C.3       1 EAE        -0.0526
      2 C2         12.2470   91.5590   35.2230 C.3       1 EAE         0.0150
      3 C11        13.3070   86.7860   37.2280 C.3       1 EAE         0.0716
      4 C12        11.6120   89.1000   36.8960 C.ar      1 EAE         0.0308
      5 C13        10.8330   90.2660   36.8030 C.ar      1 EAE         0.1004
      6 C14        10.1860   93.6330   35.8860 C.3       1 EAE         0.1232
      7 C15         9.1930   94.7270   36.0500 C.2       1 EAE         0.1353
      8 C16         9.5340   96.1160   35.5690 C.3       1 EAE         0.0148
      9 N3         11.0860   91.4220   36.1290 N.2       1 EAE        -0.2898
     10 C4         10.1560   92.3550   36.3260 C.2       1 EAE         0.1743
     11 S5          8.7500   91.8010   37.2420 S.3       1 EAE         0.0896
     12 C6          9.6060   90.3030   37.4450 C.ar      1 EAE         0.1343
     13 C7          9.1120   89.2270   38.1910 C.ar      1 EAE         0.0244
     14 C8          9.8970   88.0700   38.2780 C.ar      1 EAE         0.0371
     15 C9         11.1480   88.0000   37.6370 C.ar      1 EAE         0.1544
     16 O10        11.9540   86.8490   37.7130 O.3       1 EAE        -0.2884
     17 O17         8.0950   94.5490   36.5560 O.2       1 EAE        -0.3822
     18 H1         14.3244   92.2148   35.2619 H         1 EAE         0.0240
     19 H2         13.7607   91.4501   36.7864 H         1 EAE         0.0240
     20 H3         13.2415   93.1194   36.3734 H         1 EAE         0.0240
     21 H4         12.4994   90.5697   34.8136 H         1 EAE         0.0416
     22 H5         11.9802   92.2390   34.4006 H         1 EAE         0.0416
     23 H6         13.7137   85.7796   37.4058 H         1 EAE         0.0606
     24 H7         13.9215   87.5287   37.7580 H         1 EAE         0.0606
     25 H8         13.3203   87.0015   36.1494 H         1 EAE         0.0606
     26 H9         12.5721   89.0492   36.3954 H         1 EAE         0.0605
     27 H10        11.1102   94.0434   36.3189 H         1 EAE         0.0923
     28 H11        10.3021   93.5381   34.7963 H         1 EAE         0.0923
     29 H12         8.6892   96.7913   35.7700 H         1 EAE         0.0462
     30 H13         9.7340   96.0908   34.4876 H         1 EAE         0.0462
     31 H14        10.4272   96.4785   36.0988 H         1 EAE         0.0462
     32 H15         8.1500   89.2870   38.6870 H         1 EAE         0.0749
     33 H16         9.5370   87.2193   38.8452 H         1 EAE         0.1119
@<TRIPOS>BOND
     1    2    1 1  
     2    9    2 1  
     3   16    3 1  
     4    4    5 ar 
     5   15    4 ar 
     6    5    9 1  
     7    5   12 ar 
     8    6    7 1  
     9   10    6 1  
    10    7    8 1  
    11    7   17 2  
    12    9   10 2  
    13   11   10 1  
    14   12   11 1  
    15   13   12 ar 
    16   14   13 ar 
    17   15   14 ar 
    18   15   16 1  
    19    1   18 1  
    20    1   19 1  
    21    1   20 1  
    22    2   21 1  
    23    2   22 1  
    24    3   23 1  
    25    3   24 1  
    26    3   25 1  
    27    4   26 1  
    28    6   27 1  
    29    6   28 1  
    30    8   29 1  
    31    8   30 1  
    32    8   31 1  
    33   13   32 1  
    34   14   33 1  
@<TRIPOS>SUBSTRUCTURE
     1 EAE         1

