### 
### Created by X-TOOL on Wed Jan  1 15:39:37 2020
### 

@<TRIPOS>MOLECULE
6fyk_ligand
   49    51     1     0     0
SMALL
GAST_HUCK


@<TRIPOS>ATOM
      1 C1         -5.9660   17.0530   30.5860 C.ar      1 EAZ        -0.0062
      2 C2         -4.5780   17.1210   30.7660 C.ar      1 EAZ         0.0047
      3 C11        -6.2080   19.5110   30.1610 C.ar      1 EAZ        -0.0608
      4 C12        -8.2840   20.6290   30.4790 C.ar      1 EAZ         0.0855
      5 C13        -8.8590   19.4290   30.8740 C.ar      1 EAZ         0.0170
      6 C14       -10.2750   19.8540   31.1600 C.2       1 EAZ         0.0324
      7 C17       -11.3980   18.9790   31.6340 C.3       1 EAZ        -0.0224
      8 C18        -7.6360   13.1390   29.6960 C.3       1 EAZ         0.1144
      9 C19        -7.8300   11.6080   29.8350 C.3       1 EAZ         0.0044
     10 C20        -7.8990   11.1630   31.3200 C.3       1 EAZ        -0.0049
     11 C21        -9.0390   11.8330   32.1430 C.3       1 EAZ        -0.0416
     12 C22        -9.6370   10.7930   33.1270 C.3       1 EAZ        -0.0625
     13 C23        -8.5240   13.0700   32.9320 C.3       1 EAZ        -0.0625
     14 N3         -3.8310   15.9950   30.7950 N.ar      1 EAZ        -0.3083
     15 C4         -4.3870   14.7750   30.6570 C.ar      1 EAZ         0.0376
     16 C5         -5.7690   14.6450   30.4630 C.ar      1 EAZ         0.1174
     17 C6         -6.5590   15.7950   30.4360 C.ar      1 EAZ        -0.0093
     18 O7         -6.3660   13.3920   30.3150 O.3       1 EAZ        -0.3053
     19 C8         -6.7930   18.2880   30.5550 C.ar      1 EAZ        -0.0232
     20 C9         -8.1440   18.2290   30.9260 C.ar      1 EAZ        -0.0530
     21 C10        -6.9450   20.7050   30.1090 C.ar      1 EAZ        -0.0342
     22 N15       -10.3640   21.1070   30.9360 N.2       1 EAZ        -0.2183
     23 N16        -9.1880   21.6230   30.5160 N.pl3     1 EAZ        -0.2231
     24 N24        -6.7030   10.9150   29.1800 N.4       1 EAZ         0.2227
     25 H1         -4.0987   18.0862   30.8831 H         1 EAZ         0.0723
     26 H2         -5.1584   19.5288   29.8905 H         1 EAZ         0.0595
     27 H3        -12.3096   19.5835   31.7507 H         1 EAZ         0.0387
     28 H4        -11.1296   18.5299   32.6016 H         1 EAZ         0.0387
     29 H5        -11.5782   18.1823   30.8973 H         1 EAZ         0.0387
     30 H6         -8.4384   13.6825   30.2163 H         1 EAZ         0.0673
     31 H7         -7.6193   13.4353   28.6368 H         1 EAZ         0.0673
     32 H8         -8.7694   11.3252   29.3374 H         1 EAZ         0.0877
     33 H9         -6.9395   11.4103   31.7977 H         1 EAZ         0.0323
     34 H10        -8.0514   10.0739   31.3456 H         1 EAZ         0.0323
     35 H11        -9.8261   12.1637   31.4494 H         1 EAZ         0.0297
     36 H12       -10.4429   11.2617   33.7108 H         1 EAZ         0.0232
     37 H13        -8.8498   10.4378   33.8082 H         1 EAZ         0.0232
     38 H14       -10.0424    9.9422   32.5597 H         1 EAZ         0.0232
     39 H15        -8.1015   13.8032   32.2292 H         1 EAZ         0.0232
     40 H16        -7.7467   12.7537   33.6432 H         1 EAZ         0.0232
     41 H17        -9.3594   13.5282   33.4816 H         1 EAZ         0.0232
     42 H18        -3.7623   13.8900   30.6962 H         1 EAZ         0.0735
     43 H19        -7.6312   15.7135   30.2989 H         1 EAZ         0.0646
     44 H20        -8.6098   17.3009   31.2370 H         1 EAZ         0.0620
     45 H21        -6.4932   21.6394   29.7962 H         1 EAZ         0.0561
     46 H22        -9.0144   22.6073   30.2673 H         1 EAZ         0.2398
     47 H23        -6.6503   11.1981   28.2140 H         1 EAZ         0.1998
     48 H24        -6.8461    9.9185   29.2307 H         1 EAZ         0.1998
     49 H25        -5.8431   11.1553   29.6479 H         1 EAZ         0.1998
@<TRIPOS>BOND
     1    1    2 ar 
     2   17    1 ar 
     3    1   19 1  
     4   14    2 ar 
     5   19    3 ar 
     6    3   21 ar 
     7    4    5 ar 
     8   21    4 ar 
     9    4   23 1  
    10    5    6 1  
    11    5   20 ar 
    12    6    7 1  
    13    6   22 2  
    14    8    9 1  
    15   18    8 1  
    16    9   10 1  
    17    9   24 1  
    18   10   11 1  
    19   11   12 1  
    20   11   13 1  
    21   15   14 ar 
    22   16   15 ar 
    23   16   17 ar 
    24   16   18 1  
    25   19   20 ar 
    26   22   23 1  
    27    2   25 1  
    28    3   26 1  
    29    7   27 1  
    30    7   28 1  
    31    7   29 1  
    32    8   30 1  
    33    8   31 1  
    34    9   32 1  
    35   10   33 1  
    36   10   34 1  
    37   11   35 1  
    38   12   36 1  
    39   12   37 1  
    40   12   38 1  
    41   13   39 1  
    42   13   40 1  
    43   13   41 1  
    44   15   42 1  
    45   17   43 1  
    46   20   44 1  
    47   21   45 1  
    48   23   46 1  
    49   24   47 1  
    50   24   48 1  
    51   24   49 1  
@<TRIPOS>SUBSTRUCTURE
     1 EAZ         1

