### 
### Created by X-TOOL on Wed Jan  1 15:39:36 2020
### 

@<TRIPOS>MOLECULE
6fyl_ligand
   36    39     1     0     0
SMALL
GAST_HUCK


@<TRIPOS>ATOM
      1 C1         10.3970   90.5200   36.7200 C.ar      1 3NG         0.0307
      2 C2          9.9510   89.3010   37.2820 C.ar      1 3NG         0.0060
      3 C3          8.5910   89.2110   37.6670 C.ar      1 3NG        -0.0500
      4 C4          7.7140   90.2880   37.5070 C.ar      1 3NG        -0.0482
      5 C5          8.1750   91.4950   36.9620 C.ar      1 3NG         0.0098
      6 C6          9.5190   91.6010   36.5760 C.ar      1 3NG        -0.0344
      7 C7         12.2230   88.4660   36.9910 C.ar      1 3NG         0.0590
      8 C8         10.8850   88.2570   37.4120 C.ar      1 3NG         0.0270
      9 N9         11.6920   90.7000   36.3240 N.ar      1 3NG        -0.2833
     10 C10        12.6140   89.7050   36.4370 C.ar      1 3NG         0.1523
     11 C11        12.7580   86.1910   37.6610 C.ar      1 3NG         0.0146
     12 N12        11.4750   86.0050   38.0520 N.ar      1 3NG        -0.2918
     13 C13        10.5540   86.9880   37.9350 C.ar      1 3NG         0.0250
     14 C14        13.1530   87.4180   37.1150 C.ar      1 3NG        -0.0185
     15 N15        13.9060   89.9020   36.0190 N.pl3     1 3NG        -0.2502
     16 C16        14.4750   91.0750   35.6400 C.ar      1 3NG         0.0673
     17 C17        14.2010   92.2770   36.3100 C.ar      1 3NG        -0.0235
     18 C18        14.8040   93.4650   35.9030 C.ar      1 3NG         0.0315
     19 C19        15.7060   93.4840   34.8280 C.ar      1 3NG        -0.0590
     20 C20        15.9920   92.2910   34.1550 C.ar      1 3NG        -0.0704
     21 C21        15.3820   91.0960   34.5710 C.ar      1 3NG        -0.0371
     22 CL22       14.4220   94.9250   36.7750 Cl        1 3NG        -0.0736
     23 C23         7.2220   92.6530   36.7720 C.2       1 3NG         0.0635
     24 O24         7.6370   93.7970   36.6690 O.co2     1 3NG        -0.5602
     25 O25         5.9180   92.3920   36.6800 O.co2     1 3NG        -0.5602
     26 H1          8.2217   88.2862   38.0954 H         1 3NG         0.0636
     27 H2          6.6763   90.1899   37.8046 H         1 3NG         0.0629
     28 H3          9.8834   92.5334   36.1601 H         1 3NG         0.0641
     29 H4         13.4795   85.3895   37.7708 H         1 3NG         0.0804
     30 H5          9.5349   86.7968   38.2510 H         1 3NG         0.0861
     31 H6         14.1765   87.5606   36.7875 H         1 3NG         0.0763
     32 H7         14.5105   89.0686   35.9895 H         1 3NG         0.2200
     33 H8         13.5156   92.2812   37.1498 H         1 3NG         0.0546
     34 H9         16.1757   94.4120   34.5226 H         1 3NG         0.0529
     35 H10        16.6803   92.2890   33.3175 H         1 3NG         0.0589
     36 H11        15.6171   90.1719   34.0554 H         1 3NG         0.0542
@<TRIPOS>BOND
     1    2    1 ar 
     2    1    6 ar 
     3    9    1 ar 
     4    2    3 ar 
     5    8    2 ar 
     6    3    4 ar 
     7    4    5 ar 
     8    6    5 ar 
     9    5   23 1  
    10    7    8 ar 
    11    7   10 ar 
    12   14    7 ar 
    13    8   13 ar 
    14   10    9 ar 
    15   10   15 1  
    16   11   12 ar 
    17   11   14 ar 
    18   12   13 ar 
    19   15   16 1  
    20   16   17 ar 
    21   16   21 ar 
    22   17   18 ar 
    23   18   19 ar 
    24   18   22 1  
    25   19   20 ar 
    26   20   21 ar 
    27   23   24 ar 
    28   23   25 ar 
    29    3   26 1  
    30    4   27 1  
    31    6   28 1  
    32   11   29 1  
    33   13   30 1  
    34   14   31 1  
    35   15   32 1  
    36   17   33 1  
    37   19   34 1  
    38   20   35 1  
    39   21   36 1  
@<TRIPOS>SUBSTRUCTURE
     1 3NG         1

