### 
### Created by X-TOOL on Mon Aug  2 16:13:26 2021
### 

@<TRIPOS>MOLECULE
6fym_ligand
   35    37     1     0     0
SMALL
GAST_HUCK


@<TRIPOS>ATOM
      1 C         -11.3950 -100.0470  -18.2180 C.3       1 EBB        -0.0339
      2 C1        -11.6970  -98.5740  -18.3060 C.ar      1 EBB        -0.0483
      3 C2        -11.0950  -97.6610  -17.4300 C.ar      1 EBB        -0.0353
      4 C3        -10.1260  -98.1360  -16.3740 C.3       1 EBB        -0.0358
      5 C4        -11.4030  -96.2970  -17.5450 C.ar      1 EBB         0.0087
      6 C5        -12.3030  -95.8470  -18.5250 C.ar      1 EBB         0.0472
      7 C6        -12.8930  -96.7660  -19.3880 C.ar      1 EBB        -0.0629
      8 C7        -12.5860  -98.1080  -19.2700 C.ar      1 EBB        -0.0699
      9 C8        -12.6080  -94.4120  -18.6240 C.2       1 EBB         0.2291
     10 C9        -11.0690  -94.1620  -16.7620 C.2       1 EBB         0.1532
     11 C10       -10.4140  -93.1980  -15.8150 C.3       1 EBB         0.1030
     12 C11       -10.6050  -90.7230  -14.6490 C.ar      1 EBB         0.1704
     13 C12       -10.5740  -88.8350  -13.4260 C.ar      1 EBB         0.0222
     14 C13        -9.8460  -89.4590  -12.4410 C.ar      1 EBB        -0.0157
     15 C14        -9.5360  -90.7770  -12.6710 C.ar      1 EBB         0.0222
     16 O         -13.3810  -93.9330  -19.4490 O.2       1 EBB        -0.3891
     17 N         -11.9590  -93.6110  -17.7130 N.am      1 EBB        -0.1955
     18 S         -11.1060  -91.5580  -16.1060 S.3       1 EBB        -0.0284
     19 N1        -10.7790  -95.4500  -16.6560 N.2       1 EBB        -0.3126
     20 N3         -9.9040  -91.4410  -13.7740 N.ar      1 EBB        -0.2534
     21 N2        -10.9710  -89.4460  -14.5490 N.ar      1 EBB        -0.2534
     22 H1        -11.9659 -100.5850  -18.9891 H         1 EBB         0.0381
     23 H2        -11.6796 -100.4209  -17.2234 H         1 EBB         0.0381
     24 H3        -10.3190 -100.2109  -18.3773 H         1 EBB         0.0381
     25 H4        -10.0155  -99.2283  -16.4425 H         1 EBB         0.0362
     26 H5        -10.5085  -97.8679  -15.3781 H         1 EBB         0.0362
     27 H6         -9.1480  -97.6580  -16.5321 H         1 EBB         0.0362
     28 H7        -13.5893  -96.4308  -20.1482 H         1 EBB         0.0570
     29 H8        -13.0500  -98.8168  -19.9463 H         1 EBB         0.0484
     30 H9         -9.3288  -93.1806  -15.9937 H         1 EBB         0.0708
     31 H10       -10.6099  -93.5053  -14.7771 H         1 EBB         0.0708
     32 H11       -10.8406  -87.7936  -13.2861 H         1 EBB         0.0921
     33 H12        -9.5361  -88.9432  -11.5394 H         1 EBB         0.0720
     34 H13        -8.9629  -91.3080  -11.9196 H         1 EBB         0.0921
     35 H14       -12.1190  -92.6239  -17.7234 H         1 EBB         0.2522
@<TRIPOS>BOND
     1    2    1 1  
     2    3    2 ar 
     3    2    8 ar 
     4    3    4 1  
     5    5    3 ar 
     6    5    6 ar 
     7   19    5 1  
     8    6    7 ar 
     9    9    6 1  
    10    7    8 ar 
    11    9   16 2  
    12   17    9 am 
    13   11   10 1  
    14   10   17 1  
    15   10   19 2  
    16   18   11 1  
    17   12   18 1  
    18   12   20 ar 
    19   21   12 ar 
    20   13   14 ar 
    21   13   21 ar 
    22   14   15 ar 
    23   15   20 ar 
    24    1   22 1  
    25    1   23 1  
    26    1   24 1  
    27    4   25 1  
    28    4   26 1  
    29    4   27 1  
    30    7   28 1  
    31    8   29 1  
    32   11   30 1  
    33   11   31 1  
    34   13   32 1  
    35   14   33 1  
    36   15   34 1  
    37   17   35 1  
@<TRIPOS>SUBSTRUCTURE
     1 EBB         1

