### 
### Created by X-TOOL on Wed Jan  1 15:39:38 2020
### 

@<TRIPOS>MOLECULE
6fyp_ligand
   36    39     1     0     0
SMALL
GAST_HUCK


@<TRIPOS>ATOM
      1 C1         -8.4930  -16.9820   15.8170 C.ar      1 3NG         0.0307
      2 C2         -8.2490  -17.1200   14.4310 C.ar      1 3NG         0.0060
      3 C3         -7.9720  -18.4310   13.9560 C.ar      1 3NG        -0.0500
      4 C4         -7.9530  -19.5350   14.8260 C.ar      1 3NG        -0.0482
      5 C5         -8.1950  -19.3620   16.2050 C.ar      1 3NG         0.0098
      6 C6         -8.4720  -18.0780   16.6880 C.ar      1 3NG        -0.0344
      7 C7         -8.5820  -14.6980   14.2420 C.ar      1 3NG         0.0590
      8 C8         -8.2950  -15.9430   13.6330 C.ar      1 3NG         0.0270
      9 N9         -8.7700  -15.7760   16.3640 N.ar      1 3NG        -0.2833
     10 C10        -8.8240  -14.6370   15.6290 C.ar      1 3NG         0.1523
     11 C11        -8.3910  -13.6110   12.0650 C.ar      1 3NG         0.0146
     12 N12        -8.1280  -14.8030   11.4900 N.ar      1 3NG        -0.2918
     13 C13        -8.0870  -15.9280   12.2320 C.ar      1 3NG         0.0250
     14 C14        -8.6270  -13.5380   13.4460 C.ar      1 3NG        -0.0185
     15 N15        -9.1080  -13.4590   16.2590 N.pl3     1 3NG        -0.2502
     16 C16        -9.2120  -13.2520   17.6030 C.ar      1 3NG         0.0673
     17 C17        -8.3380  -13.8510   18.5210 C.ar      1 3NG        -0.0235
     18 C18        -8.4560  -13.6150   19.8940 C.ar      1 3NG         0.0315
     19 C19        -9.4590  -12.7550   20.3780 C.ar      1 3NG        -0.0590
     20 C20       -10.3370  -12.1430   19.4740 C.ar      1 3NG        -0.0704
     21 C21       -10.2150  -12.3950   18.0980 C.ar      1 3NG        -0.0371
     22 CL22       -7.3380  -14.4100   20.9940 Cl        1 3NG        -0.0736
     23 C23        -8.2070  -20.5580   17.1330 C.2       1 3NG         0.0635
     24 O24        -8.5940  -21.7360   16.6230 O.co2     1 3NG        -0.5602
     25 O25        -7.9540  -20.4430   18.3260 O.co2     1 3NG        -0.5602
     26 H1         -7.7714  -18.5824   12.9015 H         1 3NG         0.0636
     27 H2         -7.7511  -20.5256   14.4348 H         1 3NG         0.0629
     28 H3         -8.6716  -17.9311   17.7433 H         1 3NG         0.0641
     29 H4         -8.4199  -12.7114   11.4609 H         1 3NG         0.0804
     30 H5         -7.8848  -16.8680   11.7314 H         1 3NG         0.0861
     31 H6         -8.8459  -12.5801   13.9039 H         1 3NG         0.0763
     32 H7         -9.2599  -12.6391   15.6543 H         1 3NG         0.2200
     33 H8         -7.5563  -14.5093   18.1596 H         1 3NG         0.0546
     34 H9         -9.5516  -12.5675   21.4417 H         1 3NG         0.0529
     35 H10       -11.1101  -11.4753   19.8366 H         1 3NG         0.0589
     36 H11       -10.9030  -11.9230   17.4059 H         1 3NG         0.0542
@<TRIPOS>BOND
     1    2    1 ar 
     2    1    6 ar 
     3    9    1 ar 
     4    2    3 ar 
     5    8    2 ar 
     6    3    4 ar 
     7    4    5 ar 
     8    6    5 ar 
     9    5   23 1  
    10    7    8 ar 
    11    7   10 ar 
    12   14    7 ar 
    13    8   13 ar 
    14   10    9 ar 
    15   10   15 1  
    16   11   12 ar 
    17   11   14 ar 
    18   12   13 ar 
    19   15   16 1  
    20   16   17 ar 
    21   16   21 ar 
    22   17   18 ar 
    23   18   19 ar 
    24   18   22 1  
    25   19   20 ar 
    26   20   21 ar 
    27   23   24 ar 
    28   23   25 ar 
    29    3   26 1  
    30    4   27 1  
    31    6   28 1  
    32   11   29 1  
    33   13   30 1  
    34   14   31 1  
    35   15   32 1  
    36   17   33 1  
    37   19   34 1  
    38   20   35 1  
    39   21   36 1  
@<TRIPOS>SUBSTRUCTURE
     1 3NG         1

