### 
### Created by X-TOOL on Wed Jan  1 15:39:37 2020
### 

@<TRIPOS>MOLECULE
6fyv_ligand
   36    39     1     0     0
SMALL
GAST_HUCK


@<TRIPOS>ATOM
      1 C1        -28.5920   22.3680  -19.2300 C.ar      1 3NG         0.0307
      2 C2        -28.7030   21.0380  -19.6810 C.ar      1 3NG         0.0060
      3 C3        -27.7730   20.6230  -20.6570 C.ar      1 3NG        -0.0500
      4 C4        -26.7930   21.4910  -21.1520 C.ar      1 3NG        -0.0482
      5 C5        -26.7020   22.8070  -20.6870 C.ar      1 3NG         0.0098
      6 C6        -27.6160   23.2390  -19.7200 C.ar      1 3NG        -0.0344
      7 C7        -30.5950   20.7870  -18.1480 C.ar      1 3NG         0.0590
      8 C8        -29.7320   20.2310  -19.1240 C.ar      1 3NG         0.0270
      9 N9        -29.4310   22.8670  -18.3020 N.ar      1 3NG        -0.2833
     10 C10       -30.4230   22.1260  -17.7470 C.ar      1 3NG         0.1523
     11 C11       -31.7870   18.6740  -17.9860 C.ar      1 3NG         0.0146
     12 N12       -30.9550   18.1520  -18.9130 N.ar      1 3NG        -0.2918
     13 C13       -29.9590   18.8810  -19.4760 C.ar      1 3NG         0.0250
     14 C14       -31.6200   20.0020  -17.5830 C.ar      1 3NG        -0.0185
     15 N15       -31.2360   22.6840  -16.8010 N.pl3     1 3NG        -0.2502
     16 C16       -31.2620   23.9730  -16.3540 C.ar      1 3NG         0.0673
     17 C17       -31.1760   25.0810  -17.2150 C.ar      1 3NG        -0.0235
     18 C18       -31.2260   26.3890  -16.7110 C.ar      1 3NG         0.0315
     19 C19       -31.3740   26.6160  -15.3340 C.ar      1 3NG        -0.0590
     20 C20       -31.4680   25.5190  -14.4640 C.ar      1 3NG        -0.0704
     21 C21       -31.4190   24.2110  -14.9760 C.ar      1 3NG        -0.0371
     22 CL22      -31.1080   27.7420  -17.8160 Cl        1 3NG        -0.0736
     23 C23       -25.6420   23.7430  -21.2240 C.2       1 3NG         0.0635
     24 O24       -24.6220   23.2520  -21.9350 O.co2     1 3NG        -0.5602
     25 O25       -25.7390   24.9450  -21.0060 O.co2     1 3NG        -0.5602
     26 H1        -27.8184   19.6072  -21.0328 H         1 3NG         0.0636
     27 H2        -26.0965   21.1393  -21.9045 H         1 3NG         0.0629
     28 H3        -27.5665   24.2562  -19.3486 H         1 3NG         0.0641
     29 H4        -32.5776   18.0682  -17.5581 H         1 3NG         0.0804
     30 H5        -29.3192   18.4151  -20.2167 H         1 3NG         0.0861
     31 H6        -32.2792   20.4283  -16.8355 H         1 3NG         0.0763
     32 H7        -31.9199   22.0471  -16.3679 H         1 3NG         0.2200
     33 H8        -31.0697   24.9225  -18.2821 H         1 3NG         0.0546
     34 H9        -31.4152   27.6276  -14.9467 H         1 3NG         0.0529
     35 H10       -31.5783   25.6803  -13.3978 H         1 3NG         0.0589
     36 H11       -31.5037   23.3702  -14.2970 H         1 3NG         0.0542
@<TRIPOS>BOND
     1    2    1 ar 
     2    1    6 ar 
     3    9    1 ar 
     4    2    3 ar 
     5    8    2 ar 
     6    3    4 ar 
     7    4    5 ar 
     8    6    5 ar 
     9    5   23 1  
    10    7    8 ar 
    11    7   10 ar 
    12   14    7 ar 
    13    8   13 ar 
    14   10    9 ar 
    15   10   15 1  
    16   11   12 ar 
    17   11   14 ar 
    18   12   13 ar 
    19   15   16 1  
    20   16   17 ar 
    21   16   21 ar 
    22   17   18 ar 
    23   18   19 ar 
    24   18   22 1  
    25   19   20 ar 
    26   20   21 ar 
    27   23   24 ar 
    28   23   25 ar 
    29    3   26 1  
    30    4   27 1  
    31    6   28 1  
    32   11   29 1  
    33   13   30 1  
    34   14   31 1  
    35   15   32 1  
    36   17   33 1  
    37   19   34 1  
    38   20   35 1  
    39   21   36 1  
@<TRIPOS>SUBSTRUCTURE
     1 3NG         1

