### 
### Created by X-TOOL on Wed Jan  1 15:39:36 2020
### 

@<TRIPOS>MOLECULE
6fyz_ligand
   41    43     1     0     0
SMALL
GAST_HUCK


@<TRIPOS>ATOM
      1 C4         -8.1590   -2.8560   11.6720 C.ar      1 EBE        -0.0542
      2 C5         -7.3730   -2.1720   12.5920 C.ar      1 EBE        -0.0583
      3 C6         -7.4510   -2.4230   13.9730 C.ar      1 EBE        -0.0155
      4 C7         -6.5890   -1.6740   14.9690 C.ar      1 EBE         0.0235
      5 C8         -5.5300   -0.8350   14.5650 C.ar      1 EBE         0.0273
      6 C3         -9.0630   -3.8250   12.0870 C.ar      1 EBE        -0.0100
      7 C2         -9.1540   -4.0900   13.4540 C.ar      1 EBE        -0.0542
      8 C10        -5.0020   -0.3060   16.7910 C.ar      1 EBE         0.1005
      9 C1         -8.3660   -3.4030   14.3750 C.ar      1 EBE        -0.0583
     10 C19        -8.3350   -6.5620   11.4530 C.ar      1 EBE        -0.0574
     11 C12        -6.7940   -1.7680   16.3590 C.ar      1 EBE         0.0273
     12 C13        -9.8840   -4.5500   11.0730 C.3       1 EBE         0.1170
     13 C14        -9.3670   -5.9180   10.7490 C.ar      1 EBE         0.0235
     14 C18        -7.9260   -7.8440   11.1000 C.ar      1 EBE        -0.0717
     15 N9         -4.7760   -0.1800   15.4680 N.ar      1 EBE        -0.2651
     16 C20       -11.3200   -4.6530   11.5370 C.2       1 EBE         0.2243
     17 C24        -4.1520    0.4450   17.7830 C.3       1 EBE         0.0041
     18 O21       -11.7380   -5.6720   12.0710 O.2       1 EBE        -0.3907
     19 N22       -12.1100   -3.5980   11.3320 N.am      1 EBE        -0.1607
     20 O23       -13.4420   -3.6290   11.7440 O.3       1 EBE        -0.2715
     21 C17        -8.5320   -8.5030   10.0400 C.ar      1 EBE        -0.0700
     22 C16        -9.5620   -7.8830    9.3450 C.ar      1 EBE        -0.0340
     23 C15        -9.9730   -6.6020    9.6900 C.ar      1 EBE         0.1378
     24 F25       -10.9830   -6.0390    8.9880 F         1 EBE        -0.1882
     25 N11        -6.0120   -1.0950   17.2210 N.ar      1 EBE        -0.2651
     26 H1         -8.0650   -2.6299   10.6160 H         1 EBE         0.0568
     27 H2         -6.6780   -1.4214   12.2333 H         1 EBE         0.0613
     28 H3         -5.3192   -0.7152   13.5085 H         1 EBE         0.0916
     29 H4         -9.8498   -4.8433   13.8054 H         1 EBE         0.0568
     30 H5         -8.4640   -3.6333   15.4297 H         1 EBE         0.0613
     31 H6         -7.8524   -6.0541   12.2802 H         1 EBE         0.0554
     32 H7         -7.5943   -2.3923   16.7397 H         1 EBE         0.0916
     33 H8         -9.8623   -3.9576   10.1464 H         1 EBE         0.0843
     34 H9         -7.1314   -8.3296   11.6548 H         1 EBE         0.0566
     35 H10        -3.3891    1.0273   17.2454 H         1 EBE         0.0464
     36 H11        -3.6591   -0.2695   18.4587 H         1 EBE         0.0464
     37 H12        -4.7871    1.1256   18.3690 H         1 EBE         0.0464
     38 H13       -11.7462   -2.7826   10.8817 H         1 EBE         0.2220
     39 H14       -13.8596   -2.8046   11.5240 H         1 EBE         0.2490
     40 H15        -8.2033   -9.4962    9.7560 H         1 EBE         0.0553
     41 H16       -10.0487   -8.4025    8.5275 H         1 EBE         0.0586
@<TRIPOS>BOND
     1    1    2 ar 
     2    6    1 ar 
     3    2    3 ar 
     4    3    4 1  
     5    9    3 ar 
     6    4    5 ar 
     7    4   11 ar 
     8    5   15 ar 
     9    6    7 ar 
    10   12    6 1  
    11    7    9 ar 
    12   15    8 ar 
    13    8   17 1  
    14   25    8 ar 
    15   13   10 ar 
    16   10   14 ar 
    17   11   25 ar 
    18   12   13 1  
    19   12   16 1  
    20   13   23 ar 
    21   14   21 ar 
    22   16   18 2  
    23   16   19 am 
    24   19   20 1  
    25   21   22 ar 
    26   22   23 ar 
    27   23   24 1  
    28    1   26 1  
    29    2   27 1  
    30    5   28 1  
    31    7   29 1  
    32    9   30 1  
    33   10   31 1  
    34   11   32 1  
    35   12   33 1  
    36   14   34 1  
    37   17   35 1  
    38   17   36 1  
    39   17   37 1  
    40   19   38 1  
    41   20   39 1  
    42   21   40 1  
    43   22   41 1  
@<TRIPOS>SUBSTRUCTURE
     1 EBE         1

