### 
### Created by X-TOOL on Mon Aug  2 16:13:26 2021
### 

@<TRIPOS>MOLECULE
6fz4_ligand
   36    38     1     0     0
SMALL
GAST_HUCK


@<TRIPOS>ATOM
      1 C2         19.9180   29.6690   62.8190 C.ar      1 EC8         0.1471
      2 C3         19.1600   30.6720   63.3710 C.ar      1 EC8         0.0346
      3 C4         19.7530   31.8300   63.8760 C.ar      1 EC8        -0.0284
      4 C5         21.1330   31.9500   63.8180 C.ar      1 EC8         0.1294
      5 C10        27.1210   26.1690   61.6560 C.ar      1 EC8        -0.0661
      6 C11        27.2950   26.5230   62.9910 C.ar      1 EC8        -0.0270
      7 C12        26.5320   27.5360   63.5650 C.ar      1 EC8         0.1093
      8 C15        26.1760   26.8310   60.8720 C.ar      1 EC8        -0.0671
      9 C13        25.6000   28.2070   62.7940 C.ar      1 EC8         0.0806
     10 C14        25.3850   27.8420   61.4560 C.ar      1 EC8        -0.0502
     11 C1         21.2940   29.7860   62.7470 C.ar      1 EC8         0.0306
     12 C6         23.1290   33.2670   64.3090 C.2       1 EC8         0.3224
     13 C16        17.6640   30.4630   63.4320 C.3       1 EC8         0.3359
     14 C7         23.9590   32.1470   63.6990 C.2       1 EC8         0.3592
     15 C8         21.9000   30.9210   63.2370 C.ar      1 EC8         0.1739
     16 C9         24.7730   29.2810   63.4400 C.2       1 EC8         0.2273
     17 F1         19.3780   28.5650   62.2950 F         1 EC8        -0.1654
     18 F2         17.3770   29.4470   64.2340 F         1 EC8        -0.2566
     19 F3         17.0800   31.5500   63.8730 F         1 EC8        -0.2566
     20 F4         17.1490   30.1870   62.2610 F         1 EC8        -0.2566
     21 N1         21.8230   33.0490   64.3290 N.am      1 EC8        -0.2168
     22 N2         23.2690   31.0570   63.2180 N.am      1 EC8        -0.0683
     23 N3         24.0500   30.0320   62.6020 N.am      1 EC8        -0.1452
     24 O1         23.6850   34.2810   64.7680 O.2       1 EC8        -0.3488
     25 O2         25.1690   32.2840   63.5880 O.2       1 EC8        -0.3361
     26 O3         24.7650   29.4030   64.6790 O.2       1 EC8        -0.3883
     27 O4         26.7370   27.8420   64.8850 O.3       1 EC8        -0.3276
     28 H1         19.1469   32.6197   64.3050 H         1 EC8         0.0568
     29 H2         27.7216   25.3765   61.2244 H         1 EC8         0.0625
     30 H3         28.0336   26.0036   63.5908 H         1 EC8         0.0555
     31 H4         26.0512   26.5716   59.8269 H         1 EC8         0.0536
     32 H5         24.6145   28.3349   60.8742 H         1 EC8         0.0640
     33 H6         21.8891   28.9926   62.3095 H         1 EC8         0.0584
     34 H7         21.2650   33.7568   64.7622 H         1 EC8         0.2276
     35 H8         24.0558   29.8860   61.6127 H         1 EC8         0.2258
     36 H9         25.9290   27.7137   65.3678 H         1 EC8         0.2509
@<TRIPOS>BOND
     1    1    2 ar 
     2   11    1 ar 
     3    1   17 1  
     4    3    2 ar 
     5    2   13 1  
     6    4    3 ar 
     7   15    4 ar 
     8    4   21 1  
     9    6    5 ar 
    10    8    5 ar 
    11    7    6 ar 
    12    9    7 ar 
    13    7   27 1  
    14   10    8 ar 
    15    9   10 ar 
    16   16    9 1  
    17   15   11 ar 
    18   14   12 1  
    19   12   21 am 
    20   12   24 2  
    21   13   18 1  
    22   13   19 1  
    23   13   20 1  
    24   22   14 am 
    25   14   25 2  
    26   22   15 1  
    27   23   16 am 
    28   16   26 2  
    29   22   23 1  
    30    3   28 1  
    31    5   29 1  
    32    6   30 1  
    33    8   31 1  
    34   10   32 1  
    35   11   33 1  
    36   21   34 1  
    37   23   35 1  
    38   27   36 1  
@<TRIPOS>SUBSTRUCTURE
     1 EC8         1

