### 
### Created by X-TOOL on Mon Aug  2 16:13:26 2021
### 

@<TRIPOS>MOLECULE
6fzg_ligand
   65    68     1     0     0
SMALL
GAST_HUCK


@<TRIPOS>ATOM
      1 O3         -6.8190  114.0820   29.1460 O.co2     1 EDK        -0.5665
      2 C4         -2.6520  114.8070   24.1990 C.ar      1 EDK        -0.0396
      3 C5         -3.2740  114.5390   25.4030 C.ar      1 EDK        -0.0686
      4 C6         -3.9760  113.3590   25.6000 C.ar      1 EDK        -0.0499
      5 N1         -6.3360  114.8310   26.4080 N.pl3     1 EDK        -0.3014
      6 C7         -4.6670  113.0830   26.9130 C.3       1 EDK         0.0105
      7 C8         -6.1530  113.4720   26.8950 C.3       1 EDK         0.0974
      8 N2         -3.8230  114.0480   17.9400 N.ar      1 EDK        -0.2853
      9 C9         -7.5970  115.3380   26.1110 C.ar      1 EDK         0.0600
     10 C10        -7.6860  116.6070   25.5020 C.ar      1 EDK         0.0515
     11 C11        -8.9430  117.1060   25.1600 C.ar      1 EDK        -0.0547
     12 C12       -10.0860  116.3670   25.4120 C.ar      1 EDK        -0.0691
     13 C13        -9.9940  115.1240   25.9930 C.ar      1 EDK        -0.0689
     14 C14        -8.7590  114.6060   26.3440 C.ar      1 EDK        -0.0378
     15 C15        -6.4740  117.4070   25.1760 C.2       1 EDK         0.1522
     16 C22        -6.7680  113.2350   28.2670 C.2       1 EDK         0.0615
     17 O2         -7.2440  112.0200   28.3790 O.co2     1 EDK        -0.5665
     18 C16        -6.5910  118.7990   24.6550 C.ar      1 EDK         0.0314
     19 C21        -7.3690  119.7600   25.2960 C.ar      1 EDK        -0.0437
     20 C20        -7.4010  121.0630   24.8270 C.ar      1 EDK        -0.0561
     21 C19        -6.6600  121.4230   23.7210 C.ar      1 EDK        -0.0574
     22 C18        -5.8880  120.4800   23.0780 C.ar      1 EDK        -0.0561
     23 C17        -5.8550  119.1730   23.5360 C.ar      1 EDK        -0.0437
     24 O1         -5.3680  116.9030   25.3200 O.2       1 EDK        -0.3754
     25 C23        -4.0370  112.4440   24.5590 C.ar      1 EDK        -0.0686
     26 C24        -3.4300  112.7040   23.3430 C.ar      1 EDK        -0.0396
     27 C3         -2.7400  113.8910   23.1630 C.ar      1 EDK         0.0841
     28 O          -2.1650  114.2190   21.9590 O.3       1 EDK        -0.3204
     29 C2         -2.2950  113.2930   20.8640 C.3       1 EDK         0.0889
     30 C1         -1.5920  113.9080   19.6850 C.3       1 EDK         0.0569
     31 N          -2.2270  115.1730   19.3090 N.pl3     1 EDK        -0.2946
     32 C          -1.4610  116.4050   19.4500 C.3       1 EDK         0.0185
     33 C25        -3.3130  115.2170   18.3440 C.ar      1 EDK         0.1134
     34 C29        -3.7920  116.4530   17.9250 C.ar      1 EDK        -0.0160
     35 C28        -4.8660  116.4580   17.0530 C.ar      1 EDK        -0.0542
     36 C27        -5.4200  115.2660   16.6320 C.ar      1 EDK        -0.0480
     37 C26        -4.8680  114.0930   17.0990 C.ar      1 EDK        -0.0042
     38 H1         -2.0980  115.7291   24.0654 H         1 EDK         0.0525
     39 H2         -3.2124  115.2631   26.2074 H         1 EDK         0.0530
     40 H3         -5.5103  115.4333   26.2798 H         1 EDK         0.1808
     41 H4         -4.1625  113.6577   27.7037 H         1 EDK         0.0446
     42 H5         -4.5874  112.0082   27.1333 H         1 EDK         0.0446
     43 H6         -6.6654  112.8040   26.1871 H         1 EDK         0.0743
     44 H7         -9.0254  118.0807   24.6929 H         1 EDK         0.0635
     45 H8        -11.0577  116.7698   25.1502 H         1 EDK         0.0520
     46 H9        -10.8929  114.5469   26.1771 H         1 EDK         0.0621
     47 H10        -8.6960  113.6258   26.8025 H         1 EDK         0.0529
     48 H11        -7.9531  119.4866   26.1673 H         1 EDK         0.0669
     49 H12        -8.0113  121.8032   25.3317 H         1 EDK         0.0630
     50 H13        -6.6848  122.4444   23.3587 H         1 EDK         0.0654
     51 H14        -5.3037  120.7622   22.2096 H         1 EDK         0.0630
     52 H15        -5.2511  118.4365   23.0184 H         1 EDK         0.0669
     53 H16        -4.5689  111.5101   24.7005 H         1 EDK         0.0530
     54 H17        -3.4942  111.9829   22.5362 H         1 EDK         0.0525
     55 H18        -3.3575  113.1321   20.6289 H         1 EDK         0.0631
     56 H19        -1.8273  112.3319   21.1239 H         1 EDK         0.0631
     57 H20        -1.6384  113.2131   18.8336 H         1 EDK         0.0546
     58 H21        -0.5406  114.0955   19.9484 H         1 EDK         0.0546
     59 H22        -2.0762  117.2581   19.1279 H         1 EDK         0.0483
     60 H23        -0.5572  116.3483   18.8256 H         1 EDK         0.0483
     61 H24        -1.1716  116.5384   20.5028 H         1 EDK         0.0483
     62 H25        -3.3413  117.3772   18.2683 H         1 EDK         0.0610
     63 H26        -5.2727  117.3988   16.7001 H         1 EDK         0.0699
     64 H27        -6.2652  115.2530   15.9534 H         1 EDK         0.0597
     65 H28        -5.3013  113.1557   16.7692 H         1 EDK         0.0781
@<TRIPOS>BOND
     1   16    1 ar 
     2    2    3 ar 
     3   27    2 ar 
     4    3    4 ar 
     5    4    6 1  
     6   25    4 ar 
     7    7    5 1  
     8    5    9 1  
     9    6    7 1  
    10    7   16 1  
    11   33    8 ar 
    12    8   37 ar 
    13    9   10 ar 
    14    9   14 ar 
    15   10   11 ar 
    16   10   15 1  
    17   11   12 ar 
    18   13   12 ar 
    19   14   13 ar 
    20   15   18 1  
    21   15   24 2  
    22   16   17 ar 
    23   18   19 ar 
    24   18   23 ar 
    25   19   20 ar 
    26   20   21 ar 
    27   22   21 ar 
    28   23   22 ar 
    29   26   25 ar 
    30   27   26 ar 
    31   28   27 1  
    32   29   28 1  
    33   30   29 1  
    34   31   30 1  
    35   31   32 1  
    36   31   33 1  
    37   33   34 ar 
    38   34   35 ar 
    39   35   36 ar 
    40   36   37 ar 
    41    2   38 1  
    42    3   39 1  
    43    5   40 1  
    44    6   41 1  
    45    6   42 1  
    46    7   43 1  
    47   11   44 1  
    48   12   45 1  
    49   13   46 1  
    50   14   47 1  
    51   19   48 1  
    52   20   49 1  
    53   21   50 1  
    54   22   51 1  
    55   23   52 1  
    56   25   53 1  
    57   26   54 1  
    58   29   55 1  
    59   29   56 1  
    60   30   57 1  
    61   30   58 1  
    62   32   59 1  
    63   32   60 1  
    64   32   61 1  
    65   34   62 1  
    66   35   63 1  
    67   36   64 1  
    68   37   65 1  
@<TRIPOS>SUBSTRUCTURE
     1 EDK         1

