### 
### Created by X-TOOL on Mon Aug  2 16:13:26 2021
### 

@<TRIPOS>MOLECULE
6fzm_ligand
   41    43     1     0     0
SMALL
GAST_HUCK


@<TRIPOS>ATOM
      1 CAB       -16.9670  -13.5030    2.7540 C.3       1 EE5        -0.0032
      2 CAC       -15.9010  -13.5140    1.6830 C.1       1 EE5        -0.1031
      3 CAD       -14.9730  -13.6150    0.7980 C.1       1 EE5        -0.0715
      4 CAE       -13.8750  -13.7370   -0.2490 C.ar      1 EE5         0.0226
      5 CAQ       -13.3750  -15.0660   -0.4890 C.ar      1 EE5        -0.0199
      6 CAY       -13.8870  -16.1510    0.2520 C.3       1 EE5        -0.0310
      7 CAR       -12.3230  -15.3300   -1.4360 C.ar      1 EE5         0.0170
      8 NAS       -11.9040  -16.6240   -1.5800 N.2       1 EE5        -0.3104
      9 CAF       -13.2640  -12.6620   -1.0260 C.ar      1 EE5        -0.0566
     10 CAG       -12.2140  -12.9220   -1.9990 C.ar      1 EE5        -0.0562
     11 CAH       -11.7250  -14.2610   -2.2000 C.ar      1 EE5         0.0537
     12 CAI       -10.6720  -14.6260   -3.1010 C.2       1 EE5         0.2332
     13 OAA       -10.0540  -13.8490   -3.7990 O.2       1 EE5        -0.3868
     14 NAJ       -10.2700  -15.9680   -3.1980 N.am      1 EE5        -0.1947
     15 CAK       -10.9120  -16.9630   -2.4150 C.2       1 EE5         0.1530
     16 CAL       -10.5340  -18.2980   -2.4620 C.3       1 EE5         0.0972
     17 SAM        -9.0610  -18.5670   -1.3860 S.3       1 EE5        -0.0731
     18 CAN        -9.5830  -18.7610    0.3020 C.ar      1 EE5         0.0216
     19 CAO       -10.8900  -18.4560    0.7610 C.ar      1 EE5        -0.0458
     20 CAP       -11.2680  -18.6200    2.1170 C.ar      1 EE5        -0.0535
     21 CAV       -10.3160  -19.1060    3.0400 C.ar      1 EE5         0.0032
     22 CAW       -10.6490  -19.2770    4.3820 C.2       1 EE5         0.0584
     23 OAZ       -11.8110  -18.9900    4.7690 O.co2     1 EE5        -0.5625
     24 OAX        -9.7720  -19.7140    5.1890 O.co2     1 EE5        -0.5625
     25 CAU        -9.0060  -19.4180    2.5910 C.ar      1 EE5        -0.0535
     26 CAT        -8.6450  -19.2400    1.2380 C.ar      1 EE5        -0.0458
     27 H1        -17.4723  -12.5259    2.7583 H         1 EE5         0.0359
     28 H2        -16.5027  -13.6800    3.7354 H         1 EE5         0.0359
     29 H3        -17.7020  -14.2950    2.5479 H         1 EE5         0.0359
     30 H4        -14.6781  -15.7930    0.9273 H         1 EE5         0.0384
     31 H5        -13.0783  -16.6055    0.8431 H         1 EE5         0.0384
     32 H6        -14.3041  -16.9008   -0.4363 H         1 EE5         0.0384
     33 H7        -13.6017  -11.6433   -0.8738 H         1 EE5         0.0547
     34 H8        -11.7979  -12.1036   -2.5753 H         1 EE5         0.0584
     35 H9         -9.5298  -16.2233   -3.8200 H         1 EE5         0.2525
     36 H10       -10.2844  -18.5708   -3.4980 H         1 EE5         0.0701
     37 H11       -11.3649  -18.9257   -2.1075 H         1 EE5         0.0701
     38 H12       -11.6224  -18.0860    0.0527 H         1 EE5         0.0573
     39 H13       -12.2733  -18.3759    2.4410 H         1 EE5         0.0634
     40 H14        -8.2744  -19.7973    3.2953 H         1 EE5         0.0634
     41 H15        -7.6367  -19.4740    0.9161 H         1 EE5         0.0573
@<TRIPOS>BOND
     1    1    2 1  
     2    2    3 3  
     3    3    4 1  
     4    4    5 ar 
     5    4    9 ar 
     6    5    6 1  
     7    5    7 ar 
     8    7    8 1  
     9    7   11 ar 
    10    8   15 2  
    11    9   10 ar 
    12   10   11 ar 
    13   11   12 1  
    14   12   13 2  
    15   12   14 am 
    16   14   15 1  
    17   15   16 1  
    18   16   17 1  
    19   17   18 1  
    20   18   19 ar 
    21   18   26 ar 
    22   19   20 ar 
    23   20   21 ar 
    24   21   22 1  
    25   21   25 ar 
    26   22   23 ar 
    27   22   24 ar 
    28   25   26 ar 
    29    1   27 1  
    30    1   28 1  
    31    1   29 1  
    32    6   30 1  
    33    6   31 1  
    34    6   32 1  
    35    9   33 1  
    36   10   34 1  
    37   14   35 1  
    38   16   36 1  
    39   16   37 1  
    40   19   38 1  
    41   20   39 1  
    42   25   40 1  
    43   26   41 1  
@<TRIPOS>SUBSTRUCTURE
     1 EE5         1

