### 
### Created by X-TOOL on Wed Jan  1 15:39:38 2020
### 

@<TRIPOS>MOLECULE
6fzu_ligand
   26    26     1     0     0
SMALL
GAST_HUCK


@<TRIPOS>ATOM
      1 C1        -17.2120   -1.2340   24.3570 C.ar      1 EE8         0.0561
      2 C2        -17.7560   -0.0290   23.8870 C.ar      1 EE8        -0.0352
      3 C3        -15.8190   -1.3870   24.3810 C.ar      1 EE8        -0.0488
      4 C13       -13.5890    2.3780   23.8170 C.3       1 EE8         0.0646
      5 C14       -12.3350    2.3600   22.9100 C.3       1 EE8        -0.0376
      6 N4        -18.0180   -2.3240   24.8010 N.am      1 EE8        -0.2404
      7 C5        -16.9140    1.0030   23.4570 C.ar      1 EE8         0.0554
      8 C6        -14.9710   -0.3590   23.9470 C.ar      1 EE8        -0.0450
      9 C7        -19.3090   -2.2740   25.2290 C.2       1 EE8         0.1976
     10 C8        -15.5170    0.8530   23.4820 C.ar      1 EE8         0.0902
     11 CL9       -17.6390    2.4960   22.8850 Cl        1 EE8        -0.0824
     12 C10       -19.9620   -3.5700   25.6600 C.3       1 EE8         0.0310
     13 O11       -19.9950   -1.2580   25.2950 O.2       1 EE8        -0.3866
     14 O12       -14.7130    1.9140   23.0450 O.3       1 EE8        -0.3270
     15 H1        -18.8315    0.1030   23.8569 H         1 EE8         0.0483
     16 H2        -15.3906   -2.3154   24.7410 H         1 EE8         0.0481
     17 H3        -13.7780    3.4025   24.1700 H         1 EE8         0.0606
     18 H4        -13.4325    1.7155   24.6810 H         1 EE8         0.0606
     19 H5        -11.4637    2.7117   23.4820 H         1 EE8         0.0255
     20 H6        -12.4977    3.0213   22.0462 H         1 EE8         0.0255
     21 H7        -12.1523    1.3343   22.5573 H         1 EE8         0.0255
     22 H8        -17.5861   -3.2259   24.7974 H         1 EE8         0.2219
     23 H9        -13.8960   -0.4967   23.9692 H         1 EE8         0.0507
     24 H10       -20.9964   -3.3716   25.9772 H         1 EE8         0.0471
     25 H11       -19.3980   -4.0035   26.4990 H         1 EE8         0.0471
     26 H12       -19.9662   -4.2766   24.8170 H         1 EE8         0.0471
@<TRIPOS>BOND
     1    2    1 ar 
     2    3    1 ar 
     3    1    6 1  
     4    7    2 ar 
     5    8    3 ar 
     6    4    5 1  
     7   14    4 1  
     8    6    9 am 
     9   10    7 ar 
    10    7   11 1  
    11   10    8 ar 
    12    9   12 1  
    13    9   13 2  
    14   10   14 1  
    15    2   15 1  
    16    3   16 1  
    17    4   17 1  
    18    4   18 1  
    19    5   19 1  
    20    5   20 1  
    21    5   21 1  
    22    6   22 1  
    23    8   23 1  
    24   12   24 1  
    25   12   25 1  
    26   12   26 1  
@<TRIPOS>SUBSTRUCTURE
     1 EE8         1

