### 
### Created by X-TOOL on Wed Jan  1 15:39:38 2020
### 

@<TRIPOS>MOLECULE
6g07_ligand
   54    56     1     0     0
SMALL
GAST_HUCK


@<TRIPOS>ATOM
      1 C1        -16.8980    5.0340   79.5690 C.ar      1 EEZ        -0.0151
      2 C2        -16.9080    4.8840   80.9550 C.ar      1 EEZ         0.0847
      3 C3        -17.4440    3.7200   81.5130 C.ar      1 EEZ         0.1664
      4 C11       -19.7140    2.6400   83.1520 C.ar      1 EEZ        -0.0101
      5 C12       -20.3250    3.8980   83.3150 C.ar      1 EEZ        -0.0575
      6 C13       -21.6990    4.0560   83.0740 C.ar      1 EEZ        -0.0685
      7 C14       -22.4580    2.9510   82.6680 C.ar      1 EEZ        -0.0687
      8 C15       -21.8600    1.6970   82.4910 C.ar      1 EEZ        -0.0685
      9 C16       -20.4890    1.5410   82.7360 C.ar      1 EEZ        -0.0575
     10 C17       -17.9540    2.2560   84.9250 C.3       1 EEZ        -0.0241
     11 C18       -17.4350    5.1530   76.5950 C.2       1 EEZ         0.2140
     12 C20       -17.5610    4.9180   75.1100 C.3       1 EEZ         0.0760
     13 C21       -19.0190    5.2660   74.8140 C.ar      1 EEZ        -0.0237
     14 C22       -19.3240    6.5240   74.2820 C.ar      1 EEZ        -0.0562
     15 C23       -20.6570    6.8640   74.0280 C.ar      1 EEZ        -0.0433
     16 C24       -21.6760    5.9480   74.3220 C.ar      1 EEZ         0.0815
     17 C25       -21.3790    4.6870   74.8530 C.ar      1 EEZ        -0.0433
     18 C26       -20.0430    4.3470   75.1070 C.ar      1 EEZ        -0.0562
     19 C28       -23.6340    7.8130   75.0470 C.3       1 EEZ         0.0672
     20 C29       -23.4880    7.4250   76.5370 C.3       1 EEZ        -0.0454
     21 N4        -17.9430    2.7470   80.7200 N.ar      1 EEZ        -0.2891
     22 C5        -17.9500    2.8640   79.3810 C.ar      1 EEZ         0.0197
     23 C6        -17.4220    4.0040   78.7730 C.ar      1 EEZ         0.0830
     24 O7        -17.4590    3.5680   82.8940 O.3       1 EEZ        -0.2922
     25 CL8       -16.2480    6.1380   81.9860 Cl        1 EEZ        -0.0723
     26 N9        -17.4790    4.0460   77.3590 N.am      1 EEZ        -0.2319
     27 C10       -18.2060    2.4450   83.4100 C.3       1 EEZ         0.1128
     28 O19       -17.3400    6.2900   77.0280 O.2       1 EEZ        -0.3825
     29 S27       -23.3560    6.3770   73.9920 S.o2      1 EEZ        -0.0061
     30 O30       -23.3990    6.8260   72.6130 O.2       1 EEZ        -0.1702
     31 O31       -24.2340    5.2840   74.3600 O.2       1 EEZ        -0.1702
     32 H1        -16.4926    5.9306   79.1142 H         1 EEZ         0.0604
     33 H2        -19.7313    4.7491   83.6283 H         1 EEZ         0.0558
     34 H3        -22.1685    5.0248   83.2010 H         1 EEZ         0.0599
     35 H4        -23.5207    3.0678   82.4887 H         1 EEZ         0.0559
     36 H5        -22.4548    0.8510   82.1660 H         1 EEZ         0.0599
     37 H6        -20.0238    0.5707   82.6047 H         1 EEZ         0.0558
     38 H7        -16.8774    2.1174   85.1031 H         1 EEZ         0.0281
     39 H8        -18.5013    1.3704   85.2801 H         1 EEZ         0.0281
     40 H9        -18.3040    3.1458   85.4688 H         1 EEZ         0.0281
     41 H10       -17.3490    3.8682   74.8590 H         1 EEZ         0.0664
     42 H11       -16.8790    5.5740   74.5492 H         1 EEZ         0.0664
     43 H12       -18.5312    7.2315   74.0678 H         1 EEZ         0.0561
     44 H13       -20.9007    7.8321   73.6055 H         1 EEZ         0.0619
     45 H14       -22.1738    3.9811   75.0654 H         1 EEZ         0.0619
     46 H15       -19.7995    3.3783   75.5282 H         1 EEZ         0.0561
     47 H16       -22.8964    8.5912   74.8013 H         1 EEZ         0.0500
     48 H17       -24.6483    8.2006   74.8713 H         1 EEZ         0.0500
     49 H18       -23.6605    8.3113   77.1653 H         1 EEZ         0.0245
     50 H19       -22.4739    7.0392   76.7178 H         1 EEZ         0.0245
     51 H20       -24.2258    6.6486   76.7878 H         1 EEZ         0.0245
     52 H21       -18.3670    2.0705   78.7715 H         1 EEZ         0.0669
     53 H22       -17.5596    3.1703   76.8829 H         1 EEZ         0.2245
     54 H23       -17.8739    1.5371   82.8852 H         1 EEZ         0.0812
@<TRIPOS>BOND
     1    2    1 ar 
     2    1   23 ar 
     3    3    2 ar 
     4    2   25 1  
     5    3   21 ar 
     6   24    3 1  
     7    4    5 ar 
     8    4    9 ar 
     9   27    4 1  
    10    5    6 ar 
    11    6    7 ar 
    12    8    7 ar 
    13    9    8 ar 
    14   27   10 1  
    15   11   12 1  
    16   26   11 am 
    17   11   28 2  
    18   12   13 1  
    19   13   14 ar 
    20   13   18 ar 
    21   14   15 ar 
    22   15   16 ar 
    23   17   16 ar 
    24   16   29 1  
    25   18   17 ar 
    26   19   20 1  
    27   29   19 1  
    28   21   22 ar 
    29   22   23 ar 
    30   23   26 1  
    31   24   27 1  
    32   29   30 2  
    33   29   31 2  
    34    1   32 1  
    35    5   33 1  
    36    6   34 1  
    37    7   35 1  
    38    8   36 1  
    39    9   37 1  
    40   10   38 1  
    41   10   39 1  
    42   10   40 1  
    43   12   41 1  
    44   12   42 1  
    45   14   43 1  
    46   15   44 1  
    47   17   45 1  
    48   18   46 1  
    49   19   47 1  
    50   19   48 1  
    51   20   49 1  
    52   20   50 1  
    53   20   51 1  
    54   22   52 1  
    55   26   53 1  
    56   27   54 1  
@<TRIPOS>SUBSTRUCTURE
     1 EEZ         1

