### 
### Created by X-TOOL on Wed Jan  1 15:39:38 2020
### 

@<TRIPOS>MOLECULE
6g0w_ligand
   54    57     1     0     0
SMALL
GAST_HUCK


@<TRIPOS>ATOM
      1 C           7.9400  -12.7340  -19.2960 C.2       1 EGW         0.1946
      2 O           7.3950  -13.1060  -18.2630 O.2       1 EGW        -0.3898
      3 O1         13.5720  -12.9710  -19.2630 O.3       1 EGW        -0.2535
      4 C1          9.4180  -12.7890  -19.3920 C.ar      1 EGW         0.0388
      5 N           7.2630  -12.3070  -20.3550 N.am      1 EGW        -0.3016
      6 C10        14.9580  -11.3120  -20.2120 C.ar      1 EGW        -0.0084
      7 C11        16.6430   -9.8260  -21.2700 C.2       1 EGW         0.2051
      8 C12        18.2110  -11.6290  -20.7520 C.3       1 EGW         0.0354
      9 C13        19.7190  -11.6770  -20.7070 C.3       1 EGW        -0.0204
     10 C14        20.2550  -11.8560  -22.1140 C.3       1 EGW        -0.0056
     11 C15        19.8690  -10.6220  -22.9280 C.3       1 EGW        -0.0204
     12 C16        18.3550  -10.3900  -22.9370 C.3       1 EGW         0.0354
     13 C17        19.8250  -13.1860  -22.7090 C.ar      1 EGW        -0.0437
     14 C18        20.2290  -14.3700  -22.1120 C.ar      1 EGW        -0.0617
     15 C19        19.8670  -15.5970  -22.6380 C.ar      1 EGW        -0.0349
     16 C2         10.0700  -13.8750  -18.8250 C.ar      1 EGW        -0.0496
     17 C20        19.0950  -15.6160  -23.7640 C.ar      1 EGW         0.1248
     18 C21        18.6490  -14.4830  -24.3750 C.ar      1 EGW        -0.0349
     19 C22        19.0270  -13.2630  -23.8450 C.ar      1 EGW        -0.0617
     20 C23        11.5570  -11.8120  -19.9090 C.ar      1 EGW        -0.0223
     21 C24        10.1750  -11.7660  -19.9480 C.ar      1 EGW        -0.0496
     22 C3         11.4470  -13.9280  -18.7840 C.ar      1 EGW        -0.0223
     23 C4         12.1890  -12.8930  -19.3210 C.ar      1 EGW         0.1215
     24 C5         14.3080  -11.8090  -19.0970 C.ar      1 EGW         0.1229
     25 C6         14.5010  -11.2500  -17.8480 C.ar      1 EGW        -0.0238
     26 C7         15.3980  -10.2030  -17.7140 C.ar      1 EGW        -0.0638
     27 C8         16.0820   -9.7180  -18.8140 C.ar      1 EGW        -0.0523
     28 C9         15.8680  -10.2680  -20.0710 C.ar      1 EGW         0.0424
     29 F          18.8150  -16.8160  -24.3360 F         1 EGW        -0.1893
     30 N1         17.7260  -10.5430  -21.6140 N.am      1 EGW        -0.2722
     31 O2         16.2360   -8.9070  -21.9580 O.2       1 EGW        -0.3845
     32 H1          7.7523  -12.0134  -21.1762 H         1 EGW         0.1805
     33 H2          6.2637  -12.2790  -20.3316 H         1 EGW         0.1805
     34 H3         14.7598  -11.7333  -21.1909 H         1 EGW         0.0604
     35 H4         17.8290  -11.4721  -19.7325 H         1 EGW         0.0523
     36 H5         17.8356  -12.5870  -21.1408 H         1 EGW         0.0523
     37 H6         20.0416  -12.5216  -20.0804 H         1 EGW         0.0308
     38 H7         20.1044  -10.7379  -20.2834 H         1 EGW         0.0308
     39 H8         21.3533  -11.8785  -22.0583 H         1 EGW         0.0455
     40 H9         20.2134  -10.7580  -23.9638 H         1 EGW         0.0308
     41 H10        20.3606   -9.7404  -22.4909 H         1 EGW         0.0308
     42 H11        17.8964  -11.1148  -23.6257 H         1 EGW         0.0523
     43 H12        18.1620   -9.3688  -23.2975 H         1 EGW         0.0523
     44 H13        20.8395  -14.3337  -21.2170 H         1 EGW         0.0547
     45 H14        20.1880  -16.5198  -22.1683 H         1 EGW         0.0587
     46 H15         9.4898  -14.6910  -18.4096 H         1 EGW         0.0643
     47 H16        18.0151  -14.5364  -25.2527 H         1 EGW         0.0587
     48 H17        18.6948  -12.3492  -24.3243 H         1 EGW         0.0547
     49 H18        12.1415  -11.0055  -20.3368 H         1 EGW         0.0566
     50 H19         9.6785  -10.9240  -20.4167 H         1 EGW         0.0643
     51 H20        11.9457  -14.7780  -18.3324 H         1 EGW         0.0566
     52 H21        13.9592  -11.6248  -16.9871 H         1 EGW         0.0589
     53 H22        15.5653   -9.7601  -16.7389 H         1 EGW         0.0602
     54 H23        16.7885   -8.9046  -18.6943 H         1 EGW         0.0581
@<TRIPOS>BOND
     1    1    2 2  
     2    4    1 1  
     3    1    5 am 
     4   23    3 1  
     5    3   24 1  
     6    4   16 ar 
     7   21    4 ar 
     8   24    6 ar 
     9    6   28 ar 
    10   28    7 1  
    11    7   30 am 
    12    7   31 2  
    13    8    9 1  
    14   30    8 1  
    15    9   10 1  
    16   11   10 1  
    17   10   13 1  
    18   12   11 1  
    19   30   12 1  
    20   13   14 ar 
    21   13   19 ar 
    22   14   15 ar 
    23   15   17 ar 
    24   16   22 ar 
    25   18   17 ar 
    26   17   29 1  
    27   19   18 ar 
    28   20   21 ar 
    29   20   23 ar 
    30   22   23 ar 
    31   24   25 ar 
    32   25   26 ar 
    33   26   27 ar 
    34   27   28 ar 
    35    5   32 1  
    36    5   33 1  
    37    6   34 1  
    38    8   35 1  
    39    8   36 1  
    40    9   37 1  
    41    9   38 1  
    42   10   39 1  
    43   11   40 1  
    44   11   41 1  
    45   12   42 1  
    46   12   43 1  
    47   14   44 1  
    48   15   45 1  
    49   16   46 1  
    50   18   47 1  
    51   19   48 1  
    52   20   49 1  
    53   21   50 1  
    54   22   51 1  
    55   25   52 1  
    56   26   53 1  
    57   27   54 1  
@<TRIPOS>SUBSTRUCTURE
     1 EGW         1

