### 
### Created by X-TOOL on Wed Jan  1 15:39:36 2020
### 

@<TRIPOS>MOLECULE
6g1u_ligand
   29    31     1     0     0
SMALL
GAST_HUCK


@<TRIPOS>ATOM
      1 CAA         6.7960   -7.1370   21.7780 C.ar      1 E1K        -0.0235
      2 CAB         6.9920   -6.6810   20.3570 C.ar      1 E1K        -0.0237
      3 CAC         6.1370   -5.4570   20.1650 C.ar      1 E1K        -0.0061
      4 CAD         4.8130   -5.7030   20.5410 C.ar      1 E1K         0.0818
      5 CAF         2.5530   -5.0370   20.3970 C.ar      1 E1K         0.0824
      6 CAG         1.5850   -4.1670   19.9000 C.ar      1 E1K         0.0086
      7 CAH         0.2480   -4.3520   20.2400 C.ar      1 E1K         0.0798
      8 CAI        -0.1320   -5.3970   21.0700 C.ar      1 E1K        -0.0095
      9 CAJ         0.8280   -6.2670   21.5670 C.ar      1 E1K        -0.0086
     10 CAK         2.1630   -6.0810   21.2270 C.ar      1 E1K         0.0924
     11 CAL         3.1410   -6.9300   21.7090 C.ar      1 E1K         0.1451
     12 CAM         4.4730   -6.7630   21.3910 C.ar      1 E1K         0.0926
     13 CAN         5.3940   -7.6700   21.9040 C.ar      1 E1K        -0.0085
     14 CAP         4.2450   -3.7470   19.1910 C.3       1 E1K         0.0113
     15 NAE         3.8540   -4.8710   20.0780 N.ar      1 E1K        -0.3349
     16 NAO         2.7980   -7.9360   22.5040 N.pl3     1 E1K        -0.2839
     17 CLA        -0.9500   -3.2980   19.6410 Cl        1 E1K        -0.0510
     18 H1          7.5341   -7.0899   22.5705 H         1 E1K         0.0816
     19 H2          7.6284   -7.1460   19.6128 H         1 E1K         0.0789
     20 H3          6.5003   -4.5090   19.7850 H         1 E1K         0.0884
     21 H4          1.8723   -3.3482   19.2503 H         1 E1K         0.0896
     22 H5         -1.1756   -5.5333   21.3294 H         1 E1K         0.0817
     23 H6          0.5390   -7.0859   22.2158 H         1 E1K         0.0883
     24 H7          5.1371   -8.6304   22.3360 H         1 E1K         0.0884
     25 H8          5.3342   -3.7626   19.0378 H         1 E1K         0.0447
     26 H9          3.9539   -2.7940   19.6568 H         1 E1K         0.0447
     27 H10         3.7368   -3.8514   18.2210 H         1 E1K         0.0447
     28 H11         1.8095   -8.0801   22.7549 H         1 E1K         0.2123
     29 H12         3.5203   -8.5725   22.8700 H         1 E1K         0.2123
@<TRIPOS>BOND
     1    2    1 ar 
     2    1   13 ar 
     3    3    2 ar 
     4    4    3 ar 
     5    4   12 ar 
     6   15    4 ar 
     7    5    6 ar 
     8    5   10 ar 
     9    5   15 ar 
    10    6    7 ar 
    11    7    8 ar 
    12    7   17 1  
    13    8    9 ar 
    14    9   10 ar 
    15   10   11 ar 
    16   11   12 ar 
    17   11   16 1  
    18   12   13 ar 
    19   15   14 1  
    20    1   18 1  
    21    2   19 1  
    22    3   20 1  
    23    6   21 1  
    24    8   22 1  
    25    9   23 1  
    26   13   24 1  
    27   14   25 1  
    28   14   26 1  
    29   14   27 1  
    30   16   28 1  
    31   16   29 1  
@<TRIPOS>SUBSTRUCTURE
     1 E1K         1

