### 
### Created by X-TOOL on Wed Jan  1 15:39:36 2020
### 

@<TRIPOS>MOLECULE
6g1v_ligand
   44    47     1     0     0
SMALL
GAST_HUCK


@<TRIPOS>ATOM
      1 CAA         6.4130   -5.6230   20.3120 C.ar      1 E1N        -0.0068
      2 CAB         5.0320   -5.4500   20.4190 C.ar      1 E1N         0.0892
      3 CAC         4.3150   -6.2170   21.3240 C.ar      1 E1N         0.0755
      4 CAD         4.9540   -7.1600   22.1250 C.ar      1 E1N         0.0105
      5 CAE         6.3270   -7.3340   22.0280 C.ar      1 E1N         0.0852
      6 CAF         7.0730   -6.5610   21.1240 C.ar      1 E1N        -0.0049
      7 CAG         2.2790   -5.1980   20.7250 C.ar      1 E1N         0.0701
      8 CAH         2.9240   -4.3940   19.7880 C.ar      1 E1N         0.0922
      9 CAI         4.3110   -4.5310   19.6500 C.ar      1 E1N         0.1545
     10 CAJ         2.2170   -3.4370   19.0510 C.3       1 E1N         0.0348
     11 CAK         0.7300   -3.7270   18.9870 C.3       1 E1N        -0.0230
     12 CAL         0.2150   -3.9460   20.4200 C.3       1 E1N        -0.0188
     13 CAM         0.8830   -5.1900   20.9610 C.3       1 E1N         0.0122
     14 CAN         2.2760   -6.9020   22.3770 C.3       1 E1N         0.0078
     15 CAR         2.3710   -2.0860   19.8110 C.3       1 E1N        -0.0081
     16 CAS         0.4890   -2.8610   21.2420 C.2       1 E1N        -0.1028
     17 CAT         1.5420   -1.9910   20.9820 C.2       1 E1N        -0.0772
     18 CAU         1.6290   -0.9280   21.8820 C.3       1 E1N        -0.0309
     19 CAV         3.0580   -0.5670   22.2070 C.3       1 E1N        -0.0568
     20 NAO         4.9770   -3.7630   18.7720 N.pl3     1 E1N        -0.2841
     21 NAQ         2.9890   -6.0790   21.4220 N.ar      1 E1N        -0.3379
     22 CLA         7.0940   -8.5070   23.0970 Cl        1 E1N        -0.0471
     23 H1          6.9781   -5.0320   19.6003 H         1 E1N         0.0952
     24 H2          4.3793   -7.7574   22.8235 H         1 E1N         0.0960
     25 H3          8.1474   -6.6865   21.0531 H         1 E1N         0.0813
     26 H4          2.6294   -3.3692   18.0335 H         1 E1N         0.0605
     27 H5          0.5536   -4.6317   18.3867 H         1 E1N         0.0326
     28 H6          0.2049   -2.8754   18.5298 H         1 E1N         0.0326
     29 H7         -0.8741   -4.0979   20.3914 H         1 E1N         0.0403
     30 H8          0.7076   -5.2420   22.0457 H         1 E1N         0.0485
     31 H9          0.4373   -6.0703   20.4748 H         1 E1N         0.0485
     32 H10         2.9835   -7.5795   22.8774 H         1 E1N         0.0432
     33 H11         1.5109   -7.4931   21.8525 H         1 E1N         0.0432
     34 H12         1.7922   -6.2585   23.1265 H         1 E1N         0.0432
     35 H13         2.1019   -1.2682   19.1263 H         1 E1N         0.0451
     36 H14         3.4216   -1.9766   20.1180 H         1 E1N         0.0451
     37 H15        -0.1384   -2.6865   22.1148 H         1 E1N         0.0247
     38 H16         1.1151   -1.2098   22.8128 H         1 E1N         0.0408
     39 H17         1.1341   -0.0501   21.4412 H         1 E1N         0.0408
     40 H18         3.0715    0.2728   22.9173 H         1 E1N         0.0251
     41 H19         3.5815   -0.2754   21.2845 H         1 E1N         0.0251
     42 H20         3.5625   -1.4352   22.6561 H         1 E1N         0.0251
     43 H21         5.9970   -3.8633   18.6701 H         1 E1N         0.2147
     44 H22         4.4677   -3.0738   18.2006 H         1 E1N         0.2147
@<TRIPOS>BOND
     1    2    1 ar 
     2    1    6 ar 
     3    3    2 ar 
     4    2    9 ar 
     5    3    4 ar 
     6   21    3 ar 
     7    4    5 ar 
     8    5    6 ar 
     9    5   22 1  
    10    7    8 ar 
    11    7   13 1  
    12    7   21 ar 
    13    8    9 ar 
    14    8   10 1  
    15    9   20 1  
    16   10   11 1  
    17   10   15 1  
    18   11   12 1  
    19   12   13 1  
    20   12   16 1  
    21   21   14 1  
    22   15   17 1  
    23   16   17 2  
    24   17   18 1  
    25   18   19 1  
    26    1   23 1  
    27    4   24 1  
    28    6   25 1  
    29   10   26 1  
    30   11   27 1  
    31   11   28 1  
    32   12   29 1  
    33   13   30 1  
    34   13   31 1  
    35   14   32 1  
    36   14   33 1  
    37   14   34 1  
    38   15   35 1  
    39   15   36 1  
    40   16   37 1  
    41   18   38 1  
    42   18   39 1  
    43   19   40 1  
    44   19   41 1  
    45   19   42 1  
    46   20   43 1  
    47   20   44 1  
@<TRIPOS>SUBSTRUCTURE
     1 E1N         1

