### 
### Created by X-TOOL on Wed Jan  1 15:39:36 2020
### 

@<TRIPOS>MOLECULE
6g1w_ligand
   62    66     1     0     0
SMALL
GAST_HUCK


@<TRIPOS>ATOM
      1 C10        -5.8650   -5.9860   55.2340 C.ar      1 E0Z        -0.0465
      2 C13        -2.3300   -4.6890   55.5990 C.ar      1 E0Z         0.0376
      3 C17        -6.1750   -2.2650   56.8540 C.3       1 E0Z         0.0970
      4 C24        -6.2380    0.2350   51.2150 C.2       1 E0Z         0.1856
      5 C28        -6.5780    1.5770   49.0910 C.3       1 E0Z         0.0573
      6 C01        -0.1670   -3.6480   56.1320 C.ar      1 E0Z        -0.0598
      7 C02         0.4320   -4.3950   55.0930 C.ar      1 E0Z        -0.0615
      8 C03        -0.3190   -5.2970   54.3380 C.ar      1 E0Z        -0.0497
      9 C04        -1.7270   -5.4320   54.6070 C.ar      1 E0Z         0.0172
     10 C06        -3.8030   -6.5010   54.0490 C.ar      1 E0Z         0.0175
     11 C07        -4.5080   -7.4300   53.2430 C.ar      1 E0Z        -0.0358
     12 C08        -5.8690   -7.6080   53.4470 C.ar      1 E0Z         0.0415
     13 C09        -6.5660   -6.8920   54.4370 C.ar      1 E0Z        -0.0459
     14 C11        -4.4660   -5.8000   55.0160 C.ar      1 E0Z         0.0376
     15 C12        -3.7500   -4.8630   55.8290 C.ar      1 E0Z         0.0976
     16 C14        -1.5450   -3.7820   56.3850 C.ar      1 E0Z        -0.0468
     17 C16        -4.7180   -2.7070   56.6510 C.3       1 E0Z         0.0645
     18 C18        -5.6010   -1.0560   54.8600 C.2       1 E0Z         0.0721
     19 C19        -6.2700   -0.6500   53.6550 C.2       1 E0Z         0.0557
     20 C23        -5.5330    0.1430   52.5600 C.3       1 E0Z         0.0715
     21 C29        -7.6100    2.7040   49.1090 C.ar      1 E0Z        -0.0407
     22 C30        -7.1490    3.9840   48.9300 C.ar      1 E0Z        -0.0379
     23 C31        -8.0430    5.0360   48.9530 C.ar      1 E0Z         0.1130
     24 C32        -9.4070    4.8400   49.1260 C.ar      1 E0Z         0.1091
     25 C33        -9.8780    3.5460   49.3080 C.ar      1 E0Z        -0.0481
     26 C34        -8.9730    2.4870   49.3040 C.ar      1 E0Z        -0.0782
     27 C37        -6.7720    6.1950   47.5720 C.3       1 E0Z         0.0568
     28 N05        -2.4610   -6.3140   53.8690 N.ar      1 E0Z        -0.3396
     29 N20        -6.5240   -1.6920   55.5730 N.pl3     1 E0Z        -0.1786
     30 N21        -7.6750   -1.7280   54.9020 N.2       1 E0Z        -0.1015
     31 N22        -7.5510   -1.0870   53.7400 N.2       1 E0Z        -0.2240
     32 N26        -5.9560    1.4130   50.3970 N.am      1 E0Z        -0.2763
     33 N27        -4.4950   -4.1300   56.8440 N.pl3     1 E0Z        -0.2936
     34 O25        -6.9770   -0.6290   50.8620 O.2       1 E0Z        -0.3950
     35 O35       -10.2820    5.9420   49.1240 O.3       1 E0Z        -0.3414
     36 O36        -7.5040    6.2950   48.7450 O.3       1 E0Z        -0.3266
     37 CL1        -6.7380   -8.7650   52.4210 Cl        1 E0Z        -0.0657
     38 H1         -6.3771   -5.4293   56.0105 H         1 E0Z         0.0674
     39 H2         -6.2527   -1.5162   57.6561 H         1 E0Z         0.0670
     40 H3         -6.8193   -3.1245   57.0910 H         1 E0Z         0.0670
     41 H4         -5.8002    1.8143   48.3503 H         1 E0Z         0.0661
     42 H5         -7.0771    0.6377   48.8106 H         1 E0Z         0.0661
     43 H6          0.4329   -2.9738   56.7324 H         1 E0Z         0.0582
     44 H7          1.4870   -4.2660   54.8799 H         1 E0Z         0.0657
     45 H8          0.1511   -5.8876   53.5600 H         1 E0Z         0.0582
     46 H9         -3.9900   -7.9947   52.4763 H         1 E0Z         0.0587
     47 H10        -7.6303   -7.0415   54.5785 H         1 E0Z         0.0587
     48 H11        -2.0119   -3.2010   57.1721 H         1 E0Z         0.0675
     49 H12        -4.0882   -2.1589   57.3672 H         1 E0Z         0.0568
     50 H13        -4.4183   -2.4469   55.6251 H         1 E0Z         0.0568
     51 H14        -4.5609   -0.8802   55.1306 H         1 E0Z         0.0906
     52 H15        -5.3806    1.1673   52.9310 H         1 E0Z         0.0615
     53 H16        -4.5568   -0.3368   52.3963 H         1 E0Z         0.0615
     54 H17        -6.0924    4.1676   48.7720 H         1 E0Z         0.0451
     55 H18       -10.9367    3.3625   49.4514 H         1 E0Z         0.0492
     56 H19        -9.3351    1.4765   49.4552 H         1 E0Z         0.0437
     57 H20        -6.3114    7.1674   47.3433 H         1 E0Z         0.0573
     58 H21        -7.4387    5.9021   46.7475 H         1 E0Z         0.0573
     59 H22        -5.9851    5.4362   47.6944 H         1 E0Z         0.0573
     60 H23        -5.3292    2.1136   50.7380 H         1 E0Z         0.1876
     61 H24        -4.8560   -4.6102   57.6807 H         1 E0Z         0.1942
     62 H25       -10.7331    5.9883   49.9588 H         1 E0Z         0.2420
@<TRIPOS>BOND
     1    1   13 ar 
     2   14    1 ar 
     3    2    9 ar 
     4   15    2 ar 
     5    2   16 ar 
     6    3   17 1  
     7   29    3 1  
     8   20    4 1  
     9    4   32 am 
    10    4   34 2  
    11    5   21 1  
    12   32    5 1  
    13    6    7 ar 
    14   16    6 ar 
    15    8    7 ar 
    16    9    8 ar 
    17    9   28 ar 
    18   10   11 ar 
    19   14   10 ar 
    20   10   28 ar 
    21   11   12 ar 
    22   13   12 ar 
    23   12   37 1  
    24   15   14 ar 
    25   33   15 1  
    26   17   33 1  
    27   19   18 2  
    28   18   29 1  
    29   19   20 1  
    30   19   31 1  
    31   21   22 ar 
    32   21   26 ar 
    33   22   23 ar 
    34   23   24 ar 
    35   23   36 1  
    36   24   25 ar 
    37   24   35 1  
    38   25   26 ar 
    39   36   27 1  
    40   29   30 1  
    41   30   31 2  
    42    1   38 1  
    43    3   39 1  
    44    3   40 1  
    45    5   41 1  
    46    5   42 1  
    47    6   43 1  
    48    7   44 1  
    49    8   45 1  
    50   11   46 1  
    51   13   47 1  
    52   16   48 1  
    53   17   49 1  
    54   17   50 1  
    55   18   51 1  
    56   20   52 1  
    57   20   53 1  
    58   22   54 1  
    59   25   55 1  
    60   26   56 1  
    61   27   57 1  
    62   27   58 1  
    63   27   59 1  
    64   32   60 1  
    65   33   61 1  
    66   35   62 1  
@<TRIPOS>SUBSTRUCTURE
     1 E0Z         1

