### 
### Created by X-TOOL on Mon Aug  2 16:13:27 2021
### 

@<TRIPOS>MOLECULE
6g24_ligand
   25    26     1     0     0
SMALL
GAST_HUCK


@<TRIPOS>ATOM
      1 C4         -1.6300  -19.0620   17.7610 C.ar      1 EH2         0.0132
      2 C5         -5.0060  -18.4900   16.5200 C.2       1 EH2        -0.0480
      3 C7         -2.5030  -18.4660   16.8130 C.ar      1 EH2        -0.0181
      4 C8         -8.1570  -20.7070   15.9090 C.2       1 EH2        -0.0015
      5 C13        -0.3920  -18.4640   18.0180 C.ar      1 EH2        -0.0497
      6 C15        -0.0230  -17.2950   17.3660 C.ar      1 EH2        -0.0603
      7 C1         -1.9780  -20.2920   18.5700 C.2       1 EH2         0.0611
      8 C11        -8.5980  -19.4390   16.0700 C.2       1 EH2        -0.0687
      9 C14        -2.0900  -17.3010   16.1480 C.ar      1 EH2        -0.0544
     10 C16        -0.8590  -16.7290   16.4240 C.ar      1 EH2        -0.0610
     11 C2         -3.8090  -19.0750   16.5170 C.2       1 EH2        -0.0579
     12 C3         -6.2800  -19.1390   16.2950 C.2       1 EH2         0.0305
     13 C9         -7.5210  -18.5140   16.2960 C.2       1 EH2        -0.0641
     14 O10        -3.0710  -20.3110   19.1780 O.co2     1 EH2        -0.5617
     15 O12        -1.1450  -21.2280   18.6120 O.co2     1 EH2        -0.5617
     16 S6         -6.4380  -20.8320   16.0020 S.3       1 EH2        -0.0365
     17 H1         -5.0280  -17.4180   16.7105 H         1 EH2         0.0627
     18 H2         -8.8154  -21.5576   15.7390 H         1 EH2         0.0784
     19 H3          0.2855  -18.9173   18.7326 H         1 EH2         0.0646
     20 H4          0.9257  -16.8245   17.5975 H         1 EH2         0.0607
     21 H5         -9.6478  -19.1517   16.0328 H         1 EH2         0.0443
     22 H6         -2.7408  -16.8444   15.4111 H         1 EH2         0.0613
     23 H7         -0.5505  -15.8328   15.8980 H         1 EH2         0.0632
     24 H8         -3.7958  -20.1342   16.2644 H         1 EH2         0.0559
     25 H9         -7.6617  -17.4452   16.4504 H         1 EH2         0.0479
@<TRIPOS>BOND
     1    3    1 ar 
     2    1    5 ar 
     3    1    7 1  
     4    2   11 2  
     5   12    2 1  
     6    3    9 ar 
     7   11    3 1  
     8    8    4 2  
     9    4   16 1  
    10    5    6 ar 
    11   10    6 ar 
    12    7   14 ar 
    13    7   15 ar 
    14   13    8 1  
    15    9   10 ar 
    16   12   13 2  
    17   12   16 1  
    18    2   17 1  
    19    4   18 1  
    20    5   19 1  
    21    6   20 1  
    22    8   21 1  
    23    9   22 1  
    24   10   23 1  
    25   11   24 1  
    26   13   25 1  
@<TRIPOS>SUBSTRUCTURE
     1 EH2         1

