### 
### Created by X-TOOL on Mon Aug  2 16:13:27 2021
### 

@<TRIPOS>MOLECULE
6g25_ligand
   30    32     1     0     0
SMALL
GAST_HUCK


@<TRIPOS>ATOM
      1 C5         -5.7370    7.3500  -21.9150 C.2       1 EHQ         0.1450
      2 C8         -3.7040    8.0650  -22.3830 C.2       1 EHQ         0.0226
      3 C10        -3.2350    6.9350  -17.9220 C.2       1 EHQ         0.0628
      4 N12        -1.8740   11.7200  -19.4160 N.ar      1 EHQ        -0.3072
      5 C13        -6.9780    6.7470  -21.2930 C.3       1 EHQ         0.0122
      6 C15        -1.0870   10.7520  -18.9550 C.ar      1 EHQ         0.0023
      7 C17        -1.5670    9.4700  -18.7650 C.ar      1 EHQ        -0.0368
      8 N9         -3.7800    5.7710  -18.2150 N.pl3     1 EHQ        -0.2222
      9 C18        -3.6760   10.2210  -19.6500 C.ar      1 EHQ        -0.0368
     10 C11        -2.8930    9.1850  -19.1220 C.ar      1 EHQ        -0.0181
     11 C1         -4.0650    7.0680  -20.0040 C.2       1 EHQ         0.0270
     12 C14        -2.2410    8.4220  -22.3110 C.3       1 EHQ        -0.0272
     13 C2         -4.4890    7.4830  -21.3550 C.2       1 EHQ         0.0253
     14 C16        -3.1380   11.4940  -19.7600 C.ar      1 EHQ         0.0023
     15 N7         -4.2790    5.8280  -19.5080 N.2       1 EHQ        -0.2281
     16 C3         -3.3850    7.7920  -19.0280 C.2       1 EHQ         0.0108
     17 N4         -4.5020    8.2100  -23.3980 N.2       1 EHQ        -0.1681
     18 O6         -5.6360    7.8190  -23.1540 O.3       1 EHQ        -0.1748
     19 H1         -2.7498    7.1907  -16.9812 H         1 EHQ         0.1069
     20 H2         -7.8093    6.7964  -22.0116 H         1 EHQ         0.0465
     21 H3         -7.2437    7.3094  -20.3857 H         1 EHQ         0.0465
     22 H4         -6.7830    5.6970  -21.0296 H         1 EHQ         0.0465
     23 H5         -0.0510   10.9724  -18.7243 H         1 EHQ         0.0799
     24 H6         -0.9300    8.6986  -18.3475 H         1 EHQ         0.0656
     25 H7         -3.8274    4.9551  -17.5882 H         1 EHQ         0.2576
     26 H8         -4.6937   10.0283  -19.9696 H         1 EHQ         0.0656
     27 H9         -1.9220    8.8566  -23.2699 H         1 EHQ         0.0379
     28 H10        -1.6522    7.5160  -22.1052 H         1 EHQ         0.0379
     29 H11        -2.0814    9.1540  -21.5056 H         1 EHQ         0.0379
     30 H12        -3.7509   12.3088  -20.1282 H         1 EHQ         0.0799
@<TRIPOS>BOND
     1    1    5 1  
     2   13    1 2  
     3    1   18 1  
     4    2   12 1  
     5   13    2 1  
     6    2   17 2  
     7    8    3 1  
     8    3   16 2  
     9    6    4 ar 
    10   14    4 ar 
    11    7    6 ar 
    12   10    7 ar 
    13   15    8 1  
    14   10    9 ar 
    15    9   14 ar 
    16   16   10 1  
    17   11   13 1  
    18   11   15 2  
    19   11   16 1  
    20   17   18 1  
    21    3   19 1  
    22    5   20 1  
    23    5   21 1  
    24    5   22 1  
    25    6   23 1  
    26    7   24 1  
    27    8   25 1  
    28    9   26 1  
    29   12   27 1  
    30   12   28 1  
    31   12   29 1  
    32   14   30 1  
@<TRIPOS>SUBSTRUCTURE
     1 EHQ         1

