### 
### Created by X-TOOL on Mon Aug  2 16:13:27 2021
### 

@<TRIPOS>MOLECULE
6g29_ligand
   41    43     1     0     0
SMALL
GAST_HUCK


@<TRIPOS>ATOM
      1 C4         -4.8370    5.7900  -20.5300 C.2       1 EHK         0.2095
      2 C8         -3.4860    8.1680  -19.9990 C.2       1 EHK         0.0600
      3 C10        -1.4560    9.5770  -19.5820 C.ar      1 EHK        -0.0386
      4 N12        -1.5700   11.9720  -19.6500 N.ar      1 EHK        -0.3121
      5 C13        -2.8720   11.8630  -19.9370 C.ar      1 EHK        -0.0017
      6 C15        -5.3010    6.7610  -22.7950 C.3       1 EHK         0.0778
      7 C17        -4.9070    7.0680  -25.2440 C.3       1 EHK        -0.0315
      8 C20        -6.4850    7.7240  -22.8770 C.3       1 EHK         0.0130
      9 C1         -2.9940    7.3540  -17.5660 C.3       1 EHK        -0.0321
     10 C2         -3.5560    7.1480  -18.9470 C.2       1 EHK        -0.0236
     11 C3         -4.2420    6.0190  -19.2460 C.3       1 EHK         0.0691
     12 O5         -5.4230    4.7580  -20.8490 O.2       1 EHK        -0.3918
     13 N6         -4.6880    6.8120  -21.4490 N.am      1 EHK        -0.1774
     14 N7         -4.0280    7.9880  -21.1700 N.pl3     1 EHK        -0.2386
     15 C9         -2.8230    9.4800  -19.8200 C.ar      1 EHK        -0.0035
     16 C11        -0.8800   10.8330  -19.5160 C.ar      1 EHK        -0.0017
     17 C14        -3.5390   10.6550  -20.0200 C.ar      1 EHK        -0.0386
     18 C16        -4.2620    7.0720  -23.8710 C.3       1 EHK         0.0130
     19 N18        -6.0450    8.0310  -25.2890 N.4       1 EHK         0.2271
     20 C19        -7.0850    7.7110  -24.2700 C.3       1 EHK        -0.0315
     21 H1         -0.8535    8.6854  -19.4507 H         1 EHK         0.0637
     22 H2         -3.4351   12.7721  -20.1143 H         1 EHK         0.0786
     23 H3         -5.6756    5.7409  -22.9654 H         1 EHK         0.0584
     24 H4         -5.2793    6.0571  -25.4662 H         1 EHK         0.0814
     25 H5         -4.1585    7.3568  -25.9965 H         1 EHK         0.0814
     26 H6         -6.1409    8.7417  -22.6406 H         1 EHK         0.0340
     27 H7         -7.2516    7.4179  -22.1499 H         1 EHK         0.0340
     28 H8         -3.1678    6.4519  -16.9611 H         1 EHK         0.0396
     29 H9         -3.4903    8.2140  -17.0927 H         1 EHK         0.0396
     30 H10        -1.9132    7.5466  -17.6349 H         1 EHK         0.0396
     31 H11        -3.5429    5.1858  -19.0817 H         1 EHK         0.0664
     32 H12        -5.0622    5.9590  -18.5155 H         1 EHK         0.0664
     33 H13        -3.9629    8.7249  -21.8867 H         1 EHK         0.1938
     34 H14         0.1887   10.8983  -19.3465 H         1 EHK         0.0786
     35 H15        -4.6006   10.6244  -20.2370 H         1 EHK         0.0637
     36 H16        -3.4691    6.3101  -23.8406 H         1 EHK         0.0340
     37 H17        -3.8257    8.0632  -23.6782 H         1 EHK         0.0340
     38 H18        -6.4648    7.9968  -26.2048 H         1 EHK         0.2013
     39 H19        -5.6932    8.9595  -25.1150 H         1 EHK         0.2013
     40 H20        -7.8885    8.4602  -24.3252 H         1 EHK         0.0814
     41 H21        -7.4992    6.7131  -24.4765 H         1 EHK         0.0814
@<TRIPOS>BOND
     1   11    1 1  
     2    1   12 2  
     3    1   13 am 
     4   10    2 2  
     5    2   14 1  
     6    2   15 1  
     7   15    3 ar 
     8    3   16 ar 
     9    4    5 ar 
    10   16    4 ar 
    11    5   17 ar 
    12    6    8 1  
    13   13    6 1  
    14    6   18 1  
    15   18    7 1  
    16    7   19 1  
    17    8   20 1  
    18   10    9 1  
    19   10   11 1  
    20   13   14 1  
    21   15   17 ar 
    22   19   20 1  
    23    3   21 1  
    24    5   22 1  
    25    6   23 1  
    26    7   24 1  
    27    7   25 1  
    28    8   26 1  
    29    8   27 1  
    30    9   28 1  
    31    9   29 1  
    32    9   30 1  
    33   11   31 1  
    34   11   32 1  
    35   14   33 1  
    36   16   34 1  
    37   17   35 1  
    38   18   36 1  
    39   18   37 1  
    40   19   38 1  
    41   19   39 1  
    42   20   40 1  
    43   20   41 1  
@<TRIPOS>SUBSTRUCTURE
     1 EHK         1

