### 
### Created by X-TOOL on Mon Aug  2 16:13:27 2021
### 

@<TRIPOS>MOLECULE
6g2b_ligand
   31    33     1     0     0
SMALL
GAST_HUCK


@<TRIPOS>ATOM
      1 N1         -3.4390    7.2170  -18.7500 N.pl3     1 EH8        -0.2396
      2 N3         -4.5600    6.2050  -20.3790 N.2       1 EH8        -0.3066
      3 C4         -4.1690    7.4560  -20.8410 C.2       1 EH8         0.0434
      4 C5         -3.4420    8.1110  -19.8690 C.2       1 EH8         0.1040
      5 C6         -4.5280    7.8770  -22.2130 C.ar      1 EH8        -0.0210
      6 C7         -2.8360    9.4600  -19.8500 C.ar      1 EH8         0.0228
      7 C8         -5.8380    7.7340  -22.6810 C.ar      1 EH8        -0.0587
      8 C10        -5.2060    8.6550  -24.8080 C.ar      1 EH8        -0.0650
      9 C13        -2.8390    7.4270  -17.4350 C.3       1 EH8         0.0489
     10 C15        -2.9670   11.8200  -20.2200 C.ar      1 EH8         0.0061
     11 C17        -1.0080   10.9400  -19.4370 C.ar      1 EH8         0.0061
     12 C2         -4.1050    6.1110  -19.1560 C.2       1 EH8         0.1059
     13 C9         -6.1700    8.1220  -23.9700 C.ar      1 EH8        -0.0649
     14 C11        -3.9040    8.7960  -24.3560 C.ar      1 EH8        -0.0649
     15 C12        -3.5630    8.4090  -23.0700 C.ar      1 EH8        -0.0587
     16 C14        -3.5730   10.5790  -20.2500 C.ar      1 EH8        -0.0288
     17 N16        -1.7120   12.0210  -19.8000 N.ar      1 EH8        -0.3036
     18 C18        -1.5220    9.6540  -19.4390 C.ar      1 EH8        -0.0288
     19 H1         -6.5991    7.3169  -22.0315 H         1 EH8         0.0593
     20 H2         -5.4687    8.9610  -25.8142 H         1 EH8         0.0590
     21 H3         -3.0175    6.5430  -16.8052 H         1 EH8         0.0586
     22 H4         -3.2915    8.3113  -16.9625 H         1 EH8         0.0586
     23 H5         -1.7562    7.5848  -17.5470 H         1 EH8         0.0586
     24 H6         -3.5389   12.6778  -20.5548 H         1 EH8         0.0807
     25 H7          0.0205   11.0799  -19.1246 H         1 EH8         0.0807
     26 H8         -4.2476    5.2324  -18.5286 H         1 EH8         0.1290
     27 H9         -7.1885    8.0075  -24.3228 H         1 EH8         0.0609
     28 H10        -3.1477    9.2115  -25.0122 H         1 EH8         0.0609
     29 H11        -2.5406    8.5200  -22.7273 H         1 EH8         0.0593
     30 H12        -4.6010   10.4745  -20.5776 H         1 EH8         0.0690
     31 H13        -0.9115    8.8147  -19.1261 H         1 EH8         0.0690
@<TRIPOS>BOND
     1    1    4 1  
     2    1    9 1  
     3   12    1 1  
     4    2    3 1  
     5    2   12 2  
     6    3    4 2  
     7    3    5 1  
     8    4    6 1  
     9    5    7 ar 
    10    5   15 ar 
    11    6   16 ar 
    12    6   18 ar 
    13    7   13 ar 
    14   13    8 ar 
    15    8   14 ar 
    16   16   10 ar 
    17   10   17 ar 
    18   17   11 ar 
    19   11   18 ar 
    20   14   15 ar 
    21    7   19 1  
    22    8   20 1  
    23    9   21 1  
    24    9   22 1  
    25    9   23 1  
    26   10   24 1  
    27   11   25 1  
    28   12   26 1  
    29   13   27 1  
    30   14   28 1  
    31   15   29 1  
    32   16   30 1  
    33   18   31 1  
@<TRIPOS>SUBSTRUCTURE
     1 EH8         1

