### 
### Created by X-TOOL on Mon Aug  2 16:13:27 2021
### 

@<TRIPOS>MOLECULE
6g2c_ligand
   33    35     1     0     0
SMALL
GAST_HUCK


@<TRIPOS>ATOM
      1 N3         -1.6540   11.9670  -19.8120 N.ar      1 EHT        -0.3084
      2 C4         -0.9310   10.8890  -19.4830 C.ar      1 EHT         0.0017
      3 C5         -1.4370    9.6010  -19.4760 C.ar      1 EHT        -0.0340
      4 C6         -2.7750    9.4040  -19.8020 C.ar      1 EHT         0.0112
      5 C7         -3.3590    8.0460  -19.8350 C.2       1 EHT         0.0874
      6 C8         -4.0000    7.3540  -20.8530 C.2       1 EHT         0.0224
      7 C10        -3.9400    6.0200  -19.1730 C.2       1 EHT         0.1010
      8 C13        -4.3750    7.8020  -22.1770 C.2       1 EHT         0.0201
      9 C17        -3.5580    8.4150  -23.1840 C.2       1 EHT         0.0218
     10 C1         -3.5340   10.5150  -20.1640 C.ar      1 EHT        -0.0340
     11 C2         -2.9360   11.7620  -20.1490 C.ar      1 EHT         0.0017
     12 N9         -4.3490    6.0830  -20.4200 N.2       1 EHT        -0.3144
     13 N11        -3.2790    7.1250  -18.7630 N.pl3     1 EHT        -0.2486
     14 C12        -2.7200    7.3460  -17.4330 C.3       1 EHT         0.0459
     15 C14        -5.6250    7.7460  -22.7380 C.2       1 EHT         0.1425
     16 O15        -5.5730    8.2430  -23.9880 O.3       1 EHT        -0.1763
     17 N16        -4.2540    8.6900  -24.2500 N.2       1 EHT        -0.1685
     18 C18        -6.9460    7.2380  -22.2920 C.3       1 EHT         0.0112
     19 C19        -2.1030    8.7500  -23.1560 C.3       1 EHT        -0.0273
     20 H1          0.1073   11.0331  -19.2071 H         1 EHT         0.0795
     21 H2         -0.8019    8.7603  -19.2210 H         1 EHT         0.0660
     22 H3         -4.1170    5.1587  -18.5306 H         1 EHT         0.1280
     23 H4         -4.5732   10.4041  -20.4518 H         1 EHT         0.0660
     24 H5         -3.5366   12.6212  -20.4249 H         1 EHT         0.0795
     25 H6         -2.2411    8.3356  -17.3964 H         1 EHT         0.0580
     26 H7         -1.9726    6.5687  -17.2156 H         1 EHT         0.0580
     27 H8         -3.5249    7.3003  -16.6847 H         1 EHT         0.0580
     28 H9         -7.6894    7.4034  -23.0857 H         1 EHT         0.0462
     29 H10        -7.2562    7.7724  -21.3820 H         1 EHT         0.0462
     30 H11        -6.8717    6.1616  -22.0779 H         1 EHT         0.0462
     31 H12        -1.8154    9.2151  -24.1105 H         1 EHT         0.0378
     32 H13        -1.5179    7.8308  -23.0050 H         1 EHT         0.0378
     33 H14        -1.9039    9.4509  -22.3320 H         1 EHT         0.0378
@<TRIPOS>BOND
     1    1    2 ar 
     2    1   11 ar 
     3    2    3 ar 
     4    3    4 ar 
     5    4    5 1  
     6    4   10 ar 
     7    5    6 2  
     8    5   13 1  
     9    6    8 1  
    10    6   12 1  
    11   12    7 2  
    12    7   13 1  
    13    8    9 1  
    14    8   15 2  
    15    9   17 2  
    16    9   19 1  
    17   10   11 ar 
    18   13   14 1  
    19   15   16 1  
    20   15   18 1  
    21   16   17 1  
    22    2   20 1  
    23    3   21 1  
    24    7   22 1  
    25   10   23 1  
    26   11   24 1  
    27   14   25 1  
    28   14   26 1  
    29   14   27 1  
    30   18   28 1  
    31   18   29 1  
    32   18   30 1  
    33   19   31 1  
    34   19   32 1  
    35   19   33 1  
@<TRIPOS>SUBSTRUCTURE
     1 EHT         1

