### 
### Created by X-TOOL on Mon Aug  2 16:13:27 2021
### 

@<TRIPOS>MOLECULE
6g2e_ligand
   43    45     1     0     0
SMALL
GAST_HUCK


@<TRIPOS>ATOM
      1 N1         -3.3330    6.9700  -18.7780 N.pl3     1 EHH        -0.2440
      2 C5         -3.9350    5.8520  -19.2440 C.2       1 EHH         0.1035
      3 C6         -2.7850    7.1510  -17.4350 C.3       1 EHH         0.0474
      4 C7         -2.8880    9.3000  -19.7230 C.ar      1 EHH         0.0171
      5 C8         -4.4300    7.7310  -22.2190 C.ar      1 EHH        -0.0201
      6 C10        -3.1140   11.6590  -20.0140 C.ar      1 EHH         0.0039
      7 C13        -1.5620    9.5280  -19.3650 C.ar      1 EHH        -0.0314
      8 C15        -3.8290    8.5070  -24.4220 C.ar      1 EHH        -0.0614
      9 C17        -6.1220    8.1430  -23.8860 C.ar      1 EHH        -0.0614
     10 C20        -6.9060    7.3540  -21.6550 C.3       1 EHH        -0.0337
     11 C21        -5.5430    8.9320  -26.2080 C.3       1 EHH        -0.0051
     12 C12        -1.0960   10.8290  -19.3350 C.ar      1 EHH         0.0039
     13 C14        -3.4330    8.1100  -23.1490 C.ar      1 EHH        -0.0513
     14 C16        -5.1590    8.5230  -24.8130 C.ar      1 EHH        -0.0129
     15 C18        -5.7910    7.7340  -22.5960 C.ar      1 EHH        -0.0513
     16 C19        -1.9630    8.1400  -22.8230 C.3       1 EHH        -0.0337
     17 C2         -3.4300    7.9260  -19.8130 C.2       1 EHH         0.0960
     18 C3         -4.0430    7.2650  -20.8600 C.2       1 EHH         0.0326
     19 C9         -3.6670   10.3940  -20.0890 C.ar      1 EHH        -0.0314
     20 N11        -1.8450   11.8930  -19.6520 N.ar      1 EHH        -0.3060
     21 N22        -5.5670    7.7790  -27.1440 N.4       1 EHH         0.2307
     22 N4         -4.3380    5.9590  -20.4880 N.2       1 EHH        -0.3104
     23 H1         -4.0716    4.9522  -18.6459 H         1 EHH         0.1286
     24 H2         -2.8606    6.2057  -16.8777 H         1 EHH         0.0583
     25 H3         -3.3529    7.9328  -16.9095 H         1 EHH         0.0583
     26 H4         -1.7291    7.4506  -17.5071 H         1 EHH         0.0583
     27 H5         -3.7411   12.5079  -20.2615 H         1 EHH         0.0801
     28 H6         -0.9075    8.7010  -19.1146 H         1 EHH         0.0675
     29 H7         -3.0711    8.8147  -25.1333 H         1 EHH         0.0440
     30 H8         -7.1661    8.1656  -24.1764 H         1 EHH         0.0440
     31 H9         -6.4816    7.0569  -20.6846 H         1 EHH         0.0391
     32 H10        -7.4737    6.5130  -22.0798 H         1 EHH         0.0391
     33 H11        -7.5762    8.2148  -21.5139 H         1 EHH         0.0391
     34 H12        -4.8143    9.6703  -26.5740 H         1 EHH         0.0977
     35 H13        -6.5440    9.3871  -26.1809 H         1 EHH         0.0977
     36 H14        -0.0671   10.9974  -19.0384 H         1 EHH         0.0801
     37 H15        -1.8100    7.8009  -21.7878 H         1 EHH         0.0391
     38 H16        -1.5841    9.1669  -22.9322 H         1 EHH         0.0391
     39 H17        -1.4212    7.4741  -23.5108 H         1 EHH         0.0391
     40 H18        -4.6880   10.2568  -20.4265 H         1 EHH         0.0675
     41 H19        -5.8283    8.0983  -28.0637 H         1 EHH         0.2008
     42 H20        -6.2370    7.0984  -26.8217 H         1 EHH         0.2008
     43 H21        -4.6520    7.3579  -27.1819 H         1 EHH         0.2008
@<TRIPOS>BOND
     1    1    2 1  
     2    1    3 1  
     3   17    1 1  
     4    2   22 2  
     5    4    7 ar 
     6   17    4 1  
     7    4   19 ar 
     8    5   13 ar 
     9    5   15 ar 
    10   18    5 1  
    11   19    6 ar 
    12    6   20 ar 
    13    7   12 ar 
    14   13    8 ar 
    15    8   14 ar 
    16    9   14 ar 
    17   15    9 ar 
    18   15   10 1  
    19   14   11 1  
    20   11   21 1  
    21   12   20 ar 
    22   13   16 1  
    23   17   18 2  
    24   18   22 1  
    25    2   23 1  
    26    3   24 1  
    27    3   25 1  
    28    3   26 1  
    29    6   27 1  
    30    7   28 1  
    31    8   29 1  
    32    9   30 1  
    33   10   31 1  
    34   10   32 1  
    35   10   33 1  
    36   11   34 1  
    37   11   35 1  
    38   12   36 1  
    39   16   37 1  
    40   16   38 1  
    41   16   39 1  
    42   19   40 1  
    43   21   41 1  
    44   21   42 1  
    45   21   43 1  
@<TRIPOS>SUBSTRUCTURE
     1 EHH         1

