### 
### Created by X-TOOL on Mon Aug  2 16:13:27 2021
### 

@<TRIPOS>MOLECULE
6g2f_ligand
   39    42     1     0     0
SMALL
GAST_HUCK


@<TRIPOS>ATOM
      1 C4         -0.3980    8.5000  -19.6290 C.ar      1 EHW        -0.0489
      2 C5         -1.3910    9.5140  -19.6250 C.ar      1 EHW         0.0046
      3 C6         -0.9720   10.8720  -19.6730 C.ar      1 EHW         0.0318
      4 C8         -3.1500   11.6300  -19.7240 C.ar      1 EHW        -0.0063
      5 C10        -2.8000    9.2730  -19.6580 C.ar      1 EHW         0.0169
      6 C17        -4.5160    7.5830  -21.9110 C.2       1 EHW         0.0245
      7 C21        -3.7020    8.0600  -22.9860 C.2       1 EHW         0.0234
      8 C22        -7.1100    7.1400  -21.8880 C.3       1 EHW         0.0124
      9 C1          0.9290    8.8150  -19.6100 C.ar      1 EHW        -0.0235
     10 C11        -3.3580    7.9040  -19.6190 C.2       1 EHW         0.0920
     11 C12        -4.1010    7.2050  -20.5510 C.2       1 EHW         0.0280
     12 C14        -3.9780    5.9430  -18.8310 C.2       1 EHW         0.1035
     13 C16        -2.6550    7.3280  -17.2140 C.3       1 EHW         0.0462
     14 C18        -5.7860    7.5460  -22.4220 C.2       1 EHW         0.1453
     15 C2          1.3010   10.1430  -19.5980 C.ar      1 EHW         0.1358
     16 C23        -2.2320    8.3250  -23.0130 C.3       1 EHW        -0.0270
     17 C3          0.4110   11.1710  -19.6370 C.ar      1 EHW        -0.0118
     18 C9         -3.6660   10.3420  -19.7250 C.ar      1 EHW        -0.0373
     19 F24         2.6300   10.4260  -19.5210 F         1 EHW        -0.1805
     20 N13        -4.4650    5.9650  -20.0510 N.2       1 EHW        -0.3096
     21 N15        -3.2740    7.0580  -18.5080 N.pl3     1 EHW        -0.2462
     22 N20        -4.4200    8.3130  -24.0420 N.2       1 EHW        -0.1673
     23 N7         -1.8590   11.9240  -19.6800 N.ar      1 EHW        -0.3152
     24 O19        -5.7610    7.9700  -23.6990 O.3       1 EHW        -0.1745
     25 H1         -0.6989    7.4588  -19.6474 H         1 EHW         0.0642
     26 H2         -3.8531   12.4542  -19.7619 H         1 EHW         0.0809
     27 H3         -7.8767    7.2788  -22.6644 H         1 EHW         0.0467
     28 H4         -7.3580    7.7589  -21.0131 H         1 EHW         0.0467
     29 H5         -7.0766    6.0814  -21.5908 H         1 EHW         0.0467
     30 H6          1.6800    8.0333  -19.6044 H         1 EHW         0.0622
     31 H7         -4.1249    5.1103  -18.1447 H         1 EHW         0.1303
     32 H8         -2.1531    8.3064  -17.2447 H         1 EHW         0.0579
     33 H9         -1.9166    6.5440  -16.9900 H         1 EHW         0.0579
     34 H10        -3.4287    7.3372  -16.4322 H         1 EHW         0.0579
     35 H11        -1.9429    8.6864  -24.0109 H         1 EHW         0.0379
     36 H12        -1.6877    7.3961  -22.7876 H         1 EHW         0.0379
     37 H13        -1.9830    9.0877  -22.2605 H         1 EHW         0.0379
     38 H14         0.7543   12.1992  -19.6404 H         1 EHW         0.0589
     39 H15        -4.7364   10.1792  -19.7778 H         1 EHW         0.0598
@<TRIPOS>BOND
     1    2    1 ar 
     2    1    9 ar 
     3    2    3 ar 
     4    5    2 ar 
     5    3   17 ar 
     6    3   23 ar 
     7   18    4 ar 
     8    4   23 ar 
     9   10    5 1  
    10    5   18 ar 
    11    6    7 1  
    12   11    6 1  
    13    6   14 2  
    14    7   16 1  
    15    7   22 2  
    16   14    8 1  
    17    9   15 ar 
    18   10   11 2  
    19   10   21 1  
    20   11   20 1  
    21   20   12 2  
    22   12   21 1  
    23   21   13 1  
    24   14   24 1  
    25   15   17 ar 
    26   15   19 1  
    27   22   24 1  
    28    1   25 1  
    29    4   26 1  
    30    8   27 1  
    31    8   28 1  
    32    8   29 1  
    33    9   30 1  
    34   12   31 1  
    35   13   32 1  
    36   13   33 1  
    37   13   34 1  
    38   16   35 1  
    39   16   36 1  
    40   16   37 1  
    41   17   38 1  
    42   18   39 1  
@<TRIPOS>SUBSTRUCTURE
     1 EHW         1

