### 
### Created by X-TOOL on Mon Aug  2 16:13:27 2021
### 

@<TRIPOS>MOLECULE
6g2o_ligand
   49    52     1     0     0
SMALL
GAST_HUCK


@<TRIPOS>ATOM
      1 C4         -5.2680    7.8930  -24.2280 C.ar      1 EJE        -0.0120
      2 C5         -6.2190    7.7090  -23.2330 C.ar      1 EJE        -0.0603
      3 C6         -5.8750    7.3500  -21.9330 C.ar      1 EJE        -0.0498
      4 C7         -5.6800    8.2770  -25.6230 C.3       1 EJE        -0.0047
      5 C8         -4.1220    6.7100  -20.2630 C.2       1 EJE         0.0372
      6 C10        -3.4170    7.3760  -19.2860 C.2       1 EJE         0.0997
      7 C13        -2.7260    6.6870  -16.8860 C.3       1 EJE         0.0477
      8 C17        -3.1820   11.0940  -19.1910 C.ar      1 EJE        -0.0031
      9 C20        -1.0060   10.3300  -19.1440 C.ar      1 EJE         0.0344
     10 C21        -1.4270    8.9710  -19.1880 C.ar      1 EJE         0.0068
     11 C22        -0.4330    7.9530  -19.1900 C.ar      1 EJE        -0.0481
     12 C24         1.2670    9.5950  -19.0730 C.ar      1 EJE         0.1364
     13 C1         -4.5130    7.1400  -21.6300 C.ar      1 EJE        -0.0168
     14 C12        -4.0120    5.3650  -18.5830 C.2       1 EJE         0.1058
     15 C14        -2.8400    8.7370  -19.2630 C.ar      1 EJE         0.0224
     16 C16        -3.7010    9.8120  -19.2810 C.ar      1 EJE        -0.0341
     17 C18        -6.9740    7.1950  -20.9110 C.3       1 EJE        -0.0332
     18 C2         -3.5290    7.2890  -22.6320 C.ar      1 EJE        -0.0498
     19 C23         0.8930    8.2660  -19.0970 C.ar      1 EJE        -0.0229
     20 C25         0.3770   10.6230  -19.0860 C.ar      1 EJE        -0.0108
     21 C27        -2.0550    7.0980  -22.3730 C.3       1 EJE        -0.0332
     22 C3         -3.9340    7.6800  -23.9060 C.ar      1 EJE        -0.0603
     23 F26         2.5940    9.8790  -18.9580 F         1 EJE        -0.1803
     24 N11        -4.4750    5.4430  -19.8120 N.2       1 EJE        -0.3060
     25 N15        -1.8900   11.3840  -19.1500 N.ar      1 EJE        -0.3118
     26 N19        -4.8050    9.3230  -26.2140 N.4       1 EJE         0.2308
     27 N9         -3.3460    6.4740  -18.1920 N.pl3     1 EJE        -0.2420
     28 H1         -7.2657    7.8499  -23.4772 H         1 EJE         0.0442
     29 H2         -6.7116    8.6576  -25.5927 H         1 EJE         0.0979
     30 H3         -5.6380    7.3819  -26.2610 H         1 EJE         0.0979
     31 H4         -2.8498    5.7843  -16.2698 H         1 EJE         0.0582
     32 H5         -3.2073    7.5407  -16.3865 H         1 EJE         0.0582
     33 H6         -1.6543    6.8963  -17.0186 H         1 EJE         0.0582
     34 H7         -3.8840   11.9190  -19.1513 H         1 EJE         0.0818
     35 H8         -0.7326    6.9140  -19.2664 H         1 EJE         0.0643
     36 H9         -4.1515    4.4938  -17.9446 H         1 EJE         0.1306
     37 H10        -4.7707    9.6573  -19.3645 H         1 EJE         0.0620
     38 H11        -7.9449    7.4098  -21.3813 H         1 EJE         0.0393
     39 H12        -6.8050    7.8973  -20.0814 H         1 EJE         0.0393
     40 H13        -6.9734    6.1649  -20.5253 H         1 EJE         0.0393
     41 H14         1.6407    7.4830  -19.0428 H         1 EJE         0.0627
     42 H15         0.7215   11.6503  -19.0525 H         1 EJE         0.0594
     43 H16        -1.4942    7.2676  -23.3040 H         1 EJE         0.0393
     44 H17        -1.8749    6.0725  -22.0182 H         1 EJE         0.0393
     45 H18        -1.7212    7.8146  -21.6082 H         1 EJE         0.0393
     46 H19        -3.1815    7.8231  -24.6731 H         1 EJE         0.0442
     47 H20        -5.1244    9.5417  -27.1447 H         1 EJE         0.2008
     48 H21        -3.8567    8.9838  -26.2553 H         1 EJE         0.2008
     49 H22        -4.8405   10.1529  -25.6429 H         1 EJE         0.2008
@<TRIPOS>BOND
     1    2    1 ar 
     2    1    4 1  
     3    1   22 ar 
     4    3    2 ar 
     5   13    3 ar 
     6    3   17 1  
     7    4   26 1  
     8    6    5 2  
     9    5   13 1  
    10    5   24 1  
    11   15    6 1  
    12    6   27 1  
    13   27    7 1  
    14    8   16 ar 
    15   25    8 ar 
    16   10    9 ar 
    17    9   20 ar 
    18    9   25 ar 
    19   10   11 ar 
    20   10   15 ar 
    21   11   19 ar 
    22   19   12 ar 
    23   12   20 ar 
    24   12   23 1  
    25   13   18 ar 
    26   24   14 2  
    27   14   27 1  
    28   15   16 ar 
    29   18   21 1  
    30   18   22 ar 
    31    2   28 1  
    32    4   29 1  
    33    4   30 1  
    34    7   31 1  
    35    7   32 1  
    36    7   33 1  
    37    8   34 1  
    38   11   35 1  
    39   14   36 1  
    40   16   37 1  
    41   17   38 1  
    42   17   39 1  
    43   17   40 1  
    44   19   41 1  
    45   20   42 1  
    46   21   43 1  
    47   21   44 1  
    48   21   45 1  
    49   22   46 1  
    50   26   47 1  
    51   26   48 1  
    52   26   49 1  
@<TRIPOS>SUBSTRUCTURE
     1 EJE         1

