### 
### Created by X-TOOL on Mon Aug  2 16:13:27 2021
### 

@<TRIPOS>MOLECULE
6g2r_ligand
   45    47     1     0     0
SMALL
GAST_HUCK


@<TRIPOS>ATOM
      1 C4          7.1310    6.5140    1.6190 C.3       1 EJK         0.1119
      2 C5          5.9450    6.1300    2.4820 C.3       1 EJK         0.1134
      3 C6          5.4620    4.7450    2.1110 C.3       1 EJK         0.0730
      4 C3          7.5500    7.9130    2.0160 C.3       1 EJK         0.1145
      5 C1          6.7190    7.4630    4.2860 C.3       1 EJK         0.2103
      6 C2          7.9320    7.9010    3.4810 C.3       1 EJK         0.1387
      7 CAA         4.4320    8.1820    4.5920 C.ar      1 EJK         0.1110
      8 CAB         4.0870    7.1690    5.4660 C.ar      1 EJK        -0.0302
      9 CAC         2.7950    7.1410    5.9830 C.ar      1 EJK        -0.0613
     10 CAD         1.8030    8.0180    5.5310 C.ar      1 EJK        -0.0235
     11 CAE         2.2110    9.0700    4.7190 C.ar      1 EJK        -0.0475
     12 CAF         3.5060    9.1420    4.2440 C.ar      1 EJK         0.0701
     13 CAG         0.5010    8.0600    6.0550 C.ar      1 EJK         0.0488
     14 CAH         0.1480    7.4430    7.2570 C.ar      1 EJK         0.1763
     15 CAI        -1.1660    7.4440    7.7100 C.ar      1 EJK         0.1949
     16 CAJ        -2.1860    7.9010    6.8970 C.ar      1 EJK         0.1569
     17 CAK        -1.8770    8.4000    5.6460 C.ar      1 EJK         0.1949
     18 CAL        -0.5600    8.4450    5.2110 C.ar      1 EJK         0.1763
     19 CBE        -3.5390    7.8600    7.3340 C.1       1 EJK         0.0917
     20 FAH         1.0270    7.0680    8.0560 F         1 EJK        -0.1863
     21 FAI        -1.4640    6.9560    8.9330 F         1 EJK        -0.1779
     22 FAK        -2.8720    8.8530    4.8320 F         1 EJK        -0.1779
     23 FAL        -0.3700    8.9450    3.9720 F         1 EJK        -0.1863
     24 NBF        -4.6310    7.8310    7.6780 N.1       1 EJK        -0.3386
     25 O1          5.6560    8.3780    4.0340 O.3       1 EJK        -0.2827
     26 O2          9.0220    6.9890    3.7150 O.3       1 EJK        -0.3837
     27 O3          8.6660    8.3420    1.2300 O.3       1 EJK        -0.3864
     28 O4          6.7210    6.5170    0.2570 O.3       1 EJK        -0.3865
     29 O5          6.2870    6.1480    3.8830 O.3       1 EJK        -0.3367
     30 O6          6.5740    3.9060    2.4150 O.3       1 EJK        -0.3924
     31 CL1         3.9430   10.3890    3.1620 Cl        1 EJK        -0.0782
     32 H1          7.9611    5.8073    1.7654 H         1 EJK         0.0647
     33 H2          5.1344    6.8524    2.3058 H         1 EJK         0.0647
     34 H3          5.2107    4.6907    1.0415 H         1 EJK         0.0584
     35 H4          4.5829    4.4629    2.7090 H         1 EJK         0.0584
     36 H5          6.7097    8.6054    1.8594 H         1 EJK         0.0648
     37 H6          6.9686    7.4585    5.3573 H         1 EJK         0.0995
     38 H7          8.2349    8.9127    3.7888 H         1 EJK         0.0675
     39 H8          4.8093    6.4100    5.7440 H         1 EJK         0.0549
     40 H9          2.5511    6.4211    6.7558 H         1 EJK         0.0603
     41 H10         1.5018    9.8459    4.4545 H         1 EJK         0.0607
     42 H11         9.7783    7.2652    3.2108 H         1 EJK         0.2101
     43 H12         8.9218    9.2172    1.4964 H         1 EJK         0.2100
     44 H13         6.4573    5.6398    0.0049 H         1 EJK         0.2100
     45 H14         6.3548    3.0047    2.2094 H         1 EJK         0.2095
@<TRIPOS>BOND
     1    2    1 1  
     2    4    1 1  
     3    1   28 1  
     4    2    3 1  
     5   29    2 1  
     6    3   30 1  
     7    6    4 1  
     8    4   27 1  
     9    5    6 1  
    10   25    5 1  
    11    5   29 1  
    12    6   26 1  
    13    7    8 ar 
    14    7   12 ar 
    15    7   25 1  
    16    8    9 ar 
    17    9   10 ar 
    18   10   11 ar 
    19   10   13 1  
    20   11   12 ar 
    21   12   31 1  
    22   13   14 ar 
    23   13   18 ar 
    24   14   15 ar 
    25   14   20 1  
    26   15   16 ar 
    27   15   21 1  
    28   16   17 ar 
    29   16   19 1  
    30   17   18 ar 
    31   17   22 1  
    32   18   23 1  
    33   19   24 3  
    34    1   32 1  
    35    2   33 1  
    36    3   34 1  
    37    3   35 1  
    38    4   36 1  
    39    5   37 1  
    40    6   38 1  
    41    8   39 1  
    42    9   40 1  
    43   11   41 1  
    44   26   42 1  
    45   27   43 1  
    46   28   44 1  
    47   30   45 1  
@<TRIPOS>SUBSTRUCTURE
     1 EJK         1

