### 
### Created by X-TOOL on Mon Aug  2 16:13:27 2021
### 

@<TRIPOS>MOLECULE
6g2s_ligand
   44    46     1     0     0
SMALL
GAST_HUCK


@<TRIPOS>ATOM
      1 O3         53.5210   -5.1500   -6.0170 O.3       1 EJN        -0.3864
      2 C4         53.3410   -3.4440   -4.3080 C.3       1 EJN         0.1119
      3 C5         54.1470   -2.4200   -3.5130 C.3       1 EJN         0.1134
      4 O4         52.2900   -2.7770   -4.9960 O.3       1 EJN        -0.3865
      5 C6         53.3510   -1.7720   -2.4030 C.3       1 EJN         0.0730
      6 O5         55.2780   -3.0580   -2.8950 O.3       1 EJN        -0.3368
      7 O6         52.8050   -2.7380   -1.5150 O.3       1 EJN        -0.3924
      8 C1         56.1640   -3.6820   -3.8100 C.3       1 EJN         0.2097
      9 C2         55.4310   -4.7720   -4.5800 C.3       1 EJN         0.1385
     10 C3         54.2450   -4.1560   -5.3040 C.3       1 EJN         0.1145
     11 CAA        57.1060   -1.5360   -4.3360 C.ar      1 EJN         0.0945
     12 CAB        57.3720   -1.2760   -3.0020 C.ar      1 EJN        -0.0330
     13 CAC        57.8250   -0.0260   -2.6240 C.ar      1 EJN        -0.0646
     14 CAD        58.0280    0.9830   -3.5620 C.ar      1 EJN        -0.0319
     15 CAE        57.7600    0.6980   -4.8990 C.ar      1 EJN        -0.0646
     16 CAF        57.3040   -0.5490   -5.2870 C.ar      1 EJN        -0.0330
     17 CAG        58.5220    2.3270   -3.1420 C.ar      1 EJN         0.0369
     18 CAH        59.6850    2.4750   -2.4030 C.ar      1 EJN         0.1647
     19 CAI        60.1070    3.6960   -1.9270 C.ar      1 EJN         0.1921
     20 CAJ        59.3640    4.8200   -2.1960 C.ar      1 EJN         0.1945
     21 CAK        58.2150    4.7220   -2.9430 C.ar      1 EJN         0.1921
     22 CAL        57.8120    3.4890   -3.4080 C.ar      1 EJN         0.1647
     23 FAH        60.4480    1.3970   -2.1470 F         1 EJN        -0.1891
     24 FAI        61.2340    3.7800   -1.2020 F         1 EJN        -0.1898
     25 FAJ        59.7570    6.0180   -1.7190 F         1 EJN        -0.1875
     26 FAK        57.4850    5.8170   -3.2120 F         1 EJN        -0.1898
     27 FAL        56.6900    3.4270   -4.1490 F         1 EJN        -0.1891
     28 O1         56.6170   -2.7500   -4.7680 O.3       1 EJN        -0.2850
     29 O2         54.9890   -5.7880   -3.6870 O.3       1 EJN        -0.3837
     30 H1         54.1012   -5.5824   -6.6325 H         1 EJN         0.2100
     31 H2         52.9113   -4.1845   -3.6174 H         1 EJN         0.0647
     32 H3         54.4959   -1.6400   -4.2057 H         1 EJN         0.0647
     33 H4         51.7253   -2.3444   -4.3663 H         1 EJN         0.2100
     34 H5         52.5292   -1.1905   -2.8462 H         1 EJN         0.0584
     35 H6         54.0117   -1.0998   -1.8360 H         1 EJN         0.0584
     36 H7         52.3130   -2.2968   -0.8325 H         1 EJN         0.2095
     37 H8         57.0171   -4.1093   -3.2626 H         1 EJN         0.0993
     38 H9         56.1146   -5.2166   -5.3182 H         1 EJN         0.0675
     39 H10        54.6216   -3.4161   -6.0256 H         1 EJN         0.0648
     40 H11        57.2255   -2.0498   -2.2571 H         1 EJN         0.0543
     41 H12        58.0261    0.1726   -1.5775 H         1 EJN         0.0584
     42 H13        57.9114    1.4667   -5.6482 H         1 EJN         0.0584
     43 H14        57.1022   -0.7530   -6.3323 H         1 EJN         0.0543
     44 H15        54.5380   -6.4650   -4.1777 H         1 EJN         0.2101
@<TRIPOS>BOND
     1   10    1 1  
     2    3    2 1  
     3    2    4 1  
     4   10    2 1  
     5    3    5 1  
     6    6    3 1  
     7    5    7 1  
     8    8    6 1  
     9    8    9 1  
    10   28    8 1  
    11    9   10 1  
    12    9   29 1  
    13   11   12 ar 
    14   11   16 ar 
    15   11   28 1  
    16   12   13 ar 
    17   13   14 ar 
    18   14   15 ar 
    19   14   17 1  
    20   15   16 ar 
    21   17   18 ar 
    22   17   22 ar 
    23   18   19 ar 
    24   18   23 1  
    25   19   20 ar 
    26   19   24 1  
    27   20   21 ar 
    28   20   25 1  
    29   21   22 ar 
    30   21   26 1  
    31   22   27 1  
    32    1   30 1  
    33    2   31 1  
    34    3   32 1  
    35    4   33 1  
    36    5   34 1  
    37    5   35 1  
    38    7   36 1  
    39    8   37 1  
    40    9   38 1  
    41   10   39 1  
    42   12   40 1  
    43   13   41 1  
    44   15   42 1  
    45   16   43 1  
    46   29   44 1  
@<TRIPOS>SUBSTRUCTURE
     1 EJN         1

