### 
### Created by X-TOOL on Wed Jan  1 15:39:36 2020
### 

@<TRIPOS>MOLECULE
6g33_ligand
   33    35     1     0     0
SMALL
GAST_HUCK


@<TRIPOS>ATOM
      1 O5'        36.7360   47.7910   80.6740 O.3       1 5ID        -0.3924
      2 C5'        36.8830   48.8630   79.8060 C.3       1 5ID         0.0730
      3 C4'        36.5320   48.4650   78.4040 C.3       1 5ID         0.1135
      4 O4'        37.3150   47.3320   78.0010 O.3       1 5ID        -0.3370
      5 C1'        36.5650   46.5140   77.1320 C.3       1 5ID         0.1971
      6 N9         36.4550   45.2030   77.7500 N.pl3     1 5ID        -0.2190
      7 C8         36.4490   44.9760   79.0800 C.2       1 5ID         0.0441
      8 C7         36.3600   43.6480   79.3180 C.2       1 5ID         0.0169
      9 C5         36.2690   42.9890   78.0780 C.ar      1 5ID         0.0529
     10 C6         36.1530   41.6590   77.6200 C.ar      1 5ID         0.1166
     11 N1         36.1500   41.4470   76.2920 N.ar      1 5ID        -0.2731
     12 C2         36.2310   42.4970   75.4870 C.ar      1 5ID         0.0503
     13 N3         36.3230   43.7810   75.8020 N.ar      1 5ID        -0.2765
     14 C4         36.3430   43.9940   77.1140 C.ar      1 5ID         0.1421
     15 N6         36.0220   40.6260   78.4320 N.pl3     1 5ID        -0.3158
     16 C2'        35.2240   47.2160   76.9150 C.3       1 5ID         0.1383
     17 O2'        35.2840   48.0660   75.7920 O.3       1 5ID        -0.3836
     18 C3'        35.1040   48.0190   78.1990 C.3       1 5ID         0.1146
     19 O3'        34.2620   49.1440   78.1370 O.3       1 5ID        -0.3864
     20 IAE        36.4740   42.6900   81.1570 I         1 5ID        -0.0795
     21 H1         36.9631   48.0648   81.5549 H         1 5ID         0.2095
     22 H2         37.9273   49.2077   79.8322 H         1 5ID         0.0584
     23 H3         36.2191   49.6797   80.1259 H         1 5ID         0.0584
     24 H4         36.7391   49.3221   77.7464 H         1 5ID         0.0647
     25 H5         37.0776   46.4105   76.1643 H         1 5ID         0.0994
     26 H6         36.5071   45.7469   79.8469 H         1 5ID         0.0985
     27 H7         36.2206   42.2751   74.4260 H         1 5ID         0.0976
     28 H8         35.9411   39.6745   78.0460 H         1 5ID         0.1825
     29 H9         36.0008   40.7717   79.4514 H         1 5ID         0.1825
     30 H10        34.3977   46.4990   76.8007 H         1 5ID         0.0676
     31 H11        34.4433   48.4923   75.6736 H         1 5ID         0.2101
     32 H12        34.7633   47.3715   79.0204 H         1 5ID         0.0648
     33 H13        33.3817   48.8672   77.9116 H         1 5ID         0.2100
@<TRIPOS>BOND
     1    1    2 1  
     2    2    3 1  
     3    3    4 1  
     4    3   18 1  
     5    4    5 1  
     6    5    6 1  
     7    5   16 1  
     8    6    7 1  
     9    6   14 1  
    10    7    8 2  
    11    8    9 1  
    12    8   20 1  
    13    9   10 ar 
    14    9   14 ar 
    15   10   11 ar 
    16   10   15 1  
    17   11   12 ar 
    18   12   13 ar 
    19   13   14 ar 
    20   16   17 1  
    21   16   18 1  
    22   18   19 1  
    23    1   21 1  
    24    2   22 1  
    25    2   23 1  
    26    3   24 1  
    27    5   25 1  
    28    7   26 1  
    29   12   27 1  
    30   15   28 1  
    31   15   29 1  
    32   16   30 1  
    33   17   31 1  
    34   18   32 1  
    35   19   33 1  
@<TRIPOS>SUBSTRUCTURE
     1 5ID         1

