### 
### Created by X-TOOL on Wed Jan  1 15:39:34 2020
### 

@<TRIPOS>MOLECULE
6g34_ligand
   33    35     1     0     0
SMALL
GAST_HUCK


@<TRIPOS>ATOM
      1 O5'        13.1860    8.0780   10.1140 O.3       1 5ID        -0.3924
      2 C5'        14.4230    7.6060   10.6520 C.3       1 5ID         0.0730
      3 C4'        14.6670    7.9910   12.0920 C.3       1 5ID         0.1135
      4 O4'        14.9240    9.4120   12.2220 O.3       1 5ID        -0.3370
      5 C1'        14.3080    9.9080   13.3970 C.3       1 5ID         0.1971
      6 N9         13.2490   10.8350   13.0100 N.pl3     1 5ID        -0.2190
      7 C8         12.5860   10.8650   11.7980 C.2       1 5ID         0.0441
      8 C7         11.6790   11.8830   11.8060 C.2       1 5ID         0.0169
      9 C5         11.7280   12.5110   13.0900 C.ar      1 5ID         0.0529
     10 C6         11.0680   13.5610   13.7780 C.ar      1 5ID         0.1166
     11 N1         11.4420   13.8450   15.0410 N.ar      1 5ID        -0.2731
     12 C2         12.4090   13.1170   15.5960 C.ar      1 5ID         0.0503
     13 N3         13.1050   12.1090   15.0630 N.ar      1 5ID        -0.2765
     14 C4         12.7390   11.8320   13.8040 C.ar      1 5ID         0.1421
     15 N6         10.0790   14.2700   13.2380 N.pl3     1 5ID        -0.3158
     16 C2'        13.7890    8.6980   14.1830 C.3       1 5ID         0.1383
     17 O2'        14.8160    8.2810   15.1030 O.3       1 5ID        -0.3836
     18 C3'        13.5190    7.7020   13.0640 C.3       1 5ID         0.1146
     19 O3'        13.5370    6.3340   13.4840 O.3       1 5ID        -0.3864
     20 IAE        10.4790   12.5200   10.1950 I         1 5ID        -0.0795
     21 H1         12.4654    7.7233   10.6214 H         1 5ID         0.2095
     22 H2         15.2417    8.0170   10.0430 H         1 5ID         0.0584
     23 H3         14.4307    6.5082   10.5839 H         1 5ID         0.0584
     24 H4         15.5522    7.4319   12.4294 H         1 5ID         0.0647
     25 H5         15.0453   10.4466   14.0104 H         1 5ID         0.0994
     26 H6         12.7605   10.1829   10.9672 H         1 5ID         0.0985
     27 H7         12.6657   13.3770   16.6166 H         1 5ID         0.0976
     28 H8          9.6307   15.0235   13.7786 H         1 5ID         0.1825
     29 H9          9.7621   14.0651   12.2796 H         1 5ID         0.1825
     30 H10        12.8668    8.9272   14.7370 H         1 5ID         0.0676
     31 H11        14.5098    7.5307   15.5988 H         1 5ID         0.2101
     32 H12        12.5461    7.9110   12.5952 H         1 5ID         0.0648
     33 H13        14.3908    6.1259   13.8449 H         1 5ID         0.2100
@<TRIPOS>BOND
     1    1    2 1  
     2    2    3 1  
     3    3    4 1  
     4    3   18 1  
     5    4    5 1  
     6    5    6 1  
     7    5   16 1  
     8    6    7 1  
     9    6   14 1  
    10    7    8 2  
    11    8    9 1  
    12    8   20 1  
    13    9   10 ar 
    14    9   14 ar 
    15   10   11 ar 
    16   10   15 1  
    17   11   12 ar 
    18   12   13 ar 
    19   13   14 ar 
    20   16   17 1  
    21   16   18 1  
    22   18   19 1  
    23    1   21 1  
    24    2   22 1  
    25    2   23 1  
    26    3   24 1  
    27    5   25 1  
    28    7   26 1  
    29   12   27 1  
    30   15   28 1  
    31   15   29 1  
    32   16   30 1  
    33   17   31 1  
    34   18   32 1  
    35   19   33 1  
@<TRIPOS>SUBSTRUCTURE
     1 5ID         1

