### 
### Created by X-TOOL on Wed Jan  1 15:39:35 2020
### 

@<TRIPOS>MOLECULE
6g35_ligand
   33    35     1     0     0
SMALL
GAST_HUCK


@<TRIPOS>ATOM
      1 O3         65.1990   31.3260    9.8450 O.3       1 EKK        -0.3924
      2 C4         64.1740   29.6470   13.1100 C.3       1 EKK         0.1973
      3 C5         65.8960   28.6620   11.5520 C.2       1 EKK         0.0435
      4 C6         66.8070   27.6590   11.5900 C.2       1 EKK         0.0197
      5 N1         68.4350   25.3180   13.0040 N.pl3     1 EKK        -0.3158
      6 C7         66.7560   27.0510   12.8710 C.ar      1 EKK         0.0515
      7 C8         67.4230   26.0020   13.5420 C.ar      1 EKK         0.1162
      8 N2         67.0380   25.7160   14.8010 N.ar      1 EKK        -0.2730
      9 C9         66.0630   26.4440   15.3500 C.ar      1 EKK         0.0503
     10 C10        65.7560   27.7390   13.5710 C.ar      1 EKK         0.1421
     11 N3         65.3820   27.4650   14.8260 N.ar      1 EKK        -0.2763
     12 BR         67.9170   27.0770   10.1950 Br        1 EKK        -0.0818
     13 N          65.2390   28.7170   12.7560 N.pl3     1 EKK        -0.2185
     14 C3         64.6650   30.8650   13.8920 C.3       1 EKK         0.1383
     15 O1         63.6430   31.2750   14.7960 O.3       1 EKK        -0.3836
     16 C2         64.9200   31.8630   12.7600 C.3       1 EKK         0.1146
     17 O2         64.8790   33.2210   13.2030 O.3       1 EKK        -0.3864
     18 O          63.5950   30.1290   11.9110 O.3       1 EKK        -0.3370
     19 C1         63.7800   31.5560   11.8050 C.3       1 EKK         0.1135
     20 C          64.0170   31.9210   10.3580 C.3       1 EKK         0.0730
     21 H1         65.9464   31.6211   10.3517 H         1 EKK         0.2095
     22 H2         63.4202   29.1147   13.7086 H         1 EKK         0.0995
     23 H3         65.7144   29.3188   10.7026 H         1 EKK         0.0992
     24 H4         68.8866   24.5615   13.5376 H         1 EKK         0.1824
     25 H5         68.7644   25.5466   12.0552 H         1 EKK         0.1824
     26 H6         65.7863   26.1676   16.3610 H         1 EKK         0.0977
     27 H7         65.5892   30.6542   14.4500 H         1 EKK         0.0676
     28 H8         63.9406   32.0323   15.2863 H         1 EKK         0.2101
     29 H9         65.8938   31.6726   12.2852 H         1 EKK         0.0648
     30 H10        65.5449   33.3566   13.8669 H         1 EKK         0.2100
     31 H11        62.8772   32.0841   12.1456 H         1 EKK         0.0647
     32 H12        63.1592   31.5786    9.7606 H         1 EKK         0.0584
     33 H13        64.1065   33.0144   10.2779 H         1 EKK         0.0584
@<TRIPOS>BOND
     1   20    1 1  
     2    2   13 1  
     3    2   14 1  
     4   18    2 1  
     5    3    4 2  
     6   13    3 1  
     7    6    4 1  
     8    4   12 1  
     9    7    5 1  
    10    6    7 ar 
    11   10    6 ar 
    12    7    8 ar 
    13    9    8 ar 
    14   11    9 ar 
    15   10   11 ar 
    16   13   10 1  
    17   14   15 1  
    18   16   14 1  
    19   16   17 1  
    20   19   16 1  
    21   19   18 1  
    22   19   20 1  
    23    1   21 1  
    24    2   22 1  
    25    3   23 1  
    26    5   24 1  
    27    5   25 1  
    28    9   26 1  
    29   14   27 1  
    30   15   28 1  
    31   16   29 1  
    32   17   30 1  
    33   19   31 1  
    34   20   32 1  
    35   20   33 1  
@<TRIPOS>SUBSTRUCTURE
     1 EKK         1

