### 
### Created by X-TOOL on Wed Jan  1 15:39:35 2020
### 

@<TRIPOS>MOLECULE
6g36_ligand
   33    35     1     0     0
SMALL
GAST_HUCK


@<TRIPOS>ATOM
      1 CL         10.3470   12.2700   10.3370 Cl        1 EKH        -0.1036
      2 C10        11.4030   11.7860   11.6240 C.2       1 EKH         0.0457
      3 C2         11.4660   12.3940   12.9020 C.ar      1 EKH         0.0572
      4 C          10.8270   13.4350   13.6160 C.ar      1 EKH         0.1165
      5 N3          9.8200   14.1500   13.0950 N.pl3     1 EKH        -0.3158
      6 C4         12.2980   10.7800   11.5550 C.2       1 EKH         0.0452
      7 N2         12.9750   10.7140   12.7540 N.pl3     1 EKH        -0.2219
      8 C3         12.4760   11.6850   13.5850 C.ar      1 EKH         0.1409
      9 N1         12.8580   11.9290   14.8420 N.ar      1 EKH        -0.2768
     10 C1         12.1970   12.9460   15.4060 C.ar      1 EKH         0.0501
     11 N          11.2260   13.6980   14.8810 N.ar      1 EKH        -0.2732
     12 C5         14.0440    9.7850   13.1050 C.3       1 EKH         0.1962
     13 O3         14.6330    9.3100   11.9140 O.3       1 EKH        -0.3371
     14 C8         14.4560    7.8860   11.7990 C.3       1 EKH         0.1135
     15 C9         14.2460    7.5130   10.3620 C.3       1 EKH         0.0730
     16 O          13.0330    8.0330    9.8160 O.3       1 EKH        -0.3924
     17 C7         13.3030    7.5790   12.7400 C.3       1 EKH         0.1145
     18 O1         13.3470    6.2060   13.1410 O.3       1 EKH        -0.3864
     19 C6         13.5550    8.5590   13.8700 C.3       1 EKH         0.1381
     20 O2         14.6110    8.1730   14.7540 O.3       1 EKH        -0.3836
     21 H1          9.3811   14.9001   13.6478 H         1 EKH         0.1825
     22 H2          9.4851   13.9493   12.1419 H         1 EKH         0.1825
     23 H3         12.4589   10.1293   10.6968 H         1 EKH         0.0943
     24 H4         12.4871   13.1918   16.4211 H         1 EKH         0.0976
     25 H5         14.7912   10.3163   13.7128 H         1 EKH         0.0992
     26 H6         15.3555    7.3621   12.1546 H         1 EKH         0.0647
     27 H7         14.2213    6.4159   10.2858 H         1 EKH         0.0584
     28 H8         15.0894    7.9026    9.7731 H         1 EKH         0.0584
     29 H9         12.2948    7.6970   10.3106 H         1 EKH         0.2095
     30 H10        12.3324    7.7808   12.2634 H         1 EKH         0.0648
     31 H11        12.6225    6.0254   13.7284 H         1 EKH         0.2100
     32 H12        12.6349    8.7530   14.4407 H         1 EKH         0.0676
     33 H13        14.4001    7.3361   15.1511 H         1 EKH         0.2101
@<TRIPOS>BOND
     1    1    2 1  
     2    2    3 1  
     3    2    6 2  
     4    3    4 ar 
     5    3    8 ar 
     6    4    5 1  
     7    4   11 ar 
     8    6    7 1  
     9    7    8 1  
    10    7   12 1  
    11    8    9 ar 
    12    9   10 ar 
    13   10   11 ar 
    14   12   13 1  
    15   12   19 1  
    16   13   14 1  
    17   14   15 1  
    18   14   17 1  
    19   15   16 1  
    20   17   18 1  
    21   17   19 1  
    22   19   20 1  
    23    5   21 1  
    24    5   22 1  
    25    6   23 1  
    26   10   24 1  
    27   12   25 1  
    28   14   26 1  
    29   15   27 1  
    30   15   28 1  
    31   16   29 1  
    32   17   30 1  
    33   18   31 1  
    34   19   32 1  
    35   20   33 1  
@<TRIPOS>SUBSTRUCTURE
     1 EKH         1

