### 
### Created by X-TOOL on Wed Jan  1 15:39:35 2020
### 

@<TRIPOS>MOLECULE
6g37_ligand
   33    35     1     0     0
SMALL
GAST_HUCK


@<TRIPOS>ATOM
      1 F          10.6680   12.2440   10.6040 F         1 FTU        -0.2140
      2 C6         11.5030   11.8990   11.6120 C.2       1 FTU         0.1351
      3 C5         12.4250   10.8970   11.5930 C.2       1 FTU         0.0597
      4 C7         11.5640   12.5350   12.8760 C.ar      1 FTU         0.0788
      5 C10        12.5770   11.8640   13.5900 C.ar      1 FTU         0.1403
      6 N3         12.9440   12.1610   14.8440 N.ar      1 FTU        -0.2777
      7 C9         12.2630   13.1890   15.3630 C.ar      1 FTU         0.0496
      8 N2         11.2920   13.9140   14.8020 N.ar      1 FTU        -0.2735
      9 C8         10.9060   13.5930   13.5530 C.ar      1 FTU         0.1185
     10 N1          9.9300   14.3030   12.9990 N.pl3     1 FTU        -0.3155
     11 N          13.0940   10.8750   12.7960 N.pl3     1 FTU        -0.2266
     12 C4         14.1650    9.9630   13.1900 C.3       1 FTU         0.1944
     13 C3         13.6750    8.7470   13.9780 C.3       1 FTU         0.1378
     14 O1         14.6930    8.3370   14.8920 O.3       1 FTU        -0.3836
     15 C2         13.4320    7.7450   12.8500 C.3       1 FTU         0.1145
     16 O2         13.4640    6.3850   13.2970 O.3       1 FTU        -0.3864
     17 O          14.7830    9.4660   12.0180 O.3       1 FTU        -0.3374
     18 C1         14.5910    8.0390   11.9060 C.3       1 FTU         0.1135
     19 C          14.3940    7.6520   10.4610 C.3       1 FTU         0.0730
     20 O3         13.1890    8.1740    9.8970 O.3       1 FTU        -0.3924
     21 H1         12.6046   10.2205   10.7587 H         1 FTU         0.0870
     22 H2         12.5358   13.4710   16.3735 H         1 FTU         0.0975
     23 H3          9.4809   15.0630   13.5297 H         1 FTU         0.1827
     24 H4          9.6221   14.0937   12.0386 H         1 FTU         0.1827
     25 H5         14.8954   10.5163   13.7986 H         1 FTU         0.0988
     26 H6         12.7468    8.9579   14.5294 H         1 FTU         0.0676
     27 H7         14.3909    7.5817   15.3827 H         1 FTU         0.2101
     28 H8         12.4656    7.9373   12.3611 H         1 FTU         0.0648
     29 H9         12.7897    6.2525   13.9530 H         1 FTU         0.2100
     30 H10        15.4842    7.5107   12.2707 H         1 FTU         0.0647
     31 H11        14.3643    6.5545   10.3940 H         1 FTU         0.0584
     32 H12        15.2459    8.0321    9.8781 H         1 FTU         0.0584
     33 H13        12.4437    7.8462   10.3864 H         1 FTU         0.2095
@<TRIPOS>BOND
     1    1    2 1  
     2    2    3 2  
     3    2    4 1  
     4    3   11 1  
     5    4    5 ar 
     6    4    9 ar 
     7    5    6 ar 
     8    5   11 1  
     9    6    7 ar 
    10    7    8 ar 
    11    8    9 ar 
    12    9   10 1  
    13   11   12 1  
    14   12   13 1  
    15   12   17 1  
    16   13   14 1  
    17   13   15 1  
    18   15   16 1  
    19   15   18 1  
    20   17   18 1  
    21   18   19 1  
    22   19   20 1  
    23    3   21 1  
    24    7   22 1  
    25   10   23 1  
    26   10   24 1  
    27   12   25 1  
    28   13   26 1  
    29   14   27 1  
    30   15   28 1  
    31   16   29 1  
    32   18   30 1  
    33   19   31 1  
    34   19   32 1  
    35   20   33 1  
@<TRIPOS>SUBSTRUCTURE
     1 FTU         1

