### 
### Created by X-TOOL on Wed Jan  1 15:39:34 2020
### 

@<TRIPOS>MOLECULE
6g38_ligand
   33    35     1     0     0
SMALL
GAST_HUCK


@<TRIPOS>ATOM
      1 O5'        51.1170   45.7800   10.0260 O.3       1 TBN        -0.3924
      2 C5'        51.5340   44.5610    9.4270 C.3       1 TBN         0.0730
      3 C4'        51.0780   44.3970    8.0020 C.3       1 TBN         0.1135
      4 O4'        49.6410   44.2200    7.9560 O.3       1 TBN        -0.3372
      5 C1'        49.1110   44.8580    6.8050 C.3       1 TBN         0.1959
      6 N9         48.1980   45.9200    7.2290 N.pl3     1 TBN        -0.2236
      7 C8         48.2180   46.5700    8.4560 C.2       1 TBN         0.0302
      8 C7         47.2530   47.5190    8.4970 C.2       1 TBN        -0.0543
      9 C5         46.5860   47.4860    7.2270 C.ar      1 TBN         0.0433
     10 C6         45.5140   48.1740    6.5800 C.ar      1 TBN         0.1162
     11 N1         45.1500   47.8180    5.3330 N.ar      1 TBN        -0.2733
     12 C2         45.8210   46.8210    4.7420 C.ar      1 TBN         0.0500
     13 N3         46.8510   46.1040    5.2230 N.ar      1 TBN        -0.2771
     14 C4         47.1960   46.4730    6.4690 C.ar      1 TBN         0.1399
     15 N6         44.8720   49.1930    7.1630 N.pl3     1 TBN        -0.3157
     16 C2'        50.3100   45.3630    5.9940 C.3       1 TBN         0.1381
     17 O2'        50.6650   44.3360    5.0660 O.3       1 TBN        -0.3836
     18 C3'        51.3450   45.5800    7.0890 C.3       1 TBN         0.1145
     19 O3'        52.7170   45.5840    6.6510 O.3       1 TBN        -0.3864
     20 H1         51.4680   46.5110    9.5312 H         1 TBN         0.2095
     21 H2         51.1285   43.7272   10.0189 H         1 TBN         0.0584
     22 H3         52.6332   44.5236    9.4458 H         1 TBN         0.0584
     23 H4         51.5793   43.5092    7.5890 H         1 TBN         0.0647
     24 H5         48.5478   44.1332    6.1988 H         1 TBN         0.0991
     25 H6         48.9095   46.3486    9.2676 H         1 TBN         0.0924
     26 H7         47.0268   48.1797    9.3326 H         1 TBN         0.0311
     27 H8         45.4897   46.5576    3.7441 H         1 TBN         0.0975
     28 H9         44.1030   49.6676    6.6687 H         1 TBN         0.1826
     29 H10        45.1468   49.5028    8.1061 H         1 TBN         0.1826
     30 H11        50.0935   46.2988    5.4580 H         1 TBN         0.0676
     31 H12        51.4080   44.6221    4.5477 H         1 TBN         0.2101
     32 H13        51.1476   46.5294    7.6083 H         1 TBN         0.0648
     33 H14        52.8443   46.2812    6.0183 H         1 TBN         0.2100
@<TRIPOS>BOND
     1    1    2 1  
     2    2    3 1  
     3    3    4 1  
     4    3   18 1  
     5    4    5 1  
     6    5    6 1  
     7    5   16 1  
     8    6    7 1  
     9    6   14 1  
    10    7    8 2  
    11    8    9 1  
    12    9   10 ar 
    13    9   14 ar 
    14   10   11 ar 
    15   10   15 1  
    16   11   12 ar 
    17   12   13 ar 
    18   13   14 ar 
    19   16   17 1  
    20   16   18 1  
    21   18   19 1  
    22    1   20 1  
    23    2   21 1  
    24    2   22 1  
    25    3   23 1  
    26    5   24 1  
    27    7   25 1  
    28    8   26 1  
    29   12   27 1  
    30   15   28 1  
    31   15   29 1  
    32   16   30 1  
    33   17   31 1  
    34   18   32 1  
    35   19   33 1  
@<TRIPOS>SUBSTRUCTURE
     1 TBN         1

