### 
### Created by X-TOOL on Wed Jan  1 15:39:35 2020
### 

@<TRIPOS>MOLECULE
6g39_ligand
   33    35     1     0     0
SMALL
GAST_HUCK


@<TRIPOS>ATOM
      1 O5'        65.3740   31.1140    9.9870 O.3       1 5ID        -0.3924
      2 C5'        64.3600   31.9080   10.5990 C.3       1 5ID         0.0730
      3 C4'        64.1300   31.5120   12.0390 C.3       1 5ID         0.1135
      4 O4'        63.9350   30.0860   12.1090 O.3       1 5ID        -0.3370
      5 C1'        64.5540   29.5590   13.2670 C.3       1 5ID         0.1971
      6 N9         65.6160   28.6470   12.8630 N.pl3     1 5ID        -0.2190
      7 C8         66.2670   28.6300   11.6500 C.2       1 5ID         0.0441
      8 C7         67.2050   27.6370   11.6600 C.2       1 5ID         0.0169
      9 C5         67.1650   26.9990   12.9300 C.ar      1 5ID         0.0529
     10 C6         67.8440   25.9530   13.6030 C.ar      1 5ID         0.1166
     11 N1         67.4720   25.6420   14.8650 N.ar      1 5ID        -0.2731
     12 C2         66.4910   26.3500   15.4250 C.ar      1 5ID         0.0503
     13 N3         65.7920   27.3620   14.9080 N.ar      1 5ID        -0.2765
     14 C4         66.1530   27.6600   13.6520 C.ar      1 5ID         0.1421
     15 N6         68.8580   25.2800   13.0610 N.pl3     1 5ID        -0.3158
     16 C2'        65.0550   30.7420   14.0860 C.3       1 5ID         0.1383
     17 O2'        64.0510   31.1300   15.0120 O.3       1 5ID        -0.3836
     18 C3'        65.2860   31.7850   12.9960 C.3       1 5ID         0.1146
     19 O3'        65.2680   33.1100   13.5280 O.3       1 5ID        -0.3864
     20 IAE        68.4460   27.0810   10.0630 I         1 5ID        -0.0795
     21 H1         65.1149   30.2003   10.0079 H         1 5ID         0.2095
     22 H2         63.4213   31.7795   10.0401 H         1 5ID         0.0584
     23 H3         64.6655   32.9641   10.5647 H         1 5ID         0.0584
     24 H4         63.2347   32.0395   12.3998 H         1 5ID         0.0647
     25 H5         63.8176   28.9987   13.8619 H         1 5ID         0.0994
     26 H6         66.0663   29.3009   10.8160 H         1 5ID         0.0985
     27 H7         66.2255   26.0651   16.4366 H         1 5ID         0.0976
     28 H8         69.3189   24.5273   13.5920 H         1 5ID         0.1825
     29 H9         69.1810   25.5123   12.1110 H         1 5ID         0.1825
     30 H10        65.9869   30.5093   14.6220 H         1 5ID         0.0676
     31 H11        64.3617   31.8677   15.5236 H         1 5ID         0.2101
     32 H12        66.2504   31.6193   12.4935 H         1 5ID         0.0648
     33 H13        65.9539   33.1978   14.1794 H         1 5ID         0.2100
@<TRIPOS>BOND
     1    1    2 1  
     2    2    3 1  
     3    3    4 1  
     4    3   18 1  
     5    4    5 1  
     6    5    6 1  
     7    5   16 1  
     8    6    7 1  
     9    6   14 1  
    10    7    8 2  
    11    8    9 1  
    12    8   20 1  
    13    9   10 ar 
    14    9   14 ar 
    15   10   11 ar 
    16   10   15 1  
    17   11   12 ar 
    18   12   13 ar 
    19   13   14 ar 
    20   16   17 1  
    21   16   18 1  
    22   18   19 1  
    23    1   21 1  
    24    2   22 1  
    25    2   23 1  
    26    3   24 1  
    27    5   25 1  
    28    7   26 1  
    29   12   27 1  
    30   15   28 1  
    31   15   29 1  
    32   16   30 1  
    33   17   31 1  
    34   18   32 1  
    35   19   33 1  
@<TRIPOS>SUBSTRUCTURE
     1 5ID         1

