### 
### Created by X-TOOL on Wed Jan  1 15:39:35 2020
### 

@<TRIPOS>MOLECULE
6g3a_ligand
   33    35     1     0     0
SMALL
GAST_HUCK


@<TRIPOS>ATOM
      1 O5'        13.1640    7.8960    9.6720 O.3       1 5ID        -0.3924
      2 C5'        14.3930    7.3690   10.1820 C.3       1 5ID         0.0730
      3 C4'        14.6370    7.7240   11.6290 C.3       1 5ID         0.1135
      4 O4'        14.8650    9.1390   11.7710 O.3       1 5ID        -0.3370
      5 C1'        14.2730    9.6260   12.9570 C.3       1 5ID         0.1971
      6 N9         13.2070   10.5610   12.6080 N.pl3     1 5ID        -0.2190
      7 C8         12.5280   10.6340   11.4220 C.2       1 5ID         0.0441
      8 C7         11.6460   11.6700   11.4670 C.2       1 5ID         0.0169
      9 C5         11.7620   12.2950   12.7400 C.ar      1 5ID         0.0529
     10 C6         11.1460   13.3360   13.4820 C.ar      1 5ID         0.1166
     11 N1         11.5510   13.5830   14.7440 N.ar      1 5ID        -0.2731
     12 C2         12.5140   12.8130   15.2560 C.ar      1 5ID         0.0503
     13 N3         13.1500   11.7990   14.6810 N.ar      1 5ID        -0.2765
     14 C4         12.7520   11.5640   13.4240 C.ar      1 5ID         0.1421
     15 N6         10.1520   14.0800   13.0010 N.pl3     1 5ID        -0.3158
     16 C2'        13.7900    8.4060   13.7290 C.3       1 5ID         0.1383
     17 O2'        14.8410    7.9870   14.6050 O.3       1 5ID        -0.3836
     18 C3'        13.4950    7.4400   12.5950 C.3       1 5ID         0.1146
     19 O3'        13.5260    6.0640   12.9910 O.3       1 5ID        -0.3864
     20 IAE        10.3830   12.1890    9.9030 I         1 5ID        -0.0795
     21 H1         12.4383    7.5513   10.1790 H         1 5ID         0.2095
     22 H2         15.2218    7.7689    9.5794 H         1 5ID         0.0584
     23 H3         14.3684    6.2731   10.0902 H         1 5ID         0.0584
     24 H4         15.5257    7.1665   11.9598 H         1 5ID         0.0647
     25 H5         15.0224   10.1592   13.5605 H         1 5ID         0.0994
     26 H6         12.6711    9.9666   10.5735 H         1 5ID         0.0985
     27 H7         12.8153   13.0453   16.2711 H         1 5ID         0.0976
     28 H8          9.7386   14.8242   13.5808 H         1 5ID         0.1825
     29 H9          9.7965   13.9113   12.0491 H         1 5ID         0.1825
     30 H10        12.8825    8.6147   14.3145 H         1 5ID         0.0676
     31 H11        14.5574    7.2250   15.0963 H         1 5ID         0.2101
     32 H12        12.5185    7.6626   12.1401 H         1 5ID         0.0648
     33 H13        12.8755    5.9155   13.6672 H         1 5ID         0.2100
@<TRIPOS>BOND
     1    1    2 1  
     2    2    3 1  
     3    3    4 1  
     4    3   18 1  
     5    4    5 1  
     6    5    6 1  
     7    5   16 1  
     8    6    7 1  
     9    6   14 1  
    10    7    8 2  
    11    8    9 1  
    12    8   20 1  
    13    9   10 ar 
    14    9   14 ar 
    15   10   11 ar 
    16   10   15 1  
    17   11   12 ar 
    18   12   13 ar 
    19   13   14 ar 
    20   16   17 1  
    21   16   18 1  
    22   18   19 1  
    23    1   21 1  
    24    2   22 1  
    25    2   23 1  
    26    3   24 1  
    27    5   25 1  
    28    7   26 1  
    29   12   27 1  
    30   15   28 1  
    31   15   29 1  
    32   16   30 1  
    33   17   31 1  
    34   18   32 1  
    35   19   33 1  
@<TRIPOS>SUBSTRUCTURE
     1 5ID         1

