### 
### Created by X-TOOL on Mon Aug  2 16:13:27 2021
### 

@<TRIPOS>MOLECULE
6g3c_ligand
   54    56     1     0     0
SMALL
GAST_HUCK


@<TRIPOS>ATOM
      1 C2        -11.8140   12.6300   20.4480 C.ar      1 EKT         0.1776
      2 C11        -7.6970    7.7280   22.5560 C.3       1 EKT        -0.0626
      3 C12        -8.5240    9.0560   24.5790 C.3       1 EKT        -0.0626
      4 C13        -7.3280   11.3370   19.1830 C.3       1 EKT         0.1305
      5 C15        -7.0850   12.8000   18.7510 C.2       1 EKT         0.2468
      6 C16        -6.0520   10.8070   19.9050 C.3       1 EKT        -0.0326
      7 C18       -12.4120   10.5270   22.5400 C.ar      1 EKT        -0.0174
      8 C19       -12.8450    9.6070   23.5060 C.ar      1 EKT         0.1491
      9 C20       -14.2050    9.5410   23.8540 C.ar      1 EKT         0.1426
     10 C21       -15.1190   10.3950   23.2450 C.ar      1 EKT         0.1491
     11 C22       -14.6880   11.3650   22.3310 C.ar      1 EKT        -0.0174
     12 C23       -13.3190   11.4600   21.9960 C.ar      1 EKT         0.0484
     13 C28        -7.9070   15.1130   18.2940 C.3       1 EKT         0.0432
     14 C29        -7.5410   10.5710   17.8230 C.3       1 EKT        -0.0326
     15 N1        -11.7330   13.7350   19.6810 N.ar      1 EKT        -0.2866
     16 N3        -10.7600   11.7750   20.4810 N.ar      1 EKT        -0.2507
     17 C4         -9.5510   12.0870   19.9340 C.ar      1 EKT         0.1439
     18 C5         -9.4280   13.2820   19.1720 C.ar      1 EKT         0.1296
     19 C6        -10.5710   14.1110   19.1030 C.ar      1 EKT         0.0216
     20 N7         -8.5560   11.1620   19.9940 N.pl3     1 EKT        -0.2831
     21 C8         -8.8020    9.9260   20.7910 C.3       1 EKT         0.0293
     22 C9         -8.4680   10.1420   22.2870 C.3       1 EKT        -0.0305
     23 C10        -8.6930    8.8210   23.0550 C.3       1 EKT        -0.0449
     24 N14        -8.1340   13.6830   18.6820 N.am      1 EKT        -0.2194
     25 O17        -5.9250   13.1150   18.4900 O.2       1 EKT        -0.3379
     26 O24       -14.6170    8.6050   24.8100 O.3       1 EKT        -0.3405
     27 N25       -13.0170   12.3190   20.9880 N.pl3     1 EKT        -0.2596
     28 F26       -16.4030   10.3490   23.5830 F         1 EKT        -0.1941
     29 F27       -11.9850    8.7840   24.0800 F         1 EKT        -0.1941
     30 H1         -7.8690    6.7942   23.1113 H         1 EKT         0.0232
     31 H2         -6.6646    8.0690   22.7229 H         1 EKT         0.0232
     32 H3         -7.8554    7.5504   21.4821 H         1 EKT         0.0232
     33 H4         -9.2331    9.8283   24.9117 H         1 EKT         0.0232
     34 H5         -7.4961    9.3879   24.7871 H         1 EKT         0.0232
     35 H6         -8.7230    8.1185   25.1189 H         1 EKT         0.0232
     36 H7         -5.1746   10.9619   19.2598 H         1 EKT         0.0239
     37 H8         -6.1683    9.7334   20.1141 H         1 EKT         0.0239
     38 H9         -5.9127   11.3518   20.8504 H         1 EKT         0.0239
     39 H10       -11.3791   10.5210   22.2111 H         1 EKT         0.0460
     40 H11       -15.4047   12.0424   21.8810 H         1 EKT         0.0460
     41 H12        -6.8713   15.2383   17.9453 H         1 EKT         0.0550
     42 H13        -8.0815   15.7615   19.1652 H         1 EKT         0.0550
     43 H14        -8.6015   15.3886   17.4868 H         1 EKT         0.0550
     44 H15        -8.4435   10.9539   17.3240 H         1 EKT         0.0239
     45 H16        -7.6606    9.4959   18.0225 H         1 EKT         0.0239
     46 H17        -6.6678   10.7284   17.1728 H         1 EKT         0.0239
     47 H18       -10.5146   15.0591   18.5805 H         1 EKT         0.0712
     48 H19        -8.1717    9.1150   20.3972 H         1 EKT         0.0520
     49 H20        -9.8615    9.6452   20.6979 H         1 EKT         0.0520
     50 H21        -9.1221   10.9237   22.7006 H         1 EKT         0.0287
     51 H22        -7.4174   10.4516   22.3882 H         1 EKT         0.0287
     52 H23        -9.7191    8.4734   22.8647 H         1 EKT         0.0296
     53 H24       -13.8638    8.1128   25.1148 H         1 EKT         0.2418
     54 H25       -13.8231   12.8069   20.5720 H         1 EKT         0.2110
@<TRIPOS>BOND
     1    1   15 ar 
     2   16    1 ar 
     3    1   27 1  
     4   23    2 1  
     5   23    3 1  
     6    4    5 1  
     7    4    6 1  
     8    4   14 1  
     9   20    4 1  
    10    5   24 am 
    11    5   25 2  
    12    7    8 ar 
    13   12    7 ar 
    14    8    9 ar 
    15    8   29 1  
    16   10    9 ar 
    17    9   26 1  
    18   11   10 ar 
    19   10   28 1  
    20   12   11 ar 
    21   27   12 1  
    22   24   13 1  
    23   19   15 ar 
    24   17   16 ar 
    25   17   18 ar 
    26   20   17 1  
    27   18   19 ar 
    28   18   24 1  
    29   21   20 1  
    30   22   21 1  
    31   22   23 1  
    32    2   30 1  
    33    2   31 1  
    34    2   32 1  
    35    3   33 1  
    36    3   34 1  
    37    3   35 1  
    38    6   36 1  
    39    6   37 1  
    40    6   38 1  
    41    7   39 1  
    42   11   40 1  
    43   13   41 1  
    44   13   42 1  
    45   13   43 1  
    46   14   44 1  
    47   14   45 1  
    48   14   46 1  
    49   19   47 1  
    50   21   48 1  
    51   21   49 1  
    52   22   50 1  
    53   22   51 1  
    54   23   52 1  
    55   26   53 1  
    56   27   54 1  
@<TRIPOS>SUBSTRUCTURE
     1 EKT         1

