### 
### Created by X-TOOL on Wed Jan  1 15:39:35 2020
### 

@<TRIPOS>MOLECULE
6g3o_ligand
   49    50     1     0     0
SMALL
GAST_HUCK


@<TRIPOS>ATOM
      1 C4        -26.9980  -13.0110    0.0210 C.2       1 EL8         0.2257
      2 C8        -27.6340  -16.2520    0.4550 C.3       1 EL8         0.0322
      3 C9        -26.2410  -16.2370    1.1960 C.3       1 EL8        -0.0306
      4 O5        -26.8310  -10.9040   -1.3070 O.2       1 EL8        -0.3670
      5 C10       -25.1710  -16.9060    0.2930 C.3       1 EL8        -0.0489
      6 O6        -26.7270  -12.9540    1.1450 O.2       1 EL8        -0.3653
      7 C11       -23.8060  -16.9640    0.9540 C.3       1 EL8        -0.0360
      8 C12       -22.9430  -17.9700    0.1920 C.3       1 EL8         0.0389
      9 C13       -21.5400  -17.9680    0.7190 C.2       1 EL8         0.1988
     10 C1        -27.0970  -12.0560   -1.1540 C.2       1 EL8         0.2267
     11 C2        -27.5390  -13.2280   -1.9530 C.2       1 EL8         0.1559
     12 C3        -27.4370  -14.1080   -0.9090 C.2       1 EL8         0.1436
     13 N7        -27.5830  -15.4660   -0.8200 N.pl3     1 EL8        -0.3159
     14 N14       -21.0490  -19.2520    1.0770 N.am      1 EL8        -0.1642
     15 O15       -20.8250  -16.9890    0.8540 O.2       1 EL8        -0.3970
     16 O16       -20.0310  -19.2270    1.9560 O.3       1 EL8        -0.2717
     17 C17       -28.7940  -15.7370    1.3370 C.3       1 EL8        -0.0426
     18 N18       -27.9000  -13.4740   -3.2500 N.pl3     1 EL8        -0.2789
     19 C19       -28.0890  -12.5850   -4.2980 C.ar      1 EL8         0.0466
     20 C20       -28.0040  -11.1620   -4.1890 C.ar      1 EL8        -0.0480
     21 C21       -28.0540  -10.3770   -5.3420 C.ar      1 EL8        -0.0427
     22 C22       -28.1790  -11.0390   -6.5720 C.ar      1 EL8         0.0880
     23 C23       -28.2770  -12.4430   -6.6920 C.ar      1 EL8        -0.0427
     24 C24       -28.2490  -13.2100   -5.5550 C.ar      1 EL8        -0.0480
     25 O25       -28.1910  -10.1910   -7.6500 O.3       1 EL8        -0.2341
     26 C26       -29.3220  -10.1300   -8.4620 C.3       1 EL8         0.5442
     27 F27       -29.3120   -9.1230   -9.3520 F         1 EL8        -0.1403
     28 F28       -30.3700   -9.9980   -7.6330 F         1 EL8        -0.1403
     29 F29       -29.4610  -11.2700   -9.1570 F         1 EL8        -0.1403
     30 H1        -27.8536  -17.2986    0.1973 H         1 EL8         0.0547
     31 H2        -26.3223  -16.7923    2.1420 H         1 EL8         0.0287
     32 H3        -25.9474  -15.1977    1.4049 H         1 EL8         0.0287
     33 H4        -25.0867  -16.3297   -0.6402 H         1 EL8         0.0267
     34 H5        -25.4951  -17.9316    0.0627 H         1 EL8         0.0267
     35 H6        -23.9134  -17.2846    2.0007 H         1 EL8         0.0289
     36 H7        -23.3349  -15.9706    0.9212 H         1 EL8         0.0289
     37 H8        -22.9289  -17.6997   -0.8742 H         1 EL8         0.0502
     38 H9        -23.3717  -18.9761    0.3096 H         1 EL8         0.0502
     39 H10       -27.6646  -15.9912   -1.7023 H         1 EL8         0.1760
     40 H11       -21.4273  -20.1008    0.7076 H         1 EL8         0.2216
     41 H12       -19.7570  -20.1164    2.1470 H         1 EL8         0.2490
     42 H13       -29.7330  -15.7725    0.7652 H         1 EL8         0.0252
     43 H14       -28.5899  -14.7002    1.6426 H         1 EL8         0.0252
     44 H15       -28.8848  -16.3717    2.2308 H         1 EL8         0.0252
     45 H16       -28.0541  -14.4656   -3.4823 H         1 EL8         0.2047
     46 H17       -27.9013  -10.6952   -3.2161 H         1 EL8         0.0503
     47 H18       -27.9983   -9.2957   -5.2887 H         1 EL8         0.0513
     48 H19       -28.3728  -12.9070   -7.6670 H         1 EL8         0.0513
     49 H20       -28.3489  -14.2874   -5.6204 H         1 EL8         0.0503
@<TRIPOS>BOND
     1    1    6 2  
     2    1   10 1  
     3   12    1 1  
     4    2    3 1  
     5   13    2 1  
     6    2   17 1  
     7    3    5 1  
     8   10    4 2  
     9    5    7 1  
    10    7    8 1  
    11    8    9 1  
    12    9   14 am 
    13    9   15 2  
    14   11   10 1  
    15   12   11 2  
    16   11   18 1  
    17   12   13 1  
    18   14   16 1  
    19   18   19 1  
    20   19   20 ar 
    21   19   24 ar 
    22   20   21 ar 
    23   21   22 ar 
    24   22   23 ar 
    25   22   25 1  
    26   23   24 ar 
    27   25   26 1  
    28   26   27 1  
    29   26   28 1  
    30   26   29 1  
    31    2   30 1  
    32    3   31 1  
    33    3   32 1  
    34    5   33 1  
    35    5   34 1  
    36    7   35 1  
    37    7   36 1  
    38    8   37 1  
    39    8   38 1  
    40   13   39 1  
    41   14   40 1  
    42   16   41 1  
    43   17   42 1  
    44   17   43 1  
    45   17   44 1  
    46   18   45 1  
    47   20   46 1  
    48   21   47 1  
    49   23   48 1  
    50   24   49 1  
@<TRIPOS>SUBSTRUCTURE
     1 EL8         1

