### 
### Created by X-TOOL on Wed Jan  1 15:39:38 2020
### 

@<TRIPOS>MOLECULE
6g3y_ligand
   47    50     1     0     0
SMALL
GAST_HUCK


@<TRIPOS>ATOM
      1 C10         4.7400   14.4620   29.3080 C.3       1 ELB         0.0374
      2 C13         3.8780   13.5740   26.6730 C.3       1 ELB        -0.0043
      3 C17         4.9360   10.6070   31.2530 C.ar      1 ELB         0.0692
      4 C20         5.5240    8.1080   32.2330 C.ar      1 ELB        -0.0066
      5 C22         6.5750    8.9830   31.9790 C.ar      1 ELB        -0.0649
      6 C24         6.1400   12.0830   25.3940 C.ar      1 ELB         0.0833
      7 C26         6.4830    9.6720   25.6800 C.ar      1 ELB        -0.1009
      8 N01         7.4310   10.5940   22.1790 N.pl3     1 ELB        -0.3452
      9 C02         6.9810   10.7060   23.5340 C.ar      1 ELB         0.0460
     10 C03         6.5780   11.9680   24.0670 C.ar      1 ELB         0.1092
     11 N04         6.5360   13.2760   23.4690 N.am      1 ELB        -0.2254
     12 C05         6.0600   14.1820   24.4390 C.2       1 ELB         0.3054
     13 O06         5.9080   15.3690   24.2420 O.2       1 ELB        -0.3978
     14 N07         5.7840   13.4810   25.6450 N.am      1 ELB        -0.2070
     15 C08         5.3030   14.1210   26.8940 C.3       1 ELB         0.0691
     16 C09         5.8310   14.0700   28.3140 C.3       1 ELB        -0.0043
     17 N11         3.7810   13.4240   29.0030 N.am      1 ELB        -0.2539
     18 C12         2.9360   13.7770   27.8790 C.3       1 ELB         0.0374
     19 C14         3.8570   12.1230   29.5980 C.2       1 ELB         0.2905
     20 O15         3.0750   11.2680   29.2310 O.2       1 ELB        -0.3899
     21 N16         4.8050   11.8920   30.6680 N.am      1 ELB        -0.2179
     22 C18         3.8870    9.7130   31.4850 C.ar      1 ELB        -0.0387
     23 C19         4.1950    8.4600   31.9910 C.ar      1 ELB        -0.0649
     24 I21         5.9600    6.2020   32.9790 I         1 ELB        -0.0626
     25 C23         6.2720   10.2330   31.4660 C.ar      1 ELB        -0.0387
     26 C25         6.0880   10.9110   26.2130 C.ar      1 ELB        -0.0660
     27 C27         6.9290    9.5620   24.3450 C.ar      1 ELB        -0.0715
     28 H1          4.3396   15.4667   29.1075 H         1 ELB         0.0521
     29 H2          5.0905   14.4080   30.3492 H         1 ELB         0.0521
     30 H3          3.9490   12.4959   26.4667 H         1 ELB         0.0312
     31 H4          3.4416   14.0860   25.8027 H         1 ELB         0.0312
     32 H5          7.6011    8.6948   32.1768 H         1 ELB         0.0604
     33 H6          6.4446    8.7865   26.3040 H         1 ELB         0.0425
     34 H7          7.7191    9.6781   21.8061 H         1 ELB         0.1673
     35 H8          7.4666   11.4293   21.5774 H         1 ELB         0.1673
     36 H9          6.7981   13.5026   22.5309 H         1 ELB         0.2208
     37 H10         5.3082   15.2032   26.6968 H         1 ELB         0.0622
     38 H11         6.1722   13.0481   28.5362 H         1 ELB         0.0312
     39 H12         6.6758   14.7678   28.4107 H         1 ELB         0.0312
     40 H13         2.0613   13.1130   27.8159 H         1 ELB         0.0521
     41 H14         2.5990   14.8218   27.9483 H         1 ELB         0.0521
     42 H15         5.3729   12.6462   30.9976 H         1 ELB         0.2265
     43 H16         2.8608    9.9920   31.2750 H         1 ELB         0.0507
     44 H17         3.4016    7.7513   32.1994 H         1 ELB         0.0604
     45 H18         7.0706   10.9262   31.2277 H         1 ELB         0.0507
     46 H19         5.7457   10.9783   27.2393 H         1 ELB         0.0360
     47 H20         7.2297    8.5989   23.9486 H         1 ELB         0.0353
@<TRIPOS>BOND
     1    1   16 1  
     2   17    1 1  
     3    2   15 1  
     4   18    2 1  
     5   21    3 1  
     6    3   22 ar 
     7    3   25 ar 
     8    5    4 ar 
     9    4   23 ar 
    10    4   24 1  
    11   25    5 ar 
    12    6   10 ar 
    13   14    6 1  
    14    6   26 ar 
    15   26    7 ar 
    16    7   27 ar 
    17    9    8 1  
    18   10    9 ar 
    19    9   27 ar 
    20   11   10 1  
    21   12   11 am 
    22   12   13 2  
    23   14   12 am 
    24   15   14 1  
    25   16   15 1  
    26   17   18 1  
    27   19   17 am 
    28   19   20 2  
    29   19   21 am 
    30   22   23 ar 
    31    1   28 1  
    32    1   29 1  
    33    2   30 1  
    34    2   31 1  
    35    5   32 1  
    36    7   33 1  
    37    8   34 1  
    38    8   35 1  
    39   11   36 1  
    40   15   37 1  
    41   16   38 1  
    42   16   39 1  
    43   18   40 1  
    44   18   41 1  
    45   21   42 1  
    46   22   43 1  
    47   23   44 1  
    48   25   45 1  
    49   26   46 1  
    50   27   47 1  
@<TRIPOS>SUBSTRUCTURE
     1 ELB         1

