### 
### Created by X-TOOL on Wed Jan  1 15:39:35 2020
### 

@<TRIPOS>MOLECULE
6g46_ligand
   26    28     1     0     0
SMALL
GAST_HUCK


@<TRIPOS>ATOM
      1 CAC       -67.5490   35.7750  -45.1460 C.ar      1 ELH        -0.0604
      2 CAD       -67.6070   35.3200  -43.8370 C.ar      1 ELH        -0.0605
      3 CAE       -72.0570   34.3250  -45.8580 C.ar      1 ELH        -0.0560
      4 CAF       -72.0970   33.8960  -44.5710 C.ar      1 ELH        -0.0456
      5 CAG       -68.6390   35.6320  -45.9840 C.ar      1 ELH        -0.0527
      6 CAH       -70.9030   34.9060  -46.3230 C.ar      1 ELH        -0.0502
      7 CAI       -68.7640   34.7430  -43.3780 C.ar      1 ELH        -0.0524
      8 CAJ       -71.3780   33.1190  -40.3020 C.2       1 ELH         0.0307
      9 CAM       -69.5300   31.7370  -40.1230 C.2       1 ELH         0.0620
     10 CAN       -70.3160   32.5090  -40.7820 C.2       1 ELH         0.0585
     11 CAO       -71.0630   33.6220  -42.5190 C.2       1 ELH         0.1141
     12 CAP       -71.0210   34.0400  -43.7530 C.ar      1 ELH         0.0267
     13 CAQ       -69.8010   35.0420  -45.5000 C.ar      1 ELH        -0.0139
     14 CAR       -69.8580   34.5990  -44.2070 C.ar      1 ELH        -0.0045
     15 NAK       -70.1690   32.8280  -42.0550 N.2       1 ELH        -0.2984
     16 OAA       -69.8130   31.3910  -38.9740 O.co2     1 ELH        -0.5643
     17 OAB       -68.4510   31.4400  -40.6050 O.co2     1 ELH        -0.5643
     18 SAL       -71.9670   33.9350  -41.5230 S.3       1 ELH         0.0015
     19 H1        -66.6442   36.2452  -45.5138 H         1 ELH         0.0619
     20 H2        -66.7476   35.4192  -43.1838 H         1 ELH         0.0625
     21 H3        -72.9187   34.2113  -46.5058 H         1 ELH         0.0628
     22 H4        -72.9996   33.4321  -44.1901 H         1 ELH         0.0666
     23 H5        -68.5881   35.9771  -47.0103 H         1 ELH         0.0630
     24 H6        -70.8558   35.2616  -47.3459 H         1 ELH         0.0658
     25 H7        -68.8195   34.3962  -42.3525 H         1 ELH         0.0623
     26 H8        -71.7670   33.0725  -39.2859 H         1 ELH         0.0846
@<TRIPOS>BOND
     1    1    2 ar 
     2    5    1 ar 
     3    2    7 ar 
     4    4    3 ar 
     5    3    6 ar 
     6   12    4 ar 
     7   13    5 ar 
     8    6   13 ar 
     9    7   14 ar 
    10   10    8 2  
    11    8   18 1  
    12   10    9 1  
    13    9   16 ar 
    14    9   17 ar 
    15   15   10 1  
    16   11   12 1  
    17   11   15 2  
    18   11   18 1  
    19   12   14 ar 
    20   13   14 ar 
    21    1   19 1  
    22    2   20 1  
    23    3   21 1  
    24    4   22 1  
    25    5   23 1  
    26    6   24 1  
    27    7   25 1  
    28    8   26 1  
@<TRIPOS>SUBSTRUCTURE
     1 ELH         1

