### 
### Created by X-TOOL on Wed Jan  1 15:39:35 2020
### 

@<TRIPOS>MOLECULE
6g47_ligand
   75    76     1     0     0
SMALL
GAST_HUCK


@<TRIPOS>ATOM
      1 C1         13.0590  -20.9710  -29.8180 C.2       1 SIA         0.1041
      2 C2         11.9460  -20.4890  -30.7390 C.3       1 SIA         0.2208
      3 C3         10.5990  -20.5160  -30.0210 C.3       1 SIA         0.0353
      4 C4         10.4110  -19.3450  -29.0560 C.3       1 SIA         0.0850
      5 C5         10.8030  -18.0270  -29.7100 C.3       1 SIA         0.0964
      6 C6         12.2310  -18.1840  -30.1950 C.3       1 SIA         0.1143
      7 C7         12.8060  -16.9200  -30.7870 C.3       1 SIA         0.1114
      8 C8         14.1180  -17.1770  -31.5010 C.3       1 SIA         0.1065
      9 C9         14.7880  -15.8420  -31.7170 C.3       1 SIA         0.0727
     10 C10         9.8670  -15.8960  -28.9350 C.2       1 SIA         0.1733
     11 C11         9.9430  -14.7990  -27.9180 C.3       1 SIA         0.0257
     12 N5         10.6990  -16.9210  -28.7750 N.am      1 SIA        -0.2790
     13 O1A        14.1790  -20.4330  -29.9080 O.co2     1 SIA        -0.5426
     14 O1B        12.8340  -21.9150  -29.0640 O.co2     1 SIA        -0.5426
     15 O4          9.0690  -19.3480  -28.5930 O.3       1 SIA        -0.3893
     16 O6         12.2460  -19.1830  -31.2000 O.3       1 SIA        -0.3384
     17 O7         11.9040  -16.3880  -31.7370 O.3       1 SIA        -0.3865
     18 O8         14.9660  -17.9800  -30.7000 O.3       1 SIA        -0.3869
     19 O9         15.9170  -16.0460  -32.5580 O.3       1 SIA        -0.3924
     20 O10         9.0810  -15.8180  -29.8320 O.2       1 SIA        -0.3974
     21 C1         16.2610  -22.6120  -35.3530 C.2       1 SIA         0.1039
     22 C2         15.1950  -23.6310  -35.6170 C.3       1 SIA         0.2179
     23 C3         15.7300  -25.0320  -35.3660 C.3       1 SIA         0.0351
     24 C4         16.0370  -25.2070  -33.8840 C.3       1 SIA         0.0850
     25 C5         14.8030  -24.8720  -33.0740 C.3       1 SIA         0.0964
     26 C6         14.3610  -23.4720  -33.4060 C.3       1 SIA         0.1143
     27 C7         13.1310  -23.1250  -32.6080 C.3       1 SIA         0.1116
     28 C8         12.9980  -21.6130  -32.5850 C.3       1 SIA         0.1121
     29 C9         13.0940  -20.9740  -33.9610 C.3       1 SIA         0.0729
     30 C10        14.6430  -25.7550  -30.8160 C.2       1 SIA         0.1733
     31 C11        15.7140  -26.3250  -29.9360 C.3       1 SIA         0.0257
     32 N5         15.1130  -24.8670  -31.6730 N.am      1 SIA        -0.2790
     33 O1A        16.0760  -21.4840  -35.8540 O.co2     1 SIA        -0.5426
     34 O1B        17.2550  -22.9180  -34.6520 O.co2     1 SIA        -0.5426
     35 O2         14.7770  -23.4850  -36.9760 O.3       1 SIA        -0.3631
     36 O4         16.4450  -26.5410  -33.5700 O.3       1 SIA        -0.3893
     37 O6         14.0780  -23.3550  -34.7810 O.3       1 SIA        -0.3385
     38 O7         11.9590  -23.7080  -33.1620 O.3       1 SIA        -0.3865
     39 O8         11.7730  -21.3470  -31.8880 O.3       1 SIA        -0.3385
     40 O9         11.9610  -20.1520  -34.1770 O.3       1 SIA        -0.3924
     41 O10        13.4620  -26.0590  -30.7310 O.2       1 SIA        -0.3974
     42 H1         10.5242  -21.4543  -29.4518 H         1 SIA         0.0336
     43 H2          9.7992  -20.4800  -30.7753 H         1 SIA         0.0336
     44 H3         11.0722  -19.4977  -28.1903 H         1 SIA         0.0618
     45 H4         10.1408  -17.8303  -30.5660 H         1 SIA         0.0608
     46 H5         12.8598  -18.4963  -29.3482 H         1 SIA         0.0646
     47 H6         12.9683  -16.1908  -29.9796 H         1 SIA         0.0647
     48 H7         13.9323  -17.6743  -32.4644 H         1 SIA         0.0643
     49 H8         15.1124  -15.4269  -30.7514 H         1 SIA         0.0584
     50 H9         14.0855  -15.1456  -32.1981 H         1 SIA         0.0584
     51 H10         9.2080  -14.0187  -28.1648 H         1 SIA         0.0467
     52 H11        10.9537  -14.3649  -27.9217 H         1 SIA         0.0467
     53 H12         9.7230  -15.2076  -26.9207 H         1 SIA         0.0467
     54 H13        11.2859  -16.9306  -27.9654 H         1 SIA         0.1856
     55 H14         8.8744  -20.1884  -28.1950 H         1 SIA         0.2099
     56 H15        12.2563  -15.5785  -32.0878 H         1 SIA         0.2100
     57 H16        14.5564  -18.8249  -30.5555 H         1 SIA         0.2100
     58 H17        16.5178  -16.6506  -32.1385 H         1 SIA         0.2095
     59 H18        16.6499  -25.1821  -35.9501 H         1 SIA         0.0336
     60 H19        14.9760  -25.7717  -35.6729 H         1 SIA         0.0336
     61 H20        16.8488  -24.5169  -33.6106 H         1 SIA         0.0618
     62 H21        14.0038  -25.5961  -33.2904 H         1 SIA         0.0608
     63 H22        15.1687  -22.7718  -33.1465 H         1 SIA         0.0646
     64 H23        13.2549  -23.4959  -31.5799 H         1 SIA         0.0647
     65 H24        13.8265  -21.2018  -31.9897 H         1 SIA         0.0645
     66 H25        13.1289  -21.7603  -34.7294 H         1 SIA         0.0584
     67 H26        14.0071  -20.3634  -34.0194 H         1 SIA         0.0584
     68 H27        15.2698  -27.0559  -29.2444 H         1 SIA         0.0467
     69 H28        16.1852  -25.5148  -29.3602 H         1 SIA         0.0467
     70 H29        16.4730  -26.8226  -30.5575 H         1 SIA         0.0467
     71 H30        15.7189  -24.1510  -31.3262 H         1 SIA         0.1856
     72 H31        14.4716  -22.5968  -37.1185 H         1 SIA         0.2112
     73 H32        17.2197  -26.7609  -34.0740 H         1 SIA         0.2099
     74 H33        11.2070  -23.4679  -32.6334 H         1 SIA         0.2100
     75 H34        11.9320  -19.4736  -33.5126 H         1 SIA         0.2095
@<TRIPOS>BOND
     1    2    1 1  
     2    1   13 ar 
     3    1   14 ar 
     4    2    3 1  
     5    2   16 1  
     6   39    2 1  
     7    3    4 1  
     8    4    5 1  
     9    4   15 1  
    10    6    5 1  
    11    5   12 1  
    12    6    7 1  
    13   16    6 1  
    14    7    8 1  
    15    7   17 1  
    16    8    9 1  
    17    8   18 1  
    18    9   19 1  
    19   10   11 1  
    20   12   10 am 
    21   10   20 2  
    22   22   21 1  
    23   21   33 ar 
    24   21   34 ar 
    25   23   22 1  
    26   22   35 1  
    27   37   22 1  
    28   24   23 1  
    29   25   24 1  
    30   24   36 1  
    31   25   26 1  
    32   32   25 1  
    33   26   27 1  
    34   26   37 1  
    35   27   28 1  
    36   27   38 1  
    37   28   29 1  
    38   28   39 1  
    39   29   40 1  
    40   30   31 1  
    41   30   32 am 
    42   30   41 2  
    43    3   42 1  
    44    3   43 1  
    45    4   44 1  
    46    5   45 1  
    47    6   46 1  
    48    7   47 1  
    49    8   48 1  
    50    9   49 1  
    51    9   50 1  
    52   11   51 1  
    53   11   52 1  
    54   11   53 1  
    55   12   54 1  
    56   15   55 1  
    57   17   56 1  
    58   18   57 1  
    59   19   58 1  
    60   23   59 1  
    61   23   60 1  
    62   24   61 1  
    63   25   62 1  
    64   26   63 1  
    65   27   64 1  
    66   28   65 1  
    67   29   66 1  
    68   29   67 1  
    69   31   68 1  
    70   31   69 1  
    71   31   70 1  
    72   32   71 1  
    73   35   72 1  
    74   36   73 1  
    75   38   74 1  
    76   40   75 1  
@<TRIPOS>SUBSTRUCTURE
     1 SIA         1

