### 
### Created by X-TOOL on Wed Jan  1 15:39:37 2020
### 

@<TRIPOS>MOLECULE
6g4m_ligand
   54    57     1     0     0
SMALL
GAST_HUCK


@<TRIPOS>ATOM
      1 C02       -13.2750    5.5080   54.9320 C.3       1 DQ5         0.0345
      2 C03       -14.0830    4.5660   55.8760 C.3       1 DQ5        -0.0295
      3 C04       -15.1700    3.7080   55.1390 C.3       1 DQ5        -0.0408
      4 C05       -14.5920    2.7800   54.0330 C.3       1 DQ5        -0.0108
      5 C06       -14.5240    3.5380   52.6860 C.ar      1 DQ5         0.0084
      6 C07       -15.2330    4.7240   52.5440 C.ar      1 DQ5        -0.0489
      7 C08       -15.1860    5.4360   51.3710 C.ar      1 DQ5        -0.0268
      8 C09       -14.4470    4.9710   50.3190 C.ar      1 DQ5         0.1145
      9 C11       -13.7220    3.7700   50.4530 C.ar      1 DQ5         0.0941
     10 C12       -12.9030    3.2190   49.2770 C.3       1 DQ5         0.0426
     11 C16       -11.1620    4.7960   53.5380 C.ar      1 DQ5         0.0977
     12 C17       -11.0620    5.7210   52.4070 C.ar      1 DQ5         0.0377
     13 C18       -11.7300    7.0730   52.4030 C.ar      1 DQ5        -0.0468
     14 C19       -11.6460    7.9060   51.1130 C.ar      1 DQ5        -0.0598
     15 C20       -11.2500    7.1770   49.8400 C.ar      1 DQ5        -0.0615
     16 C21       -10.1440    6.1630   50.0380 C.ar      1 DQ5        -0.0497
     17 C22       -10.3360    5.3230   51.2920 C.ar      1 DQ5         0.0172
     18 C24        -9.7830    3.1860   52.3090 C.ar      1 DQ5         0.0172
     19 C25        -9.1360    1.9490   52.2180 C.ar      1 DQ5        -0.0497
     20 C26        -9.1970    1.0410   53.2610 C.ar      1 DQ5        -0.0615
     21 C27        -9.8940    1.3730   54.4020 C.ar      1 DQ5        -0.0598
     22 C28       -10.5420    2.6110   54.4940 C.ar      1 DQ5        -0.0468
     23 C29       -10.4920    3.5270   53.4490 C.ar      1 DQ5         0.0377
     24 N01       -11.8790    5.0980   54.7900 N.pl3     1 DQ5        -0.2964
     25 N13       -11.5830    3.2330   49.2370 N.4       1 DQ5         0.3984
     26 N15       -13.7700    3.0660   51.6340 N.ar      1 DQ5        -0.3042
     27 N23        -9.7050    4.0820   51.2440 N.ar      1 DQ5        -0.3395
     28 O10       -14.4400    5.7310   49.1160 O.3       1 DQ5        -0.3335
     29 O14       -10.8770    2.0750   49.4370 O.3       1 DQ5        -0.3429
     30 H1        -13.3026    6.5277   55.3437 H         1 DQ5         0.0539
     31 H2        -13.7472    5.5008   53.9385 H         1 DQ5         0.0539
     32 H3        -14.5854    5.1839   56.6348 H         1 DQ5         0.0288
     33 H4        -13.3772    3.8814   56.3692 H         1 DQ5         0.0288
     34 H5        -15.8953    4.3919   54.6740 H         1 DQ5         0.0288
     35 H6        -15.6821    3.0819   55.8845 H         1 DQ5         0.0288
     36 H7        -15.2404    1.8984   53.9221 H         1 DQ5         0.0432
     37 H8        -13.5804    2.4574   54.3205 H         1 DQ5         0.0432
     38 H9        -15.8310    5.0921   53.3698 H         1 DQ5         0.0562
     39 H10       -15.7346    6.3664   51.2791 H         1 DQ5         0.0620
     40 H11       -13.2363    3.7785   48.3905 H         1 DQ5         0.0995
     41 H12       -13.1954    2.1634   49.1757 H         1 DQ5         0.0995
     42 H13       -12.2508    7.4444   53.2782 H         1 DQ5         0.0675
     43 H14       -11.8603    8.9686   51.1119 H         1 DQ5         0.0582
     44 H15       -11.7161    7.3656   48.8797 H         1 DQ5         0.0657
     45 H16        -9.3061    6.0477   49.3600 H         1 DQ5         0.0582
     46 H17        -8.5810    1.6989   51.3211 H         1 DQ5         0.0582
     47 H18        -8.7021    0.0799   53.1809 H         1 DQ5         0.0657
     48 H19        -9.9409    0.6748   55.2299 H         1 DQ5         0.0582
     49 H20       -11.0917    2.8593   55.3947 H         1 DQ5         0.0675
     50 H21       -11.3364    5.0105   55.6611 H         1 DQ5         0.1942
     51 H22       -11.2778    3.8849   49.9426 H         1 DQ5         0.2366
     52 H23       -11.3235    3.5779   48.3261 H         1 DQ5         0.2366
     53 H24       -14.9860    6.5006   49.2258 H         1 DQ5         0.2459
     54 H25        -9.9468    2.2580   49.3759 H         1 DQ5         0.2694
@<TRIPOS>BOND
     1    1    2 1  
     2   24    1 1  
     3    2    3 1  
     4    3    4 1  
     5    4    5 1  
     6    5    6 ar 
     7    5   26 ar 
     8    6    7 ar 
     9    7    8 ar 
    10    9    8 ar 
    11    8   28 1  
    12    9   10 1  
    13   26    9 ar 
    14   10   25 1  
    15   11   12 ar 
    16   23   11 ar 
    17   11   24 1  
    18   12   13 ar 
    19   12   17 ar 
    20   13   14 ar 
    21   14   15 ar 
    22   16   15 ar 
    23   17   16 ar 
    24   17   27 ar 
    25   18   19 ar 
    26   18   23 ar 
    27   18   27 ar 
    28   19   20 ar 
    29   20   21 ar 
    30   21   22 ar 
    31   22   23 ar 
    32   25   29 1  
    33    1   30 1  
    34    1   31 1  
    35    2   32 1  
    36    2   33 1  
    37    3   34 1  
    38    3   35 1  
    39    4   36 1  
    40    4   37 1  
    41    6   38 1  
    42    7   39 1  
    43   10   40 1  
    44   10   41 1  
    45   13   42 1  
    46   14   43 1  
    47   15   44 1  
    48   16   45 1  
    49   19   46 1  
    50   20   47 1  
    51   21   48 1  
    52   22   49 1  
    53   24   50 1  
    54   25   51 1  
    55   25   52 1  
    56   28   53 1  
    57   29   54 1  
@<TRIPOS>SUBSTRUCTURE
     1 DQ5         1

