### 
### Created by X-TOOL on Wed Jan  1 15:39:36 2020
### 

@<TRIPOS>MOLECULE
6g4n_ligand
   51    54     1     0     0
SMALL
GAST_HUCK


@<TRIPOS>ATOM
      1 C1         -9.4970    3.5330   51.9510 C.ar      1 E2W        -0.0476
      2 C10       -14.1890    5.0310   50.3680 C.2       1 E2W         0.0565
      3 C11       -13.4600    8.5070   53.3810 C.ar      1 E2W        -0.0467
      4 C12       -14.0120    9.5070   52.4330 C.ar      1 E2W        -0.0598
      5 C13       -12.9170   10.0680   51.5440 C.ar      1 E2W        -0.0614
      6 C14       -12.1280    8.9480   50.8210 C.ar      1 E2W        -0.0496
      7 C15       -14.0670    5.7320   55.3290 C.3       1 E2W         0.0345
      8 C16       -14.2330    4.5920   56.3950 C.3       1 E2W        -0.0294
      9 C17       -15.1900    3.4180   56.0240 C.3       1 E2W        -0.0405
     10 C18       -15.8650    3.4410   54.6420 C.3       1 E2W        -0.0092
     11 C19       -14.9660    3.2490   53.4710 C.ar      1 E2W         0.0130
     12 C2         -9.9750    3.3790   53.2550 C.ar      1 E2W         0.0418
     13 C20       -14.1120    2.1270   53.4500 C.ar      1 E2W        -0.0428
     14 C21       -13.2610    1.9510   52.3730 C.ar      1 E2W        -0.0200
     15 C22       -13.2670    2.8960   51.3500 C.ar      1 E2W         0.1167
     16 C23       -14.1490    4.0160   51.4300 C.ar      1 E2W         0.0784
     17 C3        -10.8170    4.2920   53.8260 C.ar      1 E2W        -0.0328
     18 C4        -11.2240    5.4230   53.0950 C.ar      1 E2W         0.0383
     19 C5        -10.7640    5.6150   51.7840 C.ar      1 E2W         0.0174
     20 C6         -9.8820    4.6360   51.2280 C.ar      1 E2W        -0.0492
     21 C7        -12.1080    6.3860   53.6730 C.ar      1 E2W         0.0978
     22 C8        -12.5260    7.4560   52.8760 C.ar      1 E2W         0.0378
     23 C9        -12.0090    7.5990   51.5390 C.ar      1 E2W         0.0173
     24 N10       -11.1350    6.7130   51.0100 N.ar      1 E2W        -0.3393
     25 N11       -12.6490    6.0780   54.9560 N.pl3     1 E2W        -0.2963
     26 N24       -14.9720    4.1870   52.4770 N.ar      1 E2W        -0.3063
     27 N25       -13.7790    5.0470   49.1380 N.2       1 E2W        -0.1522
     28 O25       -13.1620    3.9660   48.6570 O.3       1 E2W        -0.2481
     29 O26       -12.4540    2.7890   50.2530 O.3       1 E2W        -0.3274
     30 CL2        -9.4930    2.0110   54.1680 Cl        1 E2W        -0.0746
     31 H1         -8.8332    2.7941   51.5169 H         1 E2W         0.0663
     32 H2        -14.6605    5.9623   50.6782 H         1 E2W         0.0781
     33 H3        -13.7320    8.5390   54.4298 H         1 E2W         0.0675
     34 H4        -15.0552    9.7972   52.3824 H         1 E2W         0.0582
     35 H5        -12.7116   11.1261   51.4288 H         1 E2W         0.0657
     36 H6        -11.6789    9.1114   49.8481 H         1 E2W         0.0583
     37 H7        -14.5421    6.6400   55.7288 H         1 E2W         0.0539
     38 H8        -14.5897    5.4172   54.4137 H         1 E2W         0.0539
     39 H9        -14.6135    5.0526   57.3186 H         1 E2W         0.0288
     40 H10       -13.2373    4.1635   56.5821 H         1 E2W         0.0288
     41 H11       -15.9907    3.3989   56.7780 H         1 E2W         0.0289
     42 H12       -14.6054    2.4883   56.0862 H         1 E2W         0.0289
     43 H13       -16.3629    4.4151   54.5273 H         1 E2W         0.0435
     44 H14       -16.6182    2.6396   54.6224 H         1 E2W         0.0435
     45 H15       -14.1220    1.4129   54.2655 H         1 E2W         0.0609
     46 H16       -12.6010    1.0923   52.3264 H         1 E2W         0.0636
     47 H17       -11.1704    4.1448   54.8401 H         1 E2W         0.0682
     48 H18        -9.5106    4.7666   50.2180 H         1 E2W         0.0582
     49 H19       -11.9767    6.0944   55.7362 H         1 E2W         0.1942
     50 H20       -12.3817    3.7933   49.1706 H         1 E2W         0.2842
     51 H21       -12.9875    2.7380   49.4686 H         1 E2W         0.2502
@<TRIPOS>BOND
     1   12    1 ar 
     2   20    1 ar 
     3   16    2 1  
     4    2   27 2  
     5    3    4 ar 
     6   22    3 ar 
     7    4    5 ar 
     8    5    6 ar 
     9    6   23 ar 
    10    7    8 1  
    11   25    7 1  
    12    8    9 1  
    13    9   10 1  
    14   10   11 1  
    15   11   13 ar 
    16   11   26 ar 
    17   17   12 ar 
    18   12   30 1  
    19   13   14 ar 
    20   14   15 ar 
    21   16   15 ar 
    22   15   29 1  
    23   26   16 ar 
    24   18   17 ar 
    25   18   19 ar 
    26   21   18 ar 
    27   19   20 ar 
    28   19   24 ar 
    29   21   22 ar 
    30   21   25 1  
    31   22   23 ar 
    32   23   24 ar 
    33   27   28 1  
    34    1   31 1  
    35    2   32 1  
    36    3   33 1  
    37    4   34 1  
    38    5   35 1  
    39    6   36 1  
    40    7   37 1  
    41    7   38 1  
    42    8   39 1  
    43    8   40 1  
    44    9   41 1  
    45    9   42 1  
    46   10   43 1  
    47   10   44 1  
    48   13   45 1  
    49   14   46 1  
    50   17   47 1  
    51   20   48 1  
    52   25   49 1  
    53   28   50 1  
    54   29   51 1  
@<TRIPOS>SUBSTRUCTURE
     1 E2W         1

