### 
### Created by X-TOOL on Wed Jan  1 15:39:37 2020
### 

@<TRIPOS>MOLECULE
6g4y_ligand
   63    67     1     0     0
SMALL
GAST_HUCK


@<TRIPOS>ATOM
      1 C4        183.7990   22.8120    2.4050 C.3       1 ELZ         0.0151
      2 C14       188.2910   15.0770   -1.6980 C.3       1 ELZ         0.1004
      3 C5        185.1820   22.2570    2.6690 C.3       1 ELZ         0.2074
      4 C11       186.9550   16.3720    1.2600 C.ar      1 ELZ        -0.0262
      5 C7        185.3880   20.9170    2.1000 C.1       1 ELZ        -0.0632
      6 C8        185.7080   19.8260    1.6850 C.1       1 ELZ        -0.0732
      7 C9        186.1590   18.6080    1.0810 C.ar      1 ELZ         0.0179
      8 C10       186.5270   17.5370    1.8550 C.ar      1 ELZ        -0.0515
      9 C12       187.0160   16.2690   -0.1150 C.ar      1 ELZ         0.1114
     10 N2        185.4020   24.3410    1.6660 N.am      1 ELZ        -0.2724
     11 C3        183.9950   24.2210    1.8900 C.3       1 ELZ         0.0364
     12 C1        185.9840   25.5010    1.0490 C.3       1 ELZ         0.0227
     13 O6        185.4130   22.2750    4.0750 O.3       1 ELZ        -0.3745
     14 O13       187.4570   15.0240   -0.5490 O.3       1 ELZ        -0.3091
     15 C15       187.3740   15.0250   -2.8940 C.3       1 ELZ         0.0880
     16 N16       186.8860   16.3470   -3.2600 N.pl3     1 ELZ        -0.2242
     17 C17       186.5870   17.3530   -2.3710 C.2       1 ELZ         0.1447
     18 N18       186.1690   18.4040   -3.0360 N.2       1 ELZ        -0.2980
     19 C19       186.2040   18.0870   -4.3590 C.2       1 ELZ         0.1142
     20 C20       185.7940   19.0720   -5.3250 C.2       1 ELZ         0.1989
     21 N21       185.5150   20.2850   -4.7510 N.am      1 ELZ        -0.3023
     22 O22       185.7120   18.8560   -6.5230 O.2       1 ELZ        -0.3925
     23 C23       186.6420   16.7890   -4.5400 C.2       1 ELZ         0.1726
     24 C24       186.8310   16.0540   -5.7670 C.2       1 ELZ         0.2321
     25 O25       187.8800   15.4690   -5.9900 O.2       1 ELZ        -0.3840
     26 N26       185.7730   16.1750   -6.6560 N.am      1 ELZ        -0.2815
     27 C27       185.7490   15.7550   -8.0550 C.3       1 ELZ         0.0455
     28 C28       186.9130   14.9290   -8.5750 C.3       1 ELZ        -0.0064
     29 C29       186.7060   14.5830  -10.0350 C.3       1 ELZ         0.0497
     30 O30       185.4780   13.8780  -10.2010 O.3       1 ELZ        -0.3796
     31 C31       184.3800   14.7040   -9.8230 C.3       1 ELZ         0.0497
     32 C32       184.4620   15.0110   -8.3460 C.3       1 ELZ        -0.0064
     33 C33       186.6340   17.3390   -0.9170 C.ar      1 ELZ         0.0638
     34 C34       186.2090   18.4980   -0.2880 C.ar      1 ELZ        -0.0379
     35 C35       186.1250   23.2680    2.0800 C.2       1 ELZ         0.2421
     36 O36       187.3350   23.1330    1.9950 O.2       1 ELZ        -0.3405
     37 H1        183.2106   22.8251    3.3343 H         1 ELZ         0.0309
     38 H2        183.2811   22.2003    1.6516 H         1 ELZ         0.0309
     39 H3        188.9787   14.2185   -1.7086 H         1 ELZ         0.0647
     40 H4        188.8710   16.0116   -1.7040 H         1 ELZ         0.0647
     41 H5        187.2464   15.5290    1.8760 H         1 ELZ         0.0553
     42 H6        186.4807   17.6082    2.9357 H         1 ELZ         0.0626
     43 H7        183.6584   24.9557    2.6362 H         1 ELZ         0.0523
     44 H8        183.4402   24.3705    0.9520 H         1 ELZ         0.0523
     45 H9        187.0742   25.3717    0.9804 H         1 ELZ         0.0488
     46 H10       185.7577   26.3909    1.6546 H         1 ELZ         0.0488
     47 H11       185.5657   25.6283    0.0397 H         1 ELZ         0.0488
     48 H12       184.8135   21.6737    4.5010 H         1 ELZ         0.2089
     49 H13       186.5142   14.3817   -2.6556 H         1 ELZ         0.0648
     50 H14       187.9245   14.6003   -3.7464 H         1 ELZ         0.0648
     51 H15       185.2192   21.0516   -5.3209 H         1 ELZ         0.1802
     52 H16       185.6072   20.4034   -3.7623 H         1 ELZ         0.1802
     53 H17       184.9374   16.5946   -6.3013 H         1 ELZ         0.1844
     54 H18       185.7430   16.6817   -8.6476 H         1 ELZ         0.0556
     55 H19       186.9883   14.0006   -7.9899 H         1 ELZ         0.0310
     56 H20       187.8432   15.5063   -8.4680 H         1 ELZ         0.0310
     57 H21       187.5377   13.9518  -10.3810 H         1 ELZ         0.0560
     58 H22       186.6771   15.5090  -10.6280 H         1 ELZ         0.0560
     59 H23       183.4369   14.1795  -10.0361 H         1 ELZ         0.0560
     60 H24       184.4145   15.6432  -10.3946 H         1 ELZ         0.0560
     61 H25       183.6041   15.6340   -8.0530 H         1 ELZ         0.0310
     62 H26       184.4447   14.0711   -7.7748 H         1 ELZ         0.0310
     63 H27       185.9066   19.3441   -0.8944 H         1 ELZ         0.0633
@<TRIPOS>BOND
     1    3    1 1  
     2    1   11 1  
     3   14    2 1  
     4    2   15 1  
     5    5    3 1  
     6    3   13 1  
     7    3   35 1  
     8    4    8 ar 
     9    9    4 ar 
    10    6    5 3  
    11    7    6 1  
    12    8    7 ar 
    13    7   34 ar 
    14    9   14 1  
    15    9   33 ar 
    16   11   10 1  
    17   10   12 1  
    18   10   35 am 
    19   15   16 1  
    20   16   17 1  
    21   16   23 1  
    22   17   18 2  
    23   17   33 1  
    24   18   19 1  
    25   19   20 1  
    26   19   23 2  
    27   20   21 am 
    28   20   22 2  
    29   23   24 1  
    30   24   25 2  
    31   24   26 am 
    32   26   27 1  
    33   27   28 1  
    34   27   32 1  
    35   28   29 1  
    36   29   30 1  
    37   30   31 1  
    38   31   32 1  
    39   33   34 ar 
    40   35   36 2  
    41    1   37 1  
    42    1   38 1  
    43    2   39 1  
    44    2   40 1  
    45    4   41 1  
    46    8   42 1  
    47   11   43 1  
    48   11   44 1  
    49   12   45 1  
    50   12   46 1  
    51   12   47 1  
    52   13   48 1  
    53   15   49 1  
    54   15   50 1  
    55   21   51 1  
    56   21   52 1  
    57   26   53 1  
    58   27   54 1  
    59   28   55 1  
    60   28   56 1  
    61   29   57 1  
    62   29   58 1  
    63   31   59 1  
    64   31   60 1  
    65   32   61 1  
    66   32   62 1  
    67   34   63 1  
@<TRIPOS>SUBSTRUCTURE
     1 ELZ         1

