### 
### Created by X-TOOL on Wed Jan  1 15:39:38 2020
### 

@<TRIPOS>MOLECULE
6g4z_ligand
   45    48     1     0     0
SMALL
GAST_HUCK


@<TRIPOS>ATOM
      1 C4         32.3060   49.9920    2.1890 C.3       1 ELW         0.0160
      2 C14        29.7980   54.1210   -0.5620 C.ar      1 ELW         0.0148
      3 C5         30.8480   50.3730    2.3140 C.3       1 ELW         0.2115
      4 C11        29.2920   56.3270    0.8960 C.ar      1 ELW         0.0030
      5 C7         30.5610   51.6980    1.7730 C.1       1 ELW        -0.0511
      6 C8         30.2430   52.7960    1.3900 C.1       1 ELW        -0.0557
      7 C9         29.8800   54.0440    0.8070 C.ar      1 ELW         0.0381
      8 C10        29.6290   55.1680    1.5570 C.ar      1 ELW        -0.0282
      9 C13        29.4570   55.3290   -1.1280 C.ar      1 ELW         0.1816
     10 N2         30.9760   48.4720    1.0120 N.am      1 ELW        -0.2723
     11 C3         32.3360   48.7270    1.3600 C.3       1 ELW         0.0365
     12 C1         30.6090   47.3570    0.1880 C.3       1 ELW         0.0227
     13 O6         30.4220   50.2280    3.6600 O.3       1 ELW        -0.3738
     14 N12        29.2000   56.4400   -0.4320 N.ar      1 ELW        -0.2705
     15 N15        29.4260   55.3650   -2.5230 N.pl3     1 ELW        -0.1308
     16 N16        30.0200   54.3710   -3.2020 N.2       1 ELW        -0.1576
     17 C17        29.8210   54.6700   -4.4850 C.2       1 ELW         0.1371
     18 C18        30.3160   53.8240   -5.5340 C.2       1 ELW         0.2128
     19 N19        30.5710   52.5400   -5.1200 N.am      1 ELW        -0.2998
     20 O20        30.4800   54.2450   -6.6690 O.2       1 ELW        -0.3856
     21 C21        29.0970   55.8750   -4.6230 C.ar      1 ELW         0.0303
     22 C22        28.8560   56.3090   -3.3360 C.ar      1 ELW         0.1130
     23 C23        28.1660   57.4660   -3.0550 C.ar      1 ELW        -0.0302
     24 C24        27.7210   58.1810   -4.1430 C.ar      1 ELW        -0.0342
     25 C25        27.9580   57.7490   -5.4230 C.ar      1 ELW         0.1223
     26 F26        27.5040   58.4720   -6.4460 F         1 ELW        -0.1912
     27 C27        28.6450   56.5980   -5.7070 C.ar      1 ELW        -0.0286
     28 C28        30.0870   49.3640    1.5270 C.2       1 ELW         0.2431
     29 O29        28.8780   49.3850    1.3800 O.2       1 ELW        -0.3404
     30 H1         32.7397   49.8080    3.1830 H         1 ELW         0.0310
     31 H2         32.8685   50.7922    1.6858 H         1 ELW         0.0310
     32 H3         29.9966   53.2533   -1.1807 H         1 ELW         0.0674
     33 H4         29.0873   57.2081    1.4934 H         1 ELW         0.0794
     34 H5         29.6946   55.1423    2.6387 H         1 ELW         0.0647
     35 H6         32.7466   47.8918    1.9464 H         1 ELW         0.0523
     36 H7         32.9441   48.8737    0.4552 H         1 ELW         0.0523
     37 H8         29.5182   47.3492    0.0462 H         1 ELW         0.0488
     38 H9         30.9220   46.4220    0.6756 H         1 ELW         0.0488
     39 H10        31.1052   47.4446   -0.7898 H         1 ELW         0.0488
     40 H11        30.8678   50.8677    4.2027 H         1 ELW         0.2090
     41 H12        30.9197   51.8650   -5.7702 H         1 ELW         0.1807
     42 H13        30.4080   52.2798   -4.1683 H         1 ELW         0.1807
     43 H14        27.9841   57.7942   -2.0380 H         1 ELW         0.0570
     44 H15        27.1729   59.1029   -3.9856 H         1 ELW         0.0580
     45 H16        28.8232   56.2740   -6.7260 H         1 ELW         0.0571
@<TRIPOS>BOND
     1    3    1 1  
     2    1   11 1  
     3    7    2 ar 
     4    2    9 ar 
     5    5    3 1  
     6    3   13 1  
     7    3   28 1  
     8    8    4 ar 
     9    4   14 ar 
    10    6    5 3  
    11    7    6 1  
    12    7    8 ar 
    13    9   14 ar 
    14    9   15 1  
    15   11   10 1  
    16   10   12 1  
    17   10   28 am 
    18   15   16 1  
    19   15   22 1  
    20   16   17 2  
    21   17   18 1  
    22   17   21 1  
    23   18   19 am 
    24   18   20 2  
    25   21   22 ar 
    26   21   27 ar 
    27   22   23 ar 
    28   23   24 ar 
    29   24   25 ar 
    30   25   26 1  
    31   25   27 ar 
    32   28   29 2  
    33    1   30 1  
    34    1   31 1  
    35    2   32 1  
    36    4   33 1  
    37    8   34 1  
    38   11   35 1  
    39   11   36 1  
    40   12   37 1  
    41   12   38 1  
    42   12   39 1  
    43   13   40 1  
    44   19   41 1  
    45   19   42 1  
    46   23   43 1  
    47   24   44 1  
    48   27   45 1  
@<TRIPOS>SUBSTRUCTURE
     1 ELW         1

