### 
### Created by X-TOOL on Wed Jan  1 15:39:37 2020
### 

@<TRIPOS>MOLECULE
6g5j_ligand
   45    47     1     0     0
SMALL
GAST_HUCK


@<TRIPOS>ATOM
      1 C1         -4.2290    1.2170   -0.8940 C.3       1 EM8        -0.0512
      2 C2         -4.7520    0.7330    0.4570 C.3       1 EM8        -0.0006
      3 C3         -4.3810    1.7630    1.5270 C.3       1 EM8         0.0123
      4 O5         -6.3350    1.4630    2.8510 O.co2     1 EM8        -0.5688
      5 C7         -4.1170   -0.6150    0.6860 C.ar      1 EM8        -0.0447
      6 C8         -4.8850   -1.7740    0.6360 C.ar      1 EM8        -0.0684
      7 C9         -4.2990   -3.0140    0.8360 C.ar      1 EM8        -0.0743
      8 C10        -2.9380   -3.1140    1.0800 C.ar      1 EM8        -0.0372
      9 C11        -2.1710   -1.9550    1.1350 C.ar      1 EM8         0.0822
     10 C12        -2.7610   -0.7130    0.9220 C.ar      1 EM8        -0.0290
     11 C14         0.1350   -2.6220    0.5700 C.ar      1 EM8         0.0777
     12 C15         0.0310   -3.4450   -0.5520 C.ar      1 EM8        -0.0091
     13 C16         1.1840   -3.9660   -1.1140 C.ar      1 EM8         0.0909
     14 C19         1.4090   -2.3340    1.1040 C.ar      1 EM8        -0.0214
     15 C20         1.2150   -1.4890    2.2180 C.2       1 EM8        -0.0415
     16 C21        -0.1200   -1.2760    2.3400 C.2       1 EM8         0.1436
     17 C22        -0.7490   -0.4560    3.3800 C.2       1 EM8         0.2221
     18 C4         -5.1280    1.5160    2.8120 C.2       1 EM8         0.0370
     19 O6         -4.4570    1.3660    3.9560 O.co2     1 EM8        -0.5688
     20 N13        -0.7890   -1.9700    1.3520 N.pl3     1 EM8        -0.2155
     21 C17         2.4360   -3.6650   -0.5860 C.ar      1 EM8        -0.0428
     22 C18         2.5550   -2.8720    0.5140 C.ar      1 EM8        -0.0742
     23 O23        -1.7210   -0.8860    3.9940 O.2       1 EM8        -0.3876
     24 N24        -0.2430    0.7580    3.6600 N.am      1 EM8        -0.2998
     25 O25         1.1430   -4.7710   -2.2100 O.3       1 EM8        -0.2302
     26 C26        -0.0570   -5.4530   -2.5320 C.3       1 EM8         0.5458
     27 F27         0.2360   -6.3890   -3.5220 F         1 EM8        -0.1400
     28 F28        -0.9880   -4.5340   -3.0010 F         1 EM8        -0.1400
     29 F29        -0.5480   -6.1140   -1.4100 F         1 EM8        -0.1400
     30 H1         -4.6586    2.2038   -1.1213 H         1 EM8         0.0255
     31 H2         -4.5195    0.5015   -1.6774 H         1 EM8         0.0255
     32 H3         -3.1324    1.2944   -0.8563 H         1 EM8         0.0255
     33 H4         -5.8463    0.6244    0.4290 H         1 EM8         0.0475
     34 H5         -4.6291    2.7686    1.1567 H         1 EM8         0.0455
     35 H6         -3.3005    1.7010    1.7238 H         1 EM8         0.0455
     36 H7         -5.9489   -1.7068    0.4393 H         1 EM8         0.0486
     37 H8         -4.9080   -3.9101    0.8015 H         1 EM8         0.0578
     38 H9         -2.4769   -4.0841    1.2262 H         1 EM8         0.0513
     39 H10        -2.1516    0.1833    0.9416 H         1 EM8         0.0505
     40 H11        -0.9394   -3.6733   -0.9778 H         1 EM8         0.0463
     41 H12         1.9937   -1.0825    2.8616 H         1 EM8         0.0402
     42 H13         3.3265   -4.0666   -1.0560 H         1 EM8         0.0483
     43 H14         3.5333   -2.6593    0.9296 H         1 EM8         0.0550
     44 H15        -0.6652    1.3246    4.3677 H         1 EM8         0.1803
     45 H16         0.5554    1.0942    3.1606 H         1 EM8         0.1803
@<TRIPOS>BOND
     1    2    1 1  
     2    2    3 1  
     3    5    2 1  
     4    3   18 1  
     5   18    4 ar 
     6    5    6 ar 
     7   10    5 ar 
     8    7    6 ar 
     9    8    7 ar 
    10    9    8 ar 
    11    9   10 ar 
    12   20    9 1  
    13   11   12 ar 
    14   11   14 ar 
    15   11   20 1  
    16   12   13 ar 
    17   13   21 ar 
    18   13   25 1  
    19   14   15 1  
    20   14   22 ar 
    21   15   16 2  
    22   16   17 1  
    23   16   20 1  
    24   17   23 2  
    25   17   24 am 
    26   18   19 ar 
    27   21   22 ar 
    28   25   26 1  
    29   26   27 1  
    30   26   28 1  
    31   26   29 1  
    32    1   30 1  
    33    1   31 1  
    34    1   32 1  
    35    2   33 1  
    36    3   34 1  
    37    3   35 1  
    38    6   36 1  
    39    7   37 1  
    40    8   38 1  
    41   10   39 1  
    42   12   40 1  
    43   15   41 1  
    44   21   42 1  
    45   22   43 1  
    46   24   44 1  
    47   24   45 1  
@<TRIPOS>SUBSTRUCTURE
     1 EM8         1

