### 
### Created by X-TOOL on Mon Aug  2 16:13:28 2021
### 

@<TRIPOS>MOLECULE
6g5l_ligand
   46    47     1     0     0
SMALL
GAST_HUCK


@<TRIPOS>ATOM
      1 C6         25.7250    4.0790    9.2920 C.ar      1 EM5         0.0601
      2 C7         26.5580    5.1770    9.5700 C.ar      1 EM5        -0.0225
      3 C8         26.4490    5.8110   10.8040 C.ar      1 EM5         0.0600
      4 C9         25.4380    5.4310   11.7180 C.ar      1 EM5         0.0687
      5 C10        24.6040    4.3700   11.3610 C.ar      1 EM5        -0.0263
      6 C12        25.3300    6.0900   13.0170 C.2       1 EM5         0.1968
      7 C2         24.7000    3.6880   10.1940 C.ar      1 EM5         0.1141
      8 N5         22.6600    2.1470   11.0940 N.am      1 EM5        -0.2622
      9 C15        24.1230    7.3450   14.6250 C.3       1 EM5         0.0532
     10 C16        23.1320    6.8160   15.5230 C.3       1 EM5         0.0642
     11 O13        26.3380    6.1470   13.8140 O.2       1 EM5        -0.3921
     12 N14        24.2340    6.6020   13.3930 N.am      1 EM5        -0.2862
     13 O17        23.7070    5.7010   16.1160 O.3       1 EM5        -0.3930
     14 S1         23.6860    2.2810    9.8890 S.o2      1 EM5         0.0616
     15 O4         22.9660    2.5270    8.6490 O.2       1 EM5        -0.1520
     16 O3         24.6030    1.1690    9.9080 O.2       1 EM5        -0.1520
     17 CL1        25.9200    3.2980    7.7840 Cl        1 EM5        -0.0681
     18 N18        27.2380    6.9180   11.0960 N.pl3     1 EM5        -0.3155
     19 C19        28.2070    7.4710   10.1380 C.3       1 EM5         0.0365
     20 C23        28.5140    8.8960   10.5430 C.3       1 EM5        -0.0303
     21 C24        29.5130    9.5560    9.6750 C.3       1 EM5        -0.0510
     22 C22        30.7760    8.7410    9.6140 C.3       1 EM5        -0.0529
     23 C21        30.4860    7.2880    9.2220 C.3       1 EM5        -0.0510
     24 C20        29.4920    6.6470   10.1530 C.3       1 EM5        -0.0303
     25 H1         27.2743    5.5244    8.8343 H         1 EM5         0.0533
     26 H2         23.8314    4.0732   12.0610 H         1 EM5         0.0653
     27 H3         21.9939    1.4012   11.1030 H         1 EM5         0.1633
     28 H4         22.6801    2.8085   11.8437 H         1 EM5         0.1633
     29 H5         25.0988    7.3267   15.1324 H         1 EM5         0.0541
     30 H6         23.8551    8.3840   14.3827 H         1 EM5         0.0541
     31 H7         22.2273    6.5290   14.9671 H         1 EM5         0.0577
     32 H8         22.8713    7.5631   16.2871 H         1 EM5         0.0577
     33 H9         23.4226    6.4880   12.8197 H         1 EM5         0.1840
     34 H10        23.9343    5.0685   15.4447 H         1 EM5         0.2095
     35 H11        27.1401    7.3674   12.0176 H         1 EM5         0.1784
     36 H12        27.7759    7.4565    9.1261 H         1 EM5         0.0551
     37 H13        28.8989    8.8895   11.5734 H         1 EM5         0.0287
     38 H14        27.5810    9.4774   10.5037 H         1 EM5         0.0287
     39 H15        29.7439   10.5520   10.0807 H         1 EM5         0.0266
     40 H16        29.0996    9.6599    8.6610 H         1 EM5         0.0266
     41 H17        31.2592    8.7554   10.6021 H         1 EM5         0.0265
     42 H18        31.4524    9.1845    8.8685 H         1 EM5         0.0265
     43 H19        31.4250    6.7159    9.2546 H         1 EM5         0.0266
     44 H20        30.0803    7.2689    8.1997 H         1 EM5         0.0266
     45 H21        29.2783    5.6215    9.8174 H         1 EM5         0.0287
     46 H22        29.9033    6.6209   11.1729 H         1 EM5         0.0287
@<TRIPOS>BOND
     1    2    1 ar 
     2    7    1 ar 
     3    1   17 1  
     4    3    2 ar 
     5    4    3 ar 
     6    3   18 1  
     7    4    5 ar 
     8    6    4 1  
     9    5    7 ar 
    10    6   11 2  
    11   12    6 am 
    12    7   14 1  
    13   14    8 am 
    14    9   10 1  
    15    9   12 1  
    16   10   13 1  
    17   14   15 2  
    18   14   16 2  
    19   18   19 1  
    20   19   20 1  
    21   19   24 1  
    22   20   21 1  
    23   21   22 1  
    24   22   23 1  
    25   23   24 1  
    26    2   25 1  
    27    5   26 1  
    28    8   27 1  
    29    8   28 1  
    30    9   29 1  
    31    9   30 1  
    32   10   31 1  
    33   10   32 1  
    34   12   33 1  
    35   13   34 1  
    36   18   35 1  
    37   19   36 1  
    38   20   37 1  
    39   20   38 1  
    40   21   39 1  
    41   21   40 1  
    42   22   41 1  
    43   22   42 1  
    44   23   43 1  
    45   23   44 1  
    46   24   45 1  
    47   24   46 1  
@<TRIPOS>SUBSTRUCTURE
     1 EM5         1

