### 
### Created by X-TOOL on Mon Aug  2 16:13:28 2021
### 

@<TRIPOS>MOLECULE
6g5u_ligand
   33    33     1     0     0
SMALL
GAST_HUCK


@<TRIPOS>ATOM
      1 C5         20.4710    1.2680  -16.3980 C.ar      1 ENN        -0.0146
      2 C4         19.9420    0.1410  -17.0210 C.ar      1 ENN         0.0653
      3 C6         20.7460    2.3980  -17.0810 C.ar      1 ENN         0.1273
      4 C2         20.0770    1.3250  -19.1160 C.ar      1 ENN        -0.0264
      5 O14        18.8750   -0.8170  -15.1550 O.2       1 ENN        -0.3848
      6 C13        19.5990   -1.0080  -16.1570 C.2       1 ENN         0.2052
      7 N15        19.9980   -2.2220  -16.4840 N.am      1 ENN        -0.2862
      8 C16        19.6650   -3.3480  -15.5900 C.3       1 ENN         0.0304
      9 C17        20.0630   -4.6580  -16.2200 C.3       1 ENN        -0.0330
     10 C18        18.8770   -5.2150  -16.9920 C.3       1 ENN        -0.0541
     11 C19        17.8590   -5.8520  -16.0500 C.3       1 ENN        -0.0652
     12 C3         19.7850    0.1760  -18.3870 C.ar      1 ENN         0.0610
     13 CL1        19.1520   -1.1880  -19.3180 Cl        1 ENN        -0.0647
     14 C1         20.5730    2.4340  -18.4760 C.ar      1 ENN         0.0720
     15 CL2        20.9190    3.8790  -19.3740 Cl        1 ENN        -0.0646
     16 S7         21.3730    3.8070  -16.1180 S.o2      1 ENN         0.0674
     17 O9         22.5820    4.2750  -16.8260 O.2       1 ENN        -0.1504
     18 O10        20.3250    4.8330  -16.0780 O.2       1 ENN        -0.1504
     19 N8         21.7980    3.5200  -14.5430 N.am      1 ENN        -0.2608
     20 H1         20.6677    1.2364  -15.3325 H         1 ENN         0.0688
     21 H2         19.9131    1.3444  -20.1874 H         1 ENN         0.0641
     22 H3         20.5178   -2.3769  -17.3242 H         1 ENN         0.1844
     23 H4         18.5814   -3.3518  -15.4009 H         1 ENN         0.0519
     24 H5         20.2029   -3.2259  -14.6383 H         1 ENN         0.0519
     25 H6         20.3598   -5.3697  -15.4355 H         1 ENN         0.0285
     26 H7         20.9070   -4.4960  -16.9066 H         1 ENN         0.0285
     27 H8         19.2352   -5.9756  -17.7014 H         1 ENN         0.0263
     28 H9         18.3921   -4.3971  -17.5451 H         1 ENN         0.0263
     29 H10        17.0143   -6.2452  -16.6347 H         1 ENN         0.0230
     30 H11        17.4929   -5.0957  -15.3401 H         1 ENN         0.0230
     31 H12        18.3360   -6.6742  -15.4964 H         1 ENN         0.0230
     32 H13        22.1478    4.2655  -13.9757 H         1 ENN         0.1635
     33 H14        21.7048    2.6012  -14.1594 H         1 ENN         0.1635
@<TRIPOS>BOND
     1    1    2 ar 
     2    1    3 ar 
     3    2    6 1  
     4    2   12 ar 
     5    3   14 ar 
     6    3   16 1  
     7   12    4 ar 
     8    4   14 ar 
     9    6    5 2  
    10    6    7 am 
    11    7    8 1  
    12    8    9 1  
    13    9   10 1  
    14   10   11 1  
    15   12   13 1  
    16   14   15 1  
    17   16   17 2  
    18   16   18 2  
    19   16   19 am 
    20    1   20 1  
    21    4   21 1  
    22    7   22 1  
    23    8   23 1  
    24    8   24 1  
    25    9   25 1  
    26    9   26 1  
    27   10   27 1  
    28   10   28 1  
    29   11   29 1  
    30   11   30 1  
    31   11   31 1  
    32   19   32 1  
    33   19   33 1  
@<TRIPOS>SUBSTRUCTURE
     1 ENN         1

