### 
### Created by X-TOOL on Mon Aug  2 16:13:28 2021
### 

@<TRIPOS>MOLECULE
6g6t_ligand
   33    33     1     0     0
SMALL
GAST_HUCK


@<TRIPOS>ATOM
      1 C5         -4.8430    1.8610   14.5960 C.ar      1 ENN        -0.0146
      2 C4         -4.6210    2.9000   13.6900 C.ar      1 ENN         0.0653
      3 C6         -5.5150    2.0820   15.8110 C.ar      1 ENN         0.1273
      4 C2         -5.6310    4.4620   15.2520 C.ar      1 ENN        -0.0264
      5 O14        -4.5900    3.0220   11.3180 O.2       1 ENN        -0.3848
      6 C13        -3.9960    2.6610   12.4200 C.2       1 ENN         0.2052
      7 N15        -2.9150    1.9760   12.3830 N.am      1 ENN        -0.2862
      8 C16        -2.1080    1.6970   11.1500 C.3       1 ENN         0.0304
      9 C17        -0.8370    2.5460   11.1180 C.3       1 ENN        -0.0330
     10 C18        -1.2670    4.0240   11.1040 C.3       1 ENN        -0.0541
     11 C19         0.0680    4.9080   11.2880 C.3       1 ENN        -0.0652
     12 C3         -5.0070    4.1880   14.0410 C.ar      1 ENN         0.0610
     13 CL1        -4.5290    5.5150   13.1110 Cl        1 ENN        -0.0647
     14 C1         -5.8660    3.4120   16.1270 C.ar      1 ENN         0.0720
     15 CL2        -6.6850    3.7780   17.6010 Cl        1 ENN        -0.0646
     16 S7         -5.9300    0.7190   16.8580 S.o2      1 ENN         0.0674
     17 O9         -5.2860    0.9700   18.1260 O.2       1 ENN        -0.1504
     18 O10        -7.3720    0.7110   16.8370 O.2       1 ENN        -0.1504
     19 N8         -5.3490   -0.5870   16.1770 N.am      1 ENN        -0.2608
     20 H1         -4.4902    0.8641   14.3578 H         1 ENN         0.0688
     21 H2         -5.9273    5.4731   15.5069 H         1 ENN         0.0641
     22 H3         -2.5818    1.5963   13.2460 H         1 ENN         0.1844
     23 H4         -2.7162    1.9279   10.2630 H         1 ENN         0.0519
     24 H5         -1.8293    0.6330   11.1366 H         1 ENN         0.0519
     25 H6         -0.2545    2.3160   10.2137 H         1 ENN         0.0285
     26 H7         -0.2262    2.3412   12.0096 H         1 ENN         0.0285
     27 H8         -1.9668    4.2212   11.9295 H         1 ENN         0.0263
     28 H9         -1.7514    4.2670   10.1467 H         1 ENN         0.0263
     29 H10        -0.1959    5.9759   11.2835 H         1 ENN         0.0230
     30 H11         0.7632    4.6987   10.4616 H         1 ENN         0.0230
     31 H12         0.5478    4.6529   12.2444 H         1 ENN         0.0230
     32 H13        -5.4764   -1.4776   16.6137 H         1 ENN         0.1635
     33 H14        -4.8547   -0.5213   15.3102 H         1 ENN         0.1635
@<TRIPOS>BOND
     1    1    2 ar 
     2    1    3 ar 
     3    2    6 1  
     4    2   12 ar 
     5    3   14 ar 
     6    3   16 1  
     7   12    4 ar 
     8    4   14 ar 
     9    6    5 2  
    10    6    7 am 
    11    7    8 1  
    12    8    9 1  
    13    9   10 1  
    14   10   11 1  
    15   12   13 1  
    16   14   15 1  
    17   16   17 2  
    18   16   18 2  
    19   16   19 am 
    20    1   20 1  
    21    4   21 1  
    22    7   22 1  
    23    8   23 1  
    24    8   24 1  
    25    9   25 1  
    26    9   26 1  
    27   10   27 1  
    28   10   28 1  
    29   11   29 1  
    30   11   30 1  
    31   11   31 1  
    32   19   32 1  
    33   19   33 1  
@<TRIPOS>SUBSTRUCTURE
     1 ENN         1

