### 
### Created by X-TOOL on Wed Jan  1 15:39:38 2020
### 

@<TRIPOS>MOLECULE
6g6w_ligand
   67    72     1     0     0
SMALL
GAST_HUCK


@<TRIPOS>ATOM
      1 C1         35.4260   10.4890   28.4430 C.3       1 EO5         0.0787
      2 C6         33.8740   10.7430   31.1190 C.ar      1 EO5         0.0477
      3 C7         34.1580   12.0510   31.3710 C.ar      1 EO5        -0.0587
      4 C8         33.1680   12.9500   31.6420 C.ar      1 EO5        -0.0630
      5 C12        32.5560   10.2820   31.1100 C.ar      1 EO5        -0.0237
      6 C16        34.6940   16.2690   32.4000 C.ar      1 EO5         0.1398
      7 C18        36.7120   16.5420   33.4550 C.ar      1 EO5         0.0510
      8 C24        37.1770   11.0170   34.2880 C.3       1 EO5        -0.0235
      9 C30        41.1680   12.1480   29.7800 C.2       1 EO5        -0.0498
     10 C31        42.6260   12.4630   29.5520 C.3       1 EO5        -0.0478
     11 C32        40.4490   12.3470   30.9330 C.2       1 EO5         0.1505
     12 C33        40.7810   12.8960   32.2480 C.2       1 EO5         0.2660
     13 C36        40.1170   13.4930   34.4270 C.ar      1 EO5         0.1022
     14 C37        40.6510   12.6600   35.4130 C.ar      1 EO5        -0.0323
     15 C38        40.9670   13.1960   36.6460 C.ar      1 EO5        -0.0719
     16 C39        40.7540   14.5510   36.8930 C.ar      1 EO5        -0.0742
     17 C40        40.2250   15.3800   35.9120 C.ar      1 EO5        -0.0719
     18 S2         35.4700    9.1730   29.6770 S.o2      1 EO5         0.0569
     19 O3         34.3980    8.2330   29.6100 O.2       1 EO5        -0.1502
     20 O4         36.8010    8.8110   30.0020 O.2       1 EO5        -0.1502
     21 N5         35.0450   10.0180   30.9770 N.am      1 EO5        -0.1959
     22 C9         31.8410   12.5280   31.6170 C.ar      1 EO5        -0.0524
     23 C10        31.5250   11.2010   31.3650 C.ar      1 EO5         0.0666
     24 O11        30.1990   10.8400   31.3640 O.3       1 EO5        -0.3389
     25 C13        33.5810   14.3470   31.8650 C.2       1 EO5        -0.0098
     26 C14        32.8700   15.4120   31.4440 C.2       1 EO5         0.0414
     27 N15        33.5310   16.5540   31.7600 N.pl3     1 EO5        -0.2601
     28 N17        35.6500   17.0570   32.8840 N.ar      1 EO5        -0.2755
     29 N19        36.8620   15.2410   33.5990 N.ar      1 EO5        -0.2722
     30 C20        35.9680   14.3660   33.1530 C.ar      1 EO5         0.1227
     31 N21        36.1850   13.0230   33.3930 N.pl3     1 EO5        -0.2800
     32 C22        37.4270   12.4870   33.9230 C.3       1 EO5         0.1240
     33 C25        38.5130   12.5080   32.8920 C.2       1 EO5         0.1976
     34 N26        38.2000   12.0150   31.7350 N.2       1 EO5        -0.1844
     35 N27        39.1460   11.9320   30.7070 N.pl3     1 EO5        -0.2011
     36 C28        39.0660   11.4640   29.4520 C.2       1 EO5         0.0352
     37 C29        40.2790   11.5880   28.8610 C.2       1 EO5        -0.0762
     38 O34        41.9120   13.2850   32.4880 O.2       1 EO5        -0.3839
     39 N35        39.7900   12.9660   33.1770 N.am      1 EO5        -0.1424
     40 C41        39.9080   14.8500   34.6750 C.ar      1 EO5        -0.0323
     41 C42        34.8050   14.8700   32.5130 C.ar      1 EO5         0.0551
     42 H1         34.3803   10.7436   28.2156 H         1 EO5         0.0487
     43 H2         35.9282   10.1483   27.5255 H         1 EO5         0.0487
     44 H3         35.9426   11.3773   28.8356 H         1 EO5         0.0487
     45 H4         35.1895   12.3839   31.3560 H         1 EO5         0.0341
     46 H5         32.3339    9.2398   30.9110 H         1 EO5         0.0362
     47 H6         37.4884   17.2053   33.8188 H         1 EO5         0.0982
     48 H7         38.1002   10.5779   34.6941 H         1 EO5         0.0282
     49 H8         36.8723   10.4625   33.3882 H         1 EO5         0.0282
     50 H9         36.3795   10.9572   35.0433 H         1 EO5         0.0282
     51 H10        42.9041   12.1878   28.5239 H         1 EO5         0.0331
     52 H11        43.2402   11.8915   30.2634 H         1 EO5         0.0331
     53 H12        42.7965   13.5392   29.7023 H         1 EO5         0.0331
     54 H13        40.8151   11.6073   35.2131 H         1 EO5         0.0536
     55 H14        41.3809   12.5624   37.4221 H         1 EO5         0.0585
     56 H15        41.0045   14.9635   37.8637 H         1 EO5         0.0511
     57 H16        40.0623   16.4324   36.1144 H         1 EO5         0.0585
     58 H17        35.6807   10.0202   31.7490 H         1 EO5         0.2152
     59 H18        31.0470   13.2438   31.7963 H         1 EO5         0.0355
     60 H19        29.7379   11.3342   30.6964 H         1 EO5         0.2474
     61 H20        31.9117   15.3633   30.9290 H         1 EO5         0.0998
     62 H21        33.1972   17.5043   31.5445 H         1 EO5         0.2352
     63 H22        35.4220   12.3634   33.1841 H         1 EO5         0.1898
     64 H23        37.7367   13.0621   34.8081 H         1 EO5         0.0823
     65 H24        38.1726   11.0520   28.9850 H         1 EO5         0.0822
     66 H25        40.5202   11.2989   27.8391 H         1 EO5         0.0257
     67 H26        39.4981   15.4872   33.8997 H         1 EO5         0.0536
@<TRIPOS>BOND
     1   18    1 1  
     2    3    2 ar 
     3    2    5 ar 
     4    2   21 1  
     5    4    3 ar 
     6    4   22 ar 
     7   25    4 1  
     8   23    5 ar 
     9    6   27 1  
    10    6   28 ar 
    11   41    6 ar 
    12    7   28 ar 
    13   29    7 ar 
    14   32    8 1  
    15    9   10 1  
    16   11    9 2  
    17    9   37 1  
    18   12   11 1  
    19   11   35 1  
    20   12   38 2  
    21   39   12 am 
    22   13   14 ar 
    23   39   13 1  
    24   13   40 ar 
    25   14   15 ar 
    26   15   16 ar 
    27   17   16 ar 
    28   40   17 ar 
    29   18   19 2  
    30   18   20 2  
    31   21   18 am 
    32   22   23 ar 
    33   23   24 1  
    34   25   26 2  
    35   41   25 1  
    36   26   27 1  
    37   30   29 ar 
    38   31   30 1  
    39   30   41 ar 
    40   32   31 1  
    41   33   32 1  
    42   33   34 2  
    43   33   39 1  
    44   34   35 1  
    45   35   36 1  
    46   36   37 2  
    47    1   42 1  
    48    1   43 1  
    49    1   44 1  
    50    3   45 1  
    51    5   46 1  
    52    7   47 1  
    53    8   48 1  
    54    8   49 1  
    55    8   50 1  
    56   10   51 1  
    57   10   52 1  
    58   10   53 1  
    59   14   54 1  
    60   15   55 1  
    61   16   56 1  
    62   17   57 1  
    63   21   58 1  
    64   22   59 1  
    65   24   60 1  
    66   26   61 1  
    67   27   62 1  
    68   31   63 1  
    69   32   64 1  
    70   36   65 1  
    71   37   66 1  
    72   40   67 1  
@<TRIPOS>SUBSTRUCTURE
     1 EO5         1

