### 
### Created by X-TOOL on Wed Jan  1 15:39:38 2020
### 

@<TRIPOS>MOLECULE
6g6y_ligand
   37    38     1     0     0
SMALL
GAST_HUCK


@<TRIPOS>ATOM
      1 C10        10.0730   17.9400   -0.5020 C.3       1 EOK         0.1311
      2 C13         9.3750   19.2320   -4.1000 C.3       1 EOK         0.0258
      3 C17         9.1970   16.6210    2.9700 C.2       1 EOK         0.2047
      4 C01        11.9100   15.5770    1.2760 C.3       1 EOK        -0.0480
      5 C02        11.4530   17.0220    1.4550 C.3       1 EOK         0.1340
      6 C03        12.2340   17.6390    2.6630 C.ar      1 EOK        -0.0102
      7 C04        11.8320   18.8500    3.1770 C.ar      1 EOK        -0.0364
      8 C05        12.5430   19.3960    4.2330 C.ar      1 EOK        -0.0323
      9 C06        13.6720   18.7890    4.7580 C.ar      1 EOK        -0.0340
     10 C07        14.0570   17.5450    4.2290 C.ar      1 EOK        -0.0323
     11 C08        13.3540   17.0030    3.1770 C.ar      1 EOK        -0.0364
     12 C12        10.1550   18.8600   -2.8380 C.2       1 EOK         0.1776
     13 C18         7.6680   16.7010    2.8860 C.3       1 EOK         0.0294
     14 N11         9.4300   18.3160   -1.7380 N.am      1 EOK        -0.2362
     15 N15         9.1380   17.3900    0.5150 N.4       1 EOK         0.3849
     16 N16         9.9100   16.9960    1.7770 N.am      1 EOK        -0.2507
     17 O14        11.3250   19.0100   -2.7200 O.2       1 EOK        -0.3972
     18 O19         9.7450   16.2980    3.9710 O.2       1 EOK        -0.3934
     19 S09        11.6600   17.9170    0.1090 S.3       1 EOK        -0.0867
     20 H1          9.9669   18.9798   -0.1591 H         1 EOK         0.1271
     21 H2         10.0675   19.6353   -4.8535 H         1 EOK         0.0467
     22 H3          8.6188   19.9918   -3.8531 H         1 EOK         0.0467
     23 H4          8.8778   18.3365   -4.5011 H         1 EOK         0.0467
     24 H5         12.9862   15.5582    1.0493 H         1 EOK         0.0169
     25 H6         11.3526   15.1161    0.4472 H         1 EOK         0.0169
     26 H7         11.7207   15.0151    2.2025 H         1 EOK         0.0169
     27 H8         10.9742   19.3677    2.7631 H         1 EOK         0.0851
     28 H9         12.2039   20.3312    4.6637 H         1 EOK         0.0698
     29 H10        14.2409   19.2588    5.5522 H         1 EOK         0.0856
     30 H11        14.9044   17.0144    4.6479 H         1 EOK         0.0698
     31 H12        13.6809   16.0647    2.7437 H         1 EOK         0.0851
     32 H13         7.2314   16.3940    3.8478 H         1 EOK         0.0468
     33 H14         7.3090   16.0319    2.0902 H         1 EOK         0.0468
     34 H15         7.3667   17.7345    2.6599 H         1 EOK         0.0468
     35 H16         8.4418   18.1906   -1.8258 H         1 EOK         0.1914
     36 H17         8.6761   16.5769    0.1388 H         1 EOK         0.2307
     37 H18         8.4504   18.0889    0.7489 H         1 EOK         0.2307
@<TRIPOS>BOND
     1   14    1 1  
     2    1   15 1  
     3    1   19 1  
     4   12    2 1  
     5    3   13 1  
     6   16    3 am 
     7    3   18 2  
     8    5    4 1  
     9    5    6 1  
    10    5   16 1  
    11   19    5 1  
    12    6    7 ar 
    13    6   11 ar 
    14    7    8 ar 
    15    8    9 ar 
    16   10    9 ar 
    17   11   10 ar 
    18   12   14 am 
    19   12   17 2  
    20   15   16 1  
    21    1   20 1  
    22    2   21 1  
    23    2   22 1  
    24    2   23 1  
    25    4   24 1  
    26    4   25 1  
    27    4   26 1  
    28    7   27 1  
    29    8   28 1  
    30    9   29 1  
    31   10   30 1  
    32   11   31 1  
    33   13   32 1  
    34   13   33 1  
    35   13   34 1  
    36   14   35 1  
    37   15   36 1  
    38   15   37 1  
@<TRIPOS>SUBSTRUCTURE
     1 EOK         1

