### 
### Created by X-TOOL on Wed Jan  1 15:39:38 2020
### 

@<TRIPOS>MOLECULE
6g6z_ligand
   37    38     1     0     0
SMALL
GAST_HUCK


@<TRIPOS>ATOM
      1 C10       -16.7510  -24.1400    6.2220 C.3       1 EOK         0.1311
      2 C13       -13.9070  -26.2610    4.3930 C.3       1 EOK         0.0258
      3 C17       -18.9050  -21.4010    8.0980 C.2       1 EOK         0.2047
      4 C01       -20.1970  -23.5010    5.8510 C.3       1 EOK        -0.0480
      5 C02       -19.2450  -23.8840    6.9810 C.3       1 EOK         0.1340
      6 C03       -20.1410  -24.3300    8.2140 C.ar      1 EOK        -0.0102
      7 C04       -19.5990  -24.4780    9.4820 C.ar      1 EOK        -0.0364
      8 C05       -20.3750  -24.8420   10.5620 C.ar      1 EOK        -0.0323
      9 C06       -21.7160  -25.0760   10.3700 C.ar      1 EOK        -0.0340
     10 C07       -22.2760  -24.9120    9.1170 C.ar      1 EOK        -0.0323
     11 C08       -21.4900  -24.5460    8.0360 C.ar      1 EOK        -0.0364
     12 C12       -15.2380  -25.8700    5.0440 C.2       1 EOK         0.1776
     13 C18       -17.9860  -20.2110    8.3910 C.3       1 EOK         0.0294
     14 N11       -15.4690  -24.5410    5.5830 N.am      1 EOK        -0.2362
     15 N15       -16.9760  -22.7340    6.8030 N.4       1 EOK         0.3849
     16 N16       -18.4230  -22.5790    7.3780 N.am      1 EOK        -0.2507
     17 O14       -16.1050  -26.6670    5.1100 O.2       1 EOK        -0.3972
     18 O19       -20.0250  -21.3390    8.4810 O.2       1 EOK        -0.3934
     19 S09       -18.1860  -25.0060    6.4710 S.3       1 EOK        -0.0867
     20 H1        -16.3436  -24.5191    7.1709 H         1 EOK         0.1271
     21 H2        -13.9560  -27.3078    4.0585 H         1 EOK         0.0467
     22 H3        -13.0936  -26.1476    5.1248 H         1 EOK         0.0467
     23 H4        -13.7160  -25.6084    3.5284 H         1 EOK         0.0467
     24 H5        -20.7829  -24.3822    5.5507 H         1 EOK         0.0169
     25 H6        -19.6169  -23.1359    4.9907 H         1 EOK         0.0169
     26 H7        -20.8773  -22.7090    6.1973 H         1 EOK         0.0169
     27 H8        -18.5391  -24.3032    9.6276 H         1 EOK         0.0851
     28 H9        -19.9344  -24.9421   11.5474 H         1 EOK         0.0698
     29 H10       -22.3352  -25.3896   11.2026 H         1 EOK         0.0856
     30 H11       -23.3393  -25.0711    8.9787 H         1 EOK         0.0698
     31 H12       -21.9348  -24.4301    7.0543 H         1 EOK         0.0851
     32 H13       -18.5479  -19.4399    8.9384 H         1 EOK         0.0468
     33 H14       -17.6157  -19.7918    7.4439 H         1 EOK         0.0468
     34 H15       -17.1346  -20.5467    9.0012 H         1 EOK         0.0468
     35 H16       -14.7338  -23.8659    5.5218 H         1 EOK         0.1914
     36 H17       -16.8380  -22.0518    6.0739 H         1 EOK         0.2307
     37 H18       -16.3103  -22.5744    7.5428 H         1 EOK         0.2307
@<TRIPOS>BOND
     1   14    1 1  
     2    1   15 1  
     3    1   19 1  
     4   12    2 1  
     5    3   13 1  
     6   16    3 am 
     7    3   18 2  
     8    5    4 1  
     9    5    6 1  
    10    5   16 1  
    11   19    5 1  
    12    6    7 ar 
    13    6   11 ar 
    14    7    8 ar 
    15    8    9 ar 
    16   10    9 ar 
    17   11   10 ar 
    18   12   14 am 
    19   12   17 2  
    20   15   16 1  
    21    1   20 1  
    22    2   21 1  
    23    2   22 1  
    24    2   23 1  
    25    4   24 1  
    26    4   25 1  
    27    4   26 1  
    28    7   27 1  
    29    8   28 1  
    30    9   29 1  
    31   10   30 1  
    32   11   31 1  
    33   13   32 1  
    34   13   33 1  
    35   13   34 1  
    36   14   35 1  
    37   15   36 1  
    38   15   37 1  
@<TRIPOS>SUBSTRUCTURE
     1 EOK         1

