### 
### Created by X-TOOL on Mon Aug  2 16:13:28 2021
### 

@<TRIPOS>MOLECULE
6g7a_ligand
   43    44     1     0     0
SMALL
GAST_HUCK


@<TRIPOS>ATOM
      1 C6         25.6610    3.9690    9.0950 C.ar      1 EOQ         0.0601
      2 C7         26.6000    4.9730    9.3290 C.ar      1 EOQ        -0.0223
      3 C8         26.5450    5.6550   10.4910 C.ar      1 EOQ         0.0616
      4 C9         25.5750    5.3780   11.4810 C.ar      1 EOQ         0.0688
      5 C10        24.5900    4.3810   11.2610 C.ar      1 EOQ        -0.0263
      6 C12        25.5010    6.1790   12.6860 C.2       1 EOQ         0.1968
      7 C2         24.6770    3.6460   10.0570 C.ar      1 EOQ         0.1141
      8 N5         22.5680    2.1410   10.9860 N.am      1 EOQ        -0.2622
      9 C15        24.2690    7.4620   14.2330 C.3       1 EOQ         0.0532
     10 C16        23.4110    6.7880   15.2480 C.3       1 EOQ         0.0642
     11 O13        26.5380    6.4920   13.3310 O.2       1 EOQ        -0.3921
     12 N14        24.3260    6.6120   13.0760 N.am      1 EOQ        -0.2862
     13 O17        24.2010    5.7890   15.8420 O.3       1 EOQ        -0.3930
     14 S1         23.6060    2.2640    9.7800 S.o2      1 EOQ         0.0616
     15 O4         22.8530    2.4630    8.5340 O.2       1 EOQ        -0.1520
     16 O3         24.5100    1.0850    9.8040 O.2       1 EOQ        -0.1520
     17 CL1        25.8630    3.1680    7.6030 Cl        1 EOQ        -0.0681
     18 N18        27.5250    6.6910   10.6460 N.pl3     1 EOQ        -0.3072
     19 C19        28.3680    7.0400    9.4990 C.3       1 EOQ         0.0590
     20 C20        29.0360    8.3580    9.7100 C.ar      1 EOQ        -0.0215
     21 C22        28.3920    9.5820    9.4210 C.ar      1 EOQ        -0.0584
     22 C25        29.0910   10.7840    9.6700 C.ar      1 EOQ        -0.0685
     23 C24        30.3930   10.7490   10.2120 C.ar      1 EOQ        -0.0687
     24 C23        31.0360    9.5450   10.4960 C.ar      1 EOQ        -0.0685
     25 C21        30.3340    8.3440   10.2540 C.ar      1 EOQ        -0.0584
     26 H1         27.3601    5.2010    8.5905 H         1 EOQ         0.0533
     27 H2         23.8053    4.1913   11.9844 H         1 EOQ         0.0653
     28 H3         21.8872    1.4086   10.9870 H         1 EOQ         0.1633
     29 H4         22.5984    2.7964   11.7407 H         1 EOQ         0.1633
     30 H5         25.2807    7.6122   14.6378 H         1 EOQ         0.0541
     31 H6         23.8343    8.4354   13.9618 H         1 EOQ         0.0541
     32 H7         22.5318    6.3384   14.7635 H         1 EOQ         0.0577
     33 H8         23.0810    7.5123   16.0072 H         1 EOQ         0.0577
     34 H9         23.4941    6.3580   12.5825 H         1 EOQ         0.1840
     35 H10        24.4854    5.1740   15.1760 H         1 EOQ         0.2095
     36 H11        27.6341    7.1801   11.5459 H         1 EOQ         0.1807
     37 H12        27.7427    7.0938    8.5956 H         1 EOQ         0.0678
     38 H13        29.1363    6.2639    9.3674 H         1 EOQ         0.0678
     39 H14        27.3858    9.5982    9.0179 H         1 EOQ         0.0557
     40 H15        28.6254   11.7364    9.4439 H         1 EOQ         0.0599
     41 H16        30.9067   11.6822   10.4128 H         1 EOQ         0.0559
     42 H17        32.0454    9.5313   10.8910 H         1 EOQ         0.0599
     43 H18        30.8025    7.3956   10.4911 H         1 EOQ         0.0557
@<TRIPOS>BOND
     1    2    1 ar 
     2    7    1 ar 
     3    1   17 1  
     4    3    2 ar 
     5    4    3 ar 
     6    3   18 1  
     7    4    5 ar 
     8    6    4 1  
     9    5    7 ar 
    10    6   11 2  
    11   12    6 am 
    12    7   14 1  
    13   14    8 am 
    14    9   10 1  
    15    9   12 1  
    16   10   13 1  
    17   14   15 2  
    18   14   16 2  
    19   18   19 1  
    20   19   20 1  
    21   20   21 ar 
    22   20   25 ar 
    23   21   22 ar 
    24   22   23 ar 
    25   23   24 ar 
    26   24   25 ar 
    27    2   26 1  
    28    5   27 1  
    29    8   28 1  
    30    8   29 1  
    31    9   30 1  
    32    9   31 1  
    33   10   32 1  
    34   10   33 1  
    35   12   34 1  
    36   13   35 1  
    37   18   36 1  
    38   19   37 1  
    39   19   38 1  
    40   21   39 1  
    41   22   40 1  
    42   23   41 1  
    43   24   42 1  
    44   25   43 1  
@<TRIPOS>SUBSTRUCTURE
     1 EOQ         1

