### 
### Created by X-TOOL on Wed Jan  1 15:39:36 2020
### 

@<TRIPOS>MOLECULE
6g7f_ligand
   54    53     1     0     0
SMALL
GAST_HUCK


@<TRIPOS>ATOM
      1 C4         62.6030 -136.2810   41.9280 C.3       1 EPW         0.0758
      2 C5         63.7160 -135.3120   41.7910 C.3       1 EPW        -0.0237
      3 C6         63.1680 -134.0660   42.4080 C.3       1 EPW        -0.0600
      4 C7         63.8720 -134.9960   40.3430 C.3       1 EPW        -0.0600
      5 C15        61.2010 -141.7140   41.9460 C.3       1 EPW        -0.0063
      6 C17        61.8900 -141.8680   40.6080 C.3       1 EPW        -0.0584
      7 C21        58.3570 -139.7960   44.9120 C.3       1 EPW         0.0967
      8 C22        57.5790 -138.5260   45.0530 C.3       1 EPW        -0.0118
      9 C24        56.3340 -138.6850   44.2260 C.3       1 EPW        -0.0590
     10 C1         62.5230 -136.7030   43.3710 C.2       1 EPW         0.1072
     11 O3         61.5820 -136.4100   44.0880 O.2       1 EPW        -0.3744
     12 C9         62.8440 -137.4500   41.0150 C.3       1 EPW         0.1619
     13 O10        64.0080 -138.0730   41.4690 O.3       1 EPW        -0.3686
     14 C11        61.6500 -138.3700   41.1240 C.2       1 EPW         0.2099
     15 O12        60.6210 -138.1390   40.5100 O.2       1 EPW        -0.3939
     16 N13        61.7780 -139.4040   41.9190 N.am      1 EPW        -0.2631
     17 C14        60.6710 -140.3180   42.0630 C.3       1 EPW         0.1332
     18 C16        60.0380 -142.6750   42.0630 C.3       1 EPW        -0.0584
     19 C18        60.1570 -140.1630   43.4490 C.2       1 EPW         0.2036
     20 O19        60.9060 -140.2260   44.3930 O.2       1 EPW        -0.3944
     21 N20        58.8840 -139.9500   43.5770 N.am      1 EPW        -0.2692
     22 C25        57.3940 -140.9120   45.1670 C.2       1 EPW         0.0603
     23 O26        56.7520 -141.3530   44.2020 O.co2     1 EPW        -0.5666
     24 O27        57.2930 -141.2850   46.3410 O.co2     1 EPW        -0.5666
     25 C23        57.1330 -138.4350   46.4850 C.3       1 EPW        -0.0590
     26 H1         61.6571 -135.7976   41.6426 H         1 EPW         0.0582
     27 H2         64.6513 -135.6599   42.2538 H         1 EPW         0.0326
     28 H3         63.9247 -133.2691   42.3589 H         1 EPW         0.0234
     29 H4         62.9084 -134.2608   43.4590 H         1 EPW         0.0234
     30 H5         62.2677 -133.7509   41.8602 H         1 EPW         0.0234
     31 H6         64.2749 -135.8743   39.8174 H         1 EPW         0.0234
     32 H7         64.5637 -134.1489   40.2250 H         1 EPW         0.0234
     33 H8         62.8926 -134.7317   39.9178 H         1 EPW         0.0234
     34 H9         61.9223 -141.9094   42.7532 H         1 EPW         0.0343
     35 H10        62.2827 -142.8912   40.5134 H         1 EPW         0.0234
     36 H11        62.7195 -141.1490   40.5378 H         1 EPW         0.0234
     37 H12        61.1688 -141.6759   39.7999 H         1 EPW         0.0234
     38 H13        59.1805 -139.8174   45.6409 H         1 EPW         0.0729
     39 H14        58.1675 -137.6479   44.7487 H         1 EPW         0.0336
     40 H15        55.7263 -137.7710   44.2987 H         1 EPW         0.0234
     41 H16        55.7534 -139.5418   44.5984 H         1 EPW         0.0234
     42 H17        56.6111 -138.8584   43.1757 H         1 EPW         0.0234
     43 H18        63.3371 -137.2926   43.7901 H         1 EPW         0.1354
     44 H19        62.9704 -137.1183   39.9739 H         1 EPW         0.0867
     45 H20        63.8824 -138.3615   42.3654 H         1 EPW         0.2136
     46 H21        62.6306 -139.5573   42.4186 H         1 EPW         0.1884
     47 H22        59.8881 -140.1216   41.3156 H         1 EPW         0.0802
     48 H23        60.4063 -143.7082   41.9795 H         1 EPW         0.0234
     49 H24        59.3161 -142.4769   41.2571 H         1 EPW         0.0234
     50 H25        59.5463 -142.5387   43.0375 H         1 EPW         0.0234
     51 H26        58.2869 -139.8943   42.7767 H         1 EPW         0.1875
     52 H27        58.0118 -138.3170   47.1359 H         1 EPW         0.0234
     53 H28        56.5936 -139.3533   46.7601 H         1 EPW         0.0234
     54 H29        56.4671 -137.5680   46.6073 H         1 EPW         0.0234
@<TRIPOS>BOND
     1    1    2 1  
     2    1   10 1  
     3   12    1 1  
     4    2    3 1  
     5    2    4 1  
     6    5    6 1  
     7   17    5 1  
     8    5   18 1  
     9    7    8 1  
    10   21    7 1  
    11    7   22 1  
    12    8    9 1  
    13    8   25 1  
    14   10   11 2  
    15   12   13 1  
    16   14   12 1  
    17   14   15 2  
    18   16   14 am 
    19   17   16 1  
    20   19   17 1  
    21   19   20 2  
    22   19   21 am 
    23   22   23 ar 
    24   22   24 ar 
    25    1   26 1  
    26    2   27 1  
    27    3   28 1  
    28    3   29 1  
    29    3   30 1  
    30    4   31 1  
    31    4   32 1  
    32    4   33 1  
    33    5   34 1  
    34    6   35 1  
    35    6   36 1  
    36    6   37 1  
    37    7   38 1  
    38    8   39 1  
    39    9   40 1  
    40    9   41 1  
    41    9   42 1  
    42   10   43 1  
    43   12   44 1  
    44   13   45 1  
    45   16   46 1  
    46   17   47 1  
    47   18   48 1  
    48   18   49 1  
    49   18   50 1  
    50   21   51 1  
    51   25   52 1  
    52   25   53 1  
    53   25   54 1  
@<TRIPOS>SUBSTRUCTURE
     1 EPW         1

