### 
### Created by X-TOOL on Wed Jan  1 15:39:38 2020
### 

@<TRIPOS>MOLECULE
6g84_ligand
  107   109     1     0     0
SMALL
GAST_HUCK


@<TRIPOS>ATOM
      1 N          19.1620  -61.0790   20.5110 N.4       1 VAL         0.2381
      2 CA         19.1100  -60.3610   19.2430 C.3       1 VAL         0.0675
      3 C          18.4980  -61.2420   18.1600 C.2       1 VAL         0.2295
      4 O          19.0830  -62.2530   17.7710 O.2       1 VAL        -0.3905
      5 CB         20.5070  -59.8730   18.8210 C.3       1 VAL         0.0139
      6 CG1        20.4330  -59.1500   17.4850 C.3       1 VAL        -0.0553
      7 CG2        21.0990  -58.9690   19.8920 C.3       1 VAL        -0.0553
      8 N          17.3170  -60.8610   17.6780 N.am      1 PRO        -0.2471
      9 CA         16.6650  -61.6420   16.6230 C.3       1 PRO         0.1339
     10 C          17.4630  -61.6130   15.3290 C.2       1 PRO         0.2041
     11 O          18.0980  -60.6140   14.9810 O.2       1 PRO        -0.3944
     12 CB         15.3070  -60.9500   16.4530 C.3       1 PRO        -0.0104
     13 CG         15.0970  -60.1990   17.7310 C.3       1 PRO        -0.0281
     14 CD         16.4620  -59.7650   18.1630 C.3       1 PRO         0.0371
     15 N          17.4200  -62.7330   14.6120 N.am      1 ALA        -0.2640
     16 CA         18.1380  -62.8760   13.3470 C.3       1 ALA         0.1282
     17 C          17.3820  -62.1140   12.2670 C.2       1 ALA         0.2036
     18 O          16.3940  -62.6050   11.7160 O.2       1 ALA        -0.3944
     19 CB         18.2950  -64.3480   12.9820 C.3       1 ALA        -0.0244
     20 N          17.8460  -60.9040   11.9630 N.am      1 LEU        -0.2637
     21 CA         17.2510  -60.0560   10.9370 C.3       1 LEU         0.1312
     22 C          18.3010  -59.6300    9.9220 C.2       1 LEU         0.2039
     23 O          18.3030  -58.4940    9.4390 O.2       1 LEU        -0.3944
     24 CB         16.5760  -58.8360   11.5590 C.3       1 LEU        -0.0101
     25 CG         15.4380  -59.1040   12.5450 C.3       1 LEU        -0.0425
     26 CD1        14.8740  -57.7950   13.0750 C.3       1 LEU        -0.0625
     27 CD2        14.3470  -59.9370   11.8930 C.3       1 LEU        -0.0625
     28 N          19.2130  -60.5380    9.5850 N.am      1 ASN        -0.2640
     29 CA         20.2480  -60.2320    8.6130 C.3       1 ASN         0.1282
     30 C          19.6520  -60.1260    7.2120 C.2       1 ASN         0.2037
     31 O          18.5710  -60.6490    6.9230 O.2       1 ASN        -0.3944
     32 CB         21.3430  -61.2990    8.6410 C.3       1 ASN        -0.0244
     33 N          20.3730  -59.4360    6.3370 N.am      1 TYR        -0.2621
     34 CA         19.8990  -59.2310    4.9730 C.3       1 TYR         0.1392
     35 C          20.0550  -60.5180    4.1700 C.2       1 TYR         0.2077
     36 O          21.1560  -61.0760    4.1170 O.2       1 TYR        -0.3940
     37 CB         20.6660  -58.0960    4.3030 C.3       1 TYR         0.0164
     38 CG         20.0680  -57.6400    2.9910 C.ar      1 TYR        -0.0493
     39 CD1        19.0460  -56.7000    2.9630 C.ar      1 TYR        -0.0685
     40 CD2        20.5260  -58.1460    1.7800 C.ar      1 TYR        -0.0685
     41 CE1        18.4950  -56.2780    1.7680 C.ar      1 TYR        -0.0398
     42 CE2        19.9810  -57.7290    0.5790 C.ar      1 TYR        -0.0398
     43 CZ         18.9650  -56.7950    0.5800 C.ar      1 TYR         0.0805
     44 OH         18.4180  -56.3750   -0.6120 O.3       1 TYR        -0.3376
     45 N          18.9770  -61.0280    3.5500 N.am      1 PRO        -0.2554
     46 CA         18.9410  -62.2360    2.7160 C.3       1 PRO         0.0972
     47 C          20.1370  -62.3750    1.7760 C.2       1 PRO         0.0603
     48 O          20.3520  -61.4940    0.9430 O.co2     1 PRO        -0.5666
     49 CB         17.6510  -62.0620    1.9080 C.3       1 PRO        -0.0159
     50 CG         16.8040  -61.0920    2.6920 C.3       1 PRO        -0.0288
     51 CD         17.6240  -60.5080    3.8080 C.3       1 PRO         0.0362
     52 OXT        20.8630  -63.3650    1.8700 O.co2     1 PRO        -0.5666
     53 H1         18.2351  -61.3859   20.7616 H         1 VAL         0.2015
     54 H2         19.5191  -60.4680   21.2288 H         1 VAL         0.2015
     55 H3         19.7676  -61.8795   20.4193 H         1 VAL         0.2015
     56 H4         18.4658  -59.4792   19.3748 H         1 VAL         0.1101
     57 H5         21.1621  -60.7491   18.7057 H         1 VAL         0.0376
     58 H6         21.4380  -58.8077   17.1972 H         1 VAL         0.0236
     59 H7         19.7618  -58.2830   17.5739 H         1 VAL         0.0236
     60 H8         20.0458  -59.8364   16.7176 H         1 VAL         0.0236
     61 H9         21.1425  -59.5124   20.8474 H         1 VAL         0.0236
     62 H10        20.4684  -58.0751   20.0070 H         1 VAL         0.0236
     63 H11        22.1142  -58.6660   19.5960 H         1 VAL         0.0236
     64 H12        16.5321  -62.6867   16.9405 H         1 PRO         0.0802
     65 H13        14.5095  -61.6930   16.3048 H         1 PRO         0.0313
     66 H14        15.3285  -60.2595   15.5970 H         1 PRO         0.0313
     67 H15        14.6417  -60.8512   18.4908 H         1 PRO         0.0287
     68 H16        14.4503  -59.3253   17.5626 H         1 PRO         0.0287
     69 H17        16.7404  -58.8084   17.6968 H         1 PRO         0.0524
     70 H18        16.5206  -59.6704   19.2573 H         1 PRO         0.0524
     71 H19        16.8783  -63.5027   14.9499 H         1 ALA         0.1883
     72 H20        19.1406  -62.4363   13.4543 H         1 ALA         0.0797
     73 H21        18.8369  -64.4335   12.0286 H         1 ALA         0.0277
     74 H22        17.3013  -64.8089   12.8815 H         1 ALA         0.0277
     75 H23        18.8601  -64.8636   13.7725 H         1 ALA         0.0277
     76 H24        18.6411  -60.5600   12.4625 H         1 LEU         0.1883
     77 H25        16.4823  -60.6416   10.4116 H         1 LEU         0.0800
     78 H26        16.1686  -58.2269   10.7386 H         1 LEU         0.0315
     79 H27        17.3495  -58.2634   12.0917 H         1 LEU         0.0315
     80 H28        15.8441  -59.6733   13.3941 H         1 LEU         0.0298
     81 H29        14.0579  -58.0068   13.7815 H         1 LEU         0.0232
     82 H30        14.4874  -57.1963   12.2371 H         1 LEU         0.0232
     83 H31        15.6686  -57.2351   13.5898 H         1 LEU         0.0232
     84 H32        14.7781  -60.8770   11.5181 H         1 LEU         0.0232
     85 H33        13.9079  -59.3752   11.0554 H         1 LEU         0.0232
     86 H34        13.5653  -60.1618   12.6336 H         1 LEU         0.0232
     87 H35        19.1856  -61.4442   10.0069 H         1 ASN         0.1883
     88 H36        20.6974  -59.2631    8.8760 H         1 ASN         0.0797
     89 H37        22.1164  -61.0502    7.8994 H         1 ASN         0.0277
     90 H38        20.9060  -62.2793    8.4002 H         1 ASN         0.0277
     91 H39        21.7944  -61.3350    9.6435 H         1 ASN         0.0277
     92 H40        21.2528  -59.0516    6.6166 H         1 TYR         0.1885
     93 H41        18.8329  -58.9623    5.0071 H         1 TYR         0.0821
     94 H42        21.6944  -58.4377    4.1141 H         1 TYR         0.0453
     95 H43        20.6852  -57.2380    4.9911 H         1 TYR         0.0453
     96 H44        18.6740  -56.2901    3.8950 H         1 TYR         0.0530
     97 H45        21.3238  -58.8799    1.7768 H         1 TYR         0.0530
     98 H46        17.6972  -55.5441    1.7650 H         1 TYR         0.0525
     99 H47        20.3495  -58.1332   -0.3569 H         1 TYR         0.0525
    100 H48        17.7364  -55.7364   -0.4388 H         1 TYR         0.2458
    101 H49        18.8865  -63.1319    3.3519 H         1 PRO         0.0728
    102 H50        17.1317  -63.0260    1.8029 H         1 PRO         0.0306
    103 H51        17.8753  -61.6556    0.9107 H         1 PRO         0.0306
    104 H52        15.9344  -61.6190    3.1116 H         1 PRO         0.0286
    105 H53        16.4589  -60.2855    2.0284 H         1 PRO         0.0286
    106 H54        17.6117  -59.4087    3.7710 H         1 PRO         0.0524
    107 H55        17.2530  -60.8461    4.7868 H         1 PRO         0.0524
@<TRIPOS>BOND
     1    1    2 1  
     2    2    3 1  
     3    2    5 1  
     4    3    4 2  
     5    3    8 am 
     6    5    6 1  
     7    5    7 1  
     8    8    9 1  
     9    8   14 1  
    10    9   10 1  
    11    9   12 1  
    12   10   11 2  
    13   10   15 am 
    14   12   13 1  
    15   13   14 1  
    16   15   16 1  
    17   16   17 1  
    18   16   19 1  
    19   17   18 2  
    20   17   20 am 
    21   20   21 1  
    22   21   22 1  
    23   21   24 1  
    24   22   23 2  
    25   22   28 am 
    26   24   25 1  
    27   25   26 1  
    28   25   27 1  
    29   28   29 1  
    30   29   30 1  
    31   29   32 1  
    32   30   31 2  
    33   30   33 am 
    34   33   34 1  
    35   34   35 1  
    36   34   37 1  
    37   35   36 2  
    38   35   45 am 
    39   37   38 1  
    40   38   39 ar 
    41   38   40 ar 
    42   39   41 ar 
    43   40   42 ar 
    44   41   43 ar 
    45   42   43 ar 
    46   43   44 1  
    47   45   46 1  
    48   45   51 1  
    49   46   47 1  
    50   46   49 1  
    51   47   48 ar 
    52   47   52 ar 
    53   49   50 1  
    54   50   51 1  
    55    1   53 1  
    56    1   54 1  
    57    1   55 1  
    58    2   56 1  
    59    5   57 1  
    60    6   58 1  
    61    6   59 1  
    62    6   60 1  
    63    7   61 1  
    64    7   62 1  
    65    7   63 1  
    66    9   64 1  
    67   12   65 1  
    68   12   66 1  
    69   13   67 1  
    70   13   68 1  
    71   14   69 1  
    72   14   70 1  
    73   15   71 1  
    74   16   72 1  
    75   19   73 1  
    76   19   74 1  
    77   19   75 1  
    78   20   76 1  
    79   21   77 1  
    80   24   78 1  
    81   24   79 1  
    82   25   80 1  
    83   26   81 1  
    84   26   82 1  
    85   26   83 1  
    86   27   84 1  
    87   27   85 1  
    88   27   86 1  
    89   28   87 1  
    90   29   88 1  
    91   32   89 1  
    92   32   90 1  
    93   32   91 1  
    94   33   92 1  
    95   34   93 1  
    96   37   94 1  
    97   37   95 1  
    98   39   96 1  
    99   40   97 1  
   100   41   98 1  
   101   42   99 1  
   102   44  100 1  
   103   46  101 1  
   104   49  102 1  
   105   49  103 1  
   106   50  104 1  
   107   50  105 1  
   108   51  106 1  
   109   51  107 1  
@<TRIPOS>SUBSTRUCTURE
     1 VAL         1

