### 
### Created by X-TOOL on Wed Jan  1 15:39:36 2020
### 

@<TRIPOS>MOLECULE
6g8m_ligand
   68    68     1     0     0
SMALL
GAST_HUCK


@<TRIPOS>ATOM
      1 C4         62.5980 -135.7340   42.2790 C.3       1 EQE         0.0758
      2 C5         63.6900 -134.7330   42.1140 C.3       1 EQE        -0.0237
      3 C6         63.2840 -133.5260   42.8880 C.3       1 EQE        -0.0600
      4 C7         63.7010 -134.3080   40.6860 C.3       1 EQE        -0.0600
      5 C15        61.2240 -141.1670   42.2860 C.3       1 EQE        -0.0063
      6 C17        61.8750 -141.3120   40.9420 C.3       1 EQE        -0.0584
      7 C21        58.2590 -139.4680   45.3220 C.3       1 EQE         0.1446
      8 C22        57.2230 -138.3800   45.4500 C.3       1 EQE        -0.0049
      9 C24        57.8960 -137.0740   45.1990 C.3       1 EQE        -0.0583
     10 C28        56.9840 -141.9170   47.4510 C.3       1 EQE         0.1108
     11 C1         62.6050 -136.2110   43.6860 C.2       1 EQE         0.1072
     12 O3         61.6960 -135.9510   44.4490 O.2       1 EQE        -0.3744
     13 C9         62.8450 -136.9010   41.3730 C.3       1 EQE         0.1619
     14 O10        64.0030 -137.5030   41.8480 O.3       1 EQE        -0.3686
     15 C11        61.6940 -137.8540   41.5050 C.2       1 EQE         0.2099
     16 O12        60.6900 -137.6630   40.8510 O.2       1 EQE        -0.3939
     17 N13        61.8040 -138.8580   42.3420 N.am      1 EQE        -0.2631
     18 C14        60.7020 -139.7690   42.4680 C.3       1 EQE         0.1333
     19 C16        60.0610 -142.1160   42.3680 C.3       1 EQE        -0.0584
     20 C18        60.1520 -139.6500   43.8610 C.2       1 EQE         0.2042
     21 O19        60.8980 -139.5830   44.8090 O.2       1 EQE        -0.3944
     22 N20        58.8450 -139.5840   43.9900 N.am      1 EQE        -0.2621
     23 C23        56.1300 -138.5910   44.4330 C.3       1 EQE        -0.0583
     24 C25        57.6930 -140.7840   45.7600 C.2       1 EQE         0.2618
     25 O26        57.4600 -141.6250   44.8980 O.2       1 EQE        -0.3676
     26 O27        57.4520 -140.8850   46.9630 O.3       1 EQE        -0.2618
     27 C61        56.7180 -142.0180   48.8070 C.ar      1 EQE        -0.0128
     28 C62        56.4460 -143.2490   49.3590 C.ar      1 EQE        -0.0578
     29 C63        56.2160 -143.3590   50.7160 C.ar      1 EQE        -0.0685
     30 C64        56.2860 -142.2470   51.5250 C.ar      1 EQE        -0.0687
     31 C65        56.5860 -141.0200   50.9810 C.ar      1 EQE        -0.0685
     32 C66        56.8300 -140.9170   49.6300 C.ar      1 EQE        -0.0578
     33 H1         61.6278 -135.2738   42.0404 H         1 EQE         0.0582
     34 H2         64.6639 -135.1296   42.4368 H         1 EQE         0.0326
     35 H3         64.0619 -132.7535   42.7973 H         1 EQE         0.0234
     36 H4         63.1564 -133.7952   43.9469 H         1 EQE         0.0234
     37 H5         62.3342 -133.1383   42.4911 H         1 EQE         0.0234
     38 H6         63.9949 -135.1581   40.0527 H         1 EQE         0.0234
     39 H7         64.4201 -133.4862   40.5535 H         1 EQE         0.0234
     40 H8         62.6961 -133.9660   40.3974 H         1 EQE         0.0234
     41 H9         61.9541 -141.3965   43.0761 H         1 EQE         0.0343
     42 H10        62.2508 -142.3392   40.8255 H         1 EQE         0.0234
     43 H11        62.7129 -140.6038   40.8621 H         1 EQE         0.0234
     44 H12        61.1386 -141.0993   40.1530 H         1 EQE         0.0234
     45 H13        59.0780 -139.2118   46.0102 H         1 EQE         0.0819
     46 H14        56.7914 -138.3912   46.4617 H         1 EQE         0.0344
     47 H15        57.1612 -136.2601   45.2863 H         1 EQE         0.0235
     48 H16        58.3268 -137.0720   44.1869 H         1 EQE         0.0235
     49 H17        58.6966 -136.9259   45.9386 H         1 EQE         0.0235
     50 H18        57.6934 -142.7231   47.2126 H         1 EQE         0.0778
     51 H19        56.0314 -142.1017   46.9328 H         1 EQE         0.0778
     52 H20        63.4440 -136.8073   44.0415 H         1 EQE         0.1354
     53 H21        62.9640 -136.5799   40.3277 H         1 EQE         0.0867
     54 H22        63.8676 -137.7832   42.7456 H         1 EQE         0.2136
     55 H23        62.6370 -138.9858   42.8803 H         1 EQE         0.1884
     56 H24        59.9248 -139.5443   41.7228 H         1 EQE         0.0802
     57 H25        60.4197 -143.1476   42.2373 H         1 EQE         0.0234
     58 H26        59.3360 -141.8768   41.5761 H         1 EQE         0.0234
     59 H27        59.5764 -142.0181   43.3506 H         1 EQE         0.0234
     60 H28        58.2569 -139.6131   43.1817 H         1 EQE         0.1885
     61 H29        55.6355 -139.5554   44.6210 H         1 EQE         0.0235
     62 H30        56.5647 -138.5927   43.4225 H         1 EQE         0.0235
     63 H31        55.3924 -137.7789   44.5136 H         1 EQE         0.0235
     64 H32        56.4124 -144.1308   48.7294 H         1 EQE         0.0557
     65 H33        55.9792 -144.3253   51.1465 H         1 EQE         0.0599
     66 H34        56.1048 -142.3386   52.5898 H         1 EQE         0.0559
     67 H35        56.6301 -140.1396   51.6119 H         1 EQE         0.0599
     68 H36        57.1134 -139.9595   49.2082 H         1 EQE         0.0557
@<TRIPOS>BOND
     1    1    2 1  
     2    1   11 1  
     3   13    1 1  
     4    2    3 1  
     5    2    4 1  
     6    5    6 1  
     7   18    5 1  
     8    5   19 1  
     9    7    8 1  
    10    7   22 1  
    11   24    7 1  
    12    8    9 1  
    13    8   23 1  
    14   26   10 1  
    15   10   27 1  
    16   11   12 2  
    17   13   14 1  
    18   15   13 1  
    19   15   16 2  
    20   17   15 am 
    21   18   17 1  
    22   20   18 1  
    23   20   21 2  
    24   22   20 am 
    25   24   25 2  
    26   24   26 1  
    27   27   28 ar 
    28   27   32 ar 
    29   28   29 ar 
    30   29   30 ar 
    31   30   31 ar 
    32   31   32 ar 
    33    1   33 1  
    34    2   34 1  
    35    3   35 1  
    36    3   36 1  
    37    3   37 1  
    38    4   38 1  
    39    4   39 1  
    40    4   40 1  
    41    5   41 1  
    42    6   42 1  
    43    6   43 1  
    44    6   44 1  
    45    7   45 1  
    46    8   46 1  
    47    9   47 1  
    48    9   48 1  
    49    9   49 1  
    50   10   50 1  
    51   10   51 1  
    52   11   52 1  
    53   13   53 1  
    54   14   54 1  
    55   17   55 1  
    56   18   56 1  
    57   19   57 1  
    58   19   58 1  
    59   19   59 1  
    60   22   60 1  
    61   23   61 1  
    62   23   62 1  
    63   23   63 1  
    64   28   64 1  
    65   29   65 1  
    66   30   66 1  
    67   31   67 1  
    68   32   68 1  
@<TRIPOS>SUBSTRUCTURE
     1 EQE         1

