### 
### Created by X-TOOL on Wed Jan  1 15:39:36 2020
### 

@<TRIPOS>MOLECULE
6g8n_ligand
   71    71     1     0     0
SMALL
GAST_HUCK


@<TRIPOS>ATOM
      1 C4         63.2080 -136.4880   41.9040 C.3       1 EQB         0.0760
      2 C5         64.0740 -135.2790   41.8900 C.3       1 EQB        -0.0211
      3 C6         64.1040 -134.6960   40.5060 C.3       1 EQB        -0.0598
      4 C7         63.3050 -134.3690   42.8070 C.3       1 EQB        -0.0507
      5 C8         63.9950 -133.0350   42.9590 C.3       1 EQB        -0.0649
      6 C15        61.9690 -141.7490   41.9960 C.3       1 EQB        -0.0063
      7 C17        62.4400 -141.8560   40.5650 C.3       1 EQB        -0.0584
      8 C21        59.0220 -140.1760   45.0540 C.3       1 EQB         0.1446
      9 C22        57.9950 -139.1120   45.1530 C.3       1 EQB        -0.0049
     10 C24        56.9700 -139.4510   44.1030 C.3       1 EQB        -0.0583
     11 C28        57.5790 -143.0990   46.7660 C.3       1 EQB         0.1108
     12 C1         63.1880 -136.9710   43.3090 C.2       1 EQB         0.1072
     13 O3         62.3730 -136.5480   44.1100 O.2       1 EQB        -0.3744
     14 C9         63.6240 -137.5990   40.9850 C.3       1 EQB         0.1619
     15 O10        64.7310 -138.2180   41.5710 O.3       1 EQB        -0.3686
     16 C11        62.5090 -138.6020   41.0130 C.2       1 EQB         0.2099
     17 O12        61.7130 -138.6240   40.0940 O.2       1 EQB        -0.3939
     18 N13        62.4240 -139.3890   42.0720 N.am      1 EQB        -0.2631
     19 C14        61.3820 -140.4020   42.2130 C.3       1 EQB         0.1333
     20 C16        60.8800 -142.7380   42.2760 C.3       1 EQB        -0.0584
     21 C18        60.8420 -140.4500   43.5900 C.2       1 EQB         0.2042
     22 O19        61.5160 -140.8590   44.5090 O.2       1 EQB        -0.3944
     23 N20        59.5840 -140.1410   43.7250 N.am      1 EQB        -0.2621
     24 C23        57.3850 -139.2360   46.5250 C.3       1 EQB        -0.0583
     25 C25        58.2970 -141.4570   45.2450 C.2       1 EQB         0.2618
     26 O26        57.8200 -142.0310   44.2900 O.2       1 EQB        -0.3676
     27 O27        58.2020 -141.8490   46.5250 O.3       1 EQB        -0.2618
     28 C29        57.3860 -143.2520   48.1360 C.ar      1 EQB        -0.0128
     29 C30        57.2850 -144.5020   48.6900 C.ar      1 EQB        -0.0578
     30 C31        57.0850 -144.6640   50.0500 C.ar      1 EQB        -0.0685
     31 C32        56.9780 -143.5750   50.8800 C.ar      1 EQB        -0.0687
     32 C33        57.0740 -142.3150   50.3310 C.ar      1 EQB        -0.0685
     33 C34        57.2750 -142.1620   48.9720 C.ar      1 EQB        -0.0578
     34 H1         62.1924 -136.1832   41.6112 H         1 EQB         0.0583
     35 H2         65.0925 -135.4829   42.2521 H         1 EQB         0.0328
     36 H3         64.7451 -133.8021   40.4985 H         1 EQB         0.0234
     37 H4         63.0838 -134.4180   40.2030 H         1 EQB         0.0234
     38 H5         64.5052 -135.4408   39.8030 H         1 EQB         0.0234
     39 H6         63.2209 -134.8439   43.7956 H         1 EQB         0.0267
     40 H7         62.2996 -134.2072   42.3912 H         1 EQB         0.0267
     41 H8         63.4090 -132.3939   43.6340 H         1 EQB         0.0230
     42 H9         64.0787 -132.5512   41.9747 H         1 EQB         0.0230
     43 H10        65.0001 -133.1878   43.3791 H         1 EQB         0.0230
     44 H11        62.8161 -141.9152   42.6777 H         1 EQB         0.0343
     45 H12        62.8764 -142.8515   40.3961 H         1 EQB         0.0234
     46 H13        63.1998 -141.0848   40.3704 H         1 EQB         0.0234
     47 H14        61.5869 -141.7097   39.8862 H         1 EQB         0.0234
     48 H15        59.8082 -140.0469   45.8124 H         1 EQB         0.0819
     49 H16        58.4183 -138.1093   44.9939 H         1 EQB         0.0344
     50 H17        56.1683 -138.6980   44.1167 H         1 EQB         0.0235
     51 H18        56.5445 -140.4434   44.3128 H         1 EQB         0.0235
     52 H19        57.4485 -139.4591   43.1126 H         1 EQB         0.0235
     53 H20        58.2212 -143.9096   46.3912 H         1 EQB         0.0778
     54 H21        56.6078 -143.1326   46.2507 H         1 EQB         0.0778
     55 H22        63.9147 -137.7164   43.6286 H         1 EQB         0.1354
     56 H23        63.8387 -137.2404   39.9675 H         1 EQB         0.0867
     57 H24        64.4872 -138.5593   42.4234 H         1 EQB         0.2136
     58 H25        63.0983 -139.2867   42.8034 H         1 EQB         0.1884
     59 H26        60.5764 -140.2028   41.4909 H         1 EQB         0.0802
     60 H27        61.2645 -143.7581   42.1290 H         1 EQB         0.0234
     61 H28        60.0386 -142.5609   41.5900 H         1 EQB         0.0234
     62 H29        60.5371 -142.6216   43.3147 H         1 EQB         0.0234
     63 H30        59.0262 -139.8880   42.9345 H         1 EQB         0.1885
     64 H31        58.1396 -138.9869   47.2856 H         1 EQB         0.0235
     65 H32        57.0357 -140.2676   46.6791 H         1 EQB         0.0235
     66 H33        56.5344 -138.5440   46.6120 H         1 EQB         0.0235
     67 H34        57.3629 -145.3761   48.0537 H         1 EQB         0.0557
     68 H35        57.0119 -145.6627   50.4651 H         1 EQB         0.0599
     69 H36        56.8213 -143.7041   51.9448 H         1 EQB         0.0559
     70 H37        56.9916 -141.4409   50.9668 H         1 EQB         0.0599
     71 H38        57.3468 -141.1639   48.5552 H         1 EQB         0.0557
@<TRIPOS>BOND
     1    1    2 1  
     2    1   12 1  
     3   14    1 1  
     4    2    3 1  
     5    2    4 1  
     6    4    5 1  
     7    6    7 1  
     8   19    6 1  
     9    6   20 1  
    10    8    9 1  
    11    8   23 1  
    12   25    8 1  
    13    9   10 1  
    14    9   24 1  
    15   27   11 1  
    16   11   28 1  
    17   12   13 2  
    18   14   15 1  
    19   16   14 1  
    20   16   17 2  
    21   18   16 am 
    22   19   18 1  
    23   21   19 1  
    24   21   22 2  
    25   23   21 am 
    26   25   26 2  
    27   25   27 1  
    28   28   29 ar 
    29   28   33 ar 
    30   29   30 ar 
    31   30   31 ar 
    32   31   32 ar 
    33   32   33 ar 
    34    1   34 1  
    35    2   35 1  
    36    3   36 1  
    37    3   37 1  
    38    3   38 1  
    39    4   39 1  
    40    4   40 1  
    41    5   41 1  
    42    5   42 1  
    43    5   43 1  
    44    6   44 1  
    45    7   45 1  
    46    7   46 1  
    47    7   47 1  
    48    8   48 1  
    49    9   49 1  
    50   10   50 1  
    51   10   51 1  
    52   10   52 1  
    53   11   53 1  
    54   11   54 1  
    55   12   55 1  
    56   14   56 1  
    57   15   57 1  
    58   18   58 1  
    59   19   59 1  
    60   20   60 1  
    61   20   61 1  
    62   20   62 1  
    63   23   63 1  
    64   24   64 1  
    65   24   65 1  
    66   24   66 1  
    67   29   67 1  
    68   30   68 1  
    69   31   69 1  
    70   32   70 1  
    71   33   71 1  
@<TRIPOS>SUBSTRUCTURE
     1 EQB         1

