### 
### Created by X-TOOL on Wed Jan  1 15:39:35 2020
### 

@<TRIPOS>MOLECULE
6g91_ligand
   26    27     1     0     0
SMALL
GAST_HUCK


@<TRIPOS>ATOM
      1 C2         10.4540    6.5390   44.7240 C.ar      1 EQW         0.0786
      2 C3         11.6640    6.0000   44.3650 C.ar      1 EQW         0.0286
      3 N4         12.5510    6.6720   43.6180 N.ar      1 EQW        -0.2522
      4 C5         12.1790    7.9110   43.2440 C.ar      1 EQW         0.1936
      5 C7         12.7810    9.8770   41.8340 C.3       1 EQW         0.0462
      6 C8         14.0850   10.5260   41.4290 C.3       1 EQW        -0.0060
      7 C11        11.7410   11.0000   39.8520 C.3       1 EQW         0.0498
      8 C12        11.8710    9.7000   40.6180 C.3       1 EQW        -0.0060
      9 C14        10.1640    7.8190   44.2870 C.ar      1 EQW         0.0286
     10 CL1         9.3120    5.6380   45.6850 Cl        1 EQW        -0.0662
     11 N6         13.0660    8.6040   42.5040 N.pl3     1 EQW        -0.2852
     12 C9         13.8160   11.7850   40.6460 C.3       1 EQW         0.0498
     13 O10        13.0290   11.5190   39.4810 O.3       1 EQW        -0.3796
     14 N13        11.0250    8.5230   43.5470 N.ar      1 EQW        -0.2522
     15 H1         11.9104    4.9978   44.6965 H         1 EQW         0.0906
     16 H2         12.2678   10.5361   42.5497 H         1 EQW         0.0562
     17 H3         14.6614    9.8264   40.8059 H         1 EQW         0.0310
     18 H4         14.6629   10.7753   42.3312 H         1 EQW         0.0310
     19 H5         11.2258   11.7383   40.4841 H         1 EQW         0.0560
     20 H6         11.1508   10.8216   38.9411 H         1 EQW         0.0560
     21 H7         10.8747    9.3793   40.9564 H         1 EQW         0.0310
     22 H8         12.2982    8.9323   39.9561 H         1 EQW         0.0310
     23 H9          9.2115    8.2632   44.5524 H         1 EQW         0.0906
     24 H10        14.0127    8.2115   42.4013 H         1 EQW         0.1867
     25 H11        14.7753   12.2255   40.3365 H         1 EQW         0.0560
     26 H12        13.2757   12.4966   41.2876 H         1 EQW         0.0560
@<TRIPOS>BOND
     1    2    1 ar 
     2    1    9 ar 
     3    1   10 1  
     4    3    2 ar 
     5    4    3 ar 
     6   11    4 1  
     7    4   14 ar 
     8    5    6 1  
     9    5    8 1  
    10    5   11 1  
    11    6   12 1  
    12    8    7 1  
    13    7   13 1  
    14    9   14 ar 
    15   12   13 1  
    16    2   15 1  
    17    5   16 1  
    18    6   17 1  
    19    6   18 1  
    20    7   19 1  
    21    7   20 1  
    22    8   21 1  
    23    8   22 1  
    24    9   23 1  
    25   11   24 1  
    26   12   25 1  
    27   12   26 1  
@<TRIPOS>SUBSTRUCTURE
     1 EQW         1

