### 
### Created by X-TOOL on Wed Jan  1 15:39:35 2020
### 

@<TRIPOS>MOLECULE
6g92_ligand
   28    29     1     0     0
SMALL
GAST_HUCK


@<TRIPOS>ATOM
      1 C1         16.0650   10.4430   41.7340 C.3       1 ERZ        -0.0087
      2 C2         14.6790   10.3640   41.1950 C.2       1 ERZ         0.0823
      3 C3         13.7230    9.4200   41.4360 C.2       1 ERZ         0.0725
      4 N4         13.8490    8.3110   42.2170 N.pl3     1 ERZ        -0.2689
      5 C5         12.8870    7.6860   42.9770 C.ar      1 ERZ         0.1959
      6 C7         12.2990    5.8630   44.1840 C.ar      1 ERZ         0.0152
      7 C8         11.0630    6.4090   44.4870 C.ar      1 ERZ        -0.0077
      8 C10        10.8500    7.6710   43.9750 C.ar      1 ERZ         0.0152
      9 C12        12.6410    9.8660   40.6630 C.2       1 ERZ         0.0084
     10 C15        14.8220   12.4870   39.8270 C.3       1 ERZ         0.0548
     11 N6         13.2270    6.4710   43.4390 N.ar      1 ERZ        -0.2599
     12 C9         10.0450    5.6920   45.3310 C.3       1 ERZ        -0.0266
     13 N11        11.7350    8.3380   43.2210 N.ar      1 ERZ        -0.2599
     14 N13        12.9170   10.9890   40.0220 N.2       1 ERZ        -0.2373
     15 N14        14.1910   11.2860   40.3650 N.pl3     1 ERZ        -0.2188
     16 H1         16.2515    9.5827   42.3936 H         1 ERZ         0.0400
     17 H2         16.1837   11.3755   42.3053 H         1 ERZ         0.0400
     18 H3         16.7836   10.4291   40.9013 H         1 ERZ         0.0400
     19 H4         14.7864    7.8848   42.2419 H         1 ERZ         0.2023
     20 H5         12.5286    4.8790   44.5764 H         1 ERZ         0.0838
     21 H6          9.9058    8.1553   44.1965 H         1 ERZ         0.0838
     22 H7         11.6853    9.3479   40.5983 H         1 ERZ         0.0599
     23 H8         14.1123   13.0110   39.1699 H         1 ERZ         0.0590
     24 H9         15.7156   12.2050   39.2508 H         1 ERZ         0.0590
     25 H10        15.1136   13.1502   40.6547 H         1 ERZ         0.0590
     26 H11        10.4379    4.7063   45.6209 H         1 ERZ         0.0388
     27 H12         9.1171    5.5618   44.7548 H         1 ERZ         0.0388
     28 H13         9.8357    6.2834   46.2345 H         1 ERZ         0.0388
@<TRIPOS>BOND
     1    2    1 1  
     2    3    2 2  
     3    2   15 1  
     4    4    3 1  
     5    3    9 1  
     6    5    4 1  
     7   11    5 ar 
     8    5   13 ar 
     9    6    7 ar 
    10    6   11 ar 
    11    7    8 ar 
    12    7   12 1  
    13    8   13 ar 
    14    9   14 2  
    15   15   10 1  
    16   14   15 1  
    17    1   16 1  
    18    1   17 1  
    19    1   18 1  
    20    4   19 1  
    21    6   20 1  
    22    8   21 1  
    23    9   22 1  
    24   10   23 1  
    25   10   24 1  
    26   10   25 1  
    27   12   26 1  
    28   12   27 1  
    29   12   28 1  
@<TRIPOS>SUBSTRUCTURE
     1 ERZ         1

