### 
### Created by X-TOOL on Wed Jan  1 15:39:35 2020
### 

@<TRIPOS>MOLECULE
6g93_ligand
   41    44     1     0     0
SMALL
GAST_HUCK


@<TRIPOS>ATOM
      1 C2          9.1500    6.4730   45.1270 C.ar      1 EU2         0.0819
      2 C3         10.4270    5.9830   44.9390 C.ar      1 EU2         0.0254
      3 N4         11.3300    6.6210   44.1990 N.ar      1 EU2        -0.2569
      4 C5         10.9200    7.7880   43.6610 C.ar      1 EU2         0.1879
      5 C7         11.6070    9.7510   42.3170 C.3       1 EU2         0.0461
      6 C8         12.9310   10.4820   42.1350 C.3       1 EU2        -0.0060
      7 C11        10.8410   10.9010   40.2090 C.3       1 EU2         0.0498
      8 C12        10.8900    9.5900   40.9730 C.3       1 EU2        -0.0060
      9 C14         8.7710    7.6770   44.5030 C.ar      1 EU2         0.0642
     10 C15         7.4590    8.3830   44.5650 C.ar      1 EU2         0.0036
     11 C16         7.4080    9.7540   44.2880 C.ar      1 EU2        -0.0498
     12 C19         3.6290   10.3120   44.7690 C.3       1 EU2         0.0693
     13 C21         3.6810    8.0150   45.2320 C.2       1 EU2         0.2034
     14 C23         5.0650    8.4430   44.9210 C.ar      1 EU2         0.0585
     15 C24         6.2590    7.7310   44.8840 C.ar      1 EU2        -0.0337
     16 CL1         8.0620    5.5650   46.1160 Cl        1 EU2        -0.0667
     17 N6         11.8170    8.4580   42.9290 N.pl3     1 EU2        -0.2863
     18 C9         12.7560   11.7350   41.2870 C.3       1 EU2         0.0498
     19 O10        12.1520   11.4300   40.0140 O.3       1 EU2        -0.3796
     20 N13         9.6810    8.3130   43.7800 N.ar      1 EU2        -0.2529
     21 C17         6.2130   10.4530   44.3340 C.ar      1 EU2        -0.0474
     22 C18         5.0390    9.8000   44.6530 C.ar      1 EU2         0.0038
     23 N20         2.8860    9.0760   44.9630 N.am      1 EU2        -0.2741
     24 O22         3.2950    6.9260   45.6590 O.2       1 EU2        -0.3881
     25 H1         10.7033    5.0467   45.4103 H         1 EU2         0.0891
     26 H2         10.9688   10.3511   42.9823 H         1 EU2         0.0561
     27 H3         13.6467    9.8100   41.6388 H         1 EU2         0.0310
     28 H4         13.3213   10.7688   43.1226 H         1 EU2         0.0310
     29 H5         10.2416   11.6267   40.7783 H         1 EU2         0.0560
     30 H6         10.3735   10.7284   39.2284 H         1 EU2         0.0560
     31 H7          9.8620    9.2438   41.1553 H         1 EU2         0.0310
     32 H8         11.4265    8.8438   40.3686 H         1 EU2         0.0310
     33 H9          8.3213   10.2790   44.0325 H         1 EU2         0.0675
     34 H10         3.3132   10.8308   43.8519 H         1 EU2         0.0707
     35 H11         3.5165   10.9876   45.6297 H         1 EU2         0.0707
     36 H12         6.2622    6.6692   45.1023 H         1 EU2         0.0695
     37 H13        12.7362    8.0147   42.7893 H         1 EU2         0.1866
     38 H14        13.7421   12.1910   41.1148 H         1 EU2         0.0560
     39 H15        12.1127   12.4454   41.8270 H         1 EU2         0.0560
     40 H16         6.1995   11.5154   44.1190 H         1 EU2         0.0582
     41 H17         1.8895    9.0169   44.9036 H         1 EU2         0.1873
@<TRIPOS>BOND
     1    1    2 ar 
     2    9    1 ar 
     3    1   16 1  
     4    2    3 ar 
     5    4    3 ar 
     6    4   17 1  
     7   20    4 ar 
     8    5    6 1  
     9    5    8 1  
    10   17    5 1  
    11    6   18 1  
    12    8    7 1  
    13    7   19 1  
    14   10    9 1  
    15    9   20 ar 
    16   10   11 ar 
    17   15   10 ar 
    18   11   21 ar 
    19   12   22 1  
    20   23   12 1  
    21   14   13 1  
    22   13   23 am 
    23   13   24 2  
    24   14   15 ar 
    25   14   22 ar 
    26   18   19 1  
    27   21   22 ar 
    28    2   25 1  
    29    5   26 1  
    30    6   27 1  
    31    6   28 1  
    32    7   29 1  
    33    7   30 1  
    34    8   31 1  
    35    8   32 1  
    36   11   33 1  
    37   12   34 1  
    38   12   35 1  
    39   15   36 1  
    40   17   37 1  
    41   18   38 1  
    42   18   39 1  
    43   21   40 1  
    44   23   41 1  
@<TRIPOS>SUBSTRUCTURE
     1 EU2         1

