### 
### Created by X-TOOL on Wed Jan  1 15:39:35 2020
### 

@<TRIPOS>MOLECULE
6g97_ligand
   51    54     1     0     0
SMALL
GAST_HUCK


@<TRIPOS>ATOM
      1 C1          0.1510   11.6250   48.0190 C.3       1 EQZ         0.0365
      2 C3         -0.6270   10.7070   45.9750 C.3       1 EQZ         0.0677
      3 C6          1.8560   10.6160   44.3070 C.3       1 EQZ         0.0724
      4 C7          3.2410   10.0630   44.2060 C.ar      1 EQZ         0.0040
      5 C8          4.4310   10.6560   43.8170 C.ar      1 EQZ        -0.0474
      6 C10         5.6250    8.5720   44.2150 C.ar      1 EQZ         0.0036
      7 C11         4.4180    7.9950   44.6370 C.ar      1 EQZ        -0.0337
      8 C12         3.2370    8.7340   44.6040 C.ar      1 EQZ         0.0587
      9 C13         1.8590    8.3680   45.0080 C.2       1 EQZ         0.2060
     10 C15         6.9200    7.8390   44.2100 C.ar      1 EQZ         0.0642
     11 N18        10.0010    8.5670   42.7120 N.pl3     1 EQZ        -0.2863
     12 C19         9.7990    9.8460   42.0550 C.3       1 EQZ         0.0461
     13 C21        10.9490   11.8570   41.1850 C.3       1 EQZ         0.0498
     14 C23         9.1000   10.9890   39.9930 C.3       1 EQZ         0.0498
     15 C24         9.2000    9.6460   40.6770 C.3       1 EQZ        -0.0060
     16 C26         8.5270    6.1580   44.7280 C.ar      1 EQZ         0.0254
     17 C27         7.2390    6.6480   44.8610 C.ar      1 EQZ         0.0819
     18 O2          0.1160   10.4990   47.1570 O.3       1 EQZ        -0.3810
     19 C4         -0.3400    9.5620   45.0520 C.3       1 EQZ         0.0591
     20 N5          1.0850    9.4420   44.7190 N.am      1 EQZ        -0.2582
     21 C9          5.6020    9.9180   43.8130 C.ar      1 EQZ        -0.0498
     22 O14         1.4650    7.3310   45.5030 O.2       1 EQZ        -0.3879
     23 N16         7.8650    8.4680   43.4950 N.ar      1 EQZ        -0.2529
     24 C17         9.0780    7.9150   43.4330 C.ar      1 EQZ         0.1879
     25 C20        11.1280   10.5760   41.9570 C.3       1 EQZ        -0.0060
     26 O22        10.3950   11.6140   39.8790 O.3       1 EQZ        -0.3796
     27 N25         9.4630    6.7740   44.0090 N.ar      1 EQZ        -0.2569
     28 CL1         6.1390    5.7550   45.8530 Cl        1 EQZ        -0.0667
     29 H1          0.7457   11.3844   48.9125 H         1 EQZ         0.0523
     30 H2         -0.8736   11.8880   48.3205 H         1 EQZ         0.0523
     31 H3          0.6081   12.4758   47.4925 H         1 EQZ         0.0523
     32 H4         -0.3245   11.6537   45.5035 H         1 EQZ         0.0580
     33 H5         -1.7014   10.7404   46.2083 H         1 EQZ         0.0580
     34 H6          1.5084   11.0014   43.3371 H         1 EQZ         0.0709
     35 H7          1.7994   11.4152   45.0607 H         1 EQZ         0.0709
     36 H8          4.4451   11.6973   43.5159 H         1 EQZ         0.0582
     37 H9          4.4039    6.9702   44.9902 H         1 EQZ         0.0695
     38 H10        10.9268    8.1258   42.6165 H         1 EQZ         0.1866
     39 H11         9.1041   10.4501   42.6568 H         1 EQZ         0.0561
     40 H12        11.9279   12.3460   41.0724 H         1 EQZ         0.0560
     41 H13        10.2705   12.5188   41.7433 H         1 EQZ         0.0560
     42 H14         8.4369   11.6419   40.5795 H         1 EQZ         0.0560
     43 H15         8.6796   10.8485   38.9863 H         1 EQZ         0.0560
     44 H16         8.1977    9.2024   40.7698 H         1 EQZ         0.0310
     45 H17         9.8438    8.9772   40.0870 H         1 EQZ         0.0310
     46 H18         8.7845    5.2329   45.2310 H         1 EQZ         0.0891
     47 H19        -0.9069    9.7105   44.1211 H         1 EQZ         0.0546
     48 H20        -0.6673    8.6300   45.5360 H         1 EQZ         0.0546
     49 H21         6.5236   10.3900   43.4920 H         1 EQZ         0.0675
     50 H22        11.8588    9.9368   41.4400 H         1 EQZ         0.0310
     51 H23        11.4936   10.8069   42.9684 H         1 EQZ         0.0310
@<TRIPOS>BOND
     1   18    1 1  
     2    2   18 1  
     3   19    2 1  
     4    4    3 1  
     5    3   20 1  
     6    5    4 ar 
     7    8    4 ar 
     8   21    5 ar 
     9    6    7 ar 
    10   10    6 1  
    11    6   21 ar 
    12    7    8 ar 
    13    8    9 1  
    14    9   20 am 
    15    9   22 2  
    16   10   17 ar 
    17   23   10 ar 
    18   11   12 1  
    19   24   11 1  
    20   12   15 1  
    21   12   25 1  
    22   25   13 1  
    23   13   26 1  
    24   15   14 1  
    25   14   26 1  
    26   17   16 ar 
    27   16   27 ar 
    28   17   28 1  
    29   20   19 1  
    30   23   24 ar 
    31   24   27 ar 
    32    1   29 1  
    33    1   30 1  
    34    1   31 1  
    35    2   32 1  
    36    2   33 1  
    37    3   34 1  
    38    3   35 1  
    39    5   36 1  
    40    7   37 1  
    41   11   38 1  
    42   12   39 1  
    43   13   40 1  
    44   13   41 1  
    45   14   42 1  
    46   14   43 1  
    47   15   44 1  
    48   15   45 1  
    49   16   46 1  
    50   19   47 1  
    51   19   48 1  
    52   21   49 1  
    53   25   50 1  
    54   25   51 1  
@<TRIPOS>SUBSTRUCTURE
     1 EQZ         1

