### 
### Created by X-TOOL on Wed Jan  1 15:39:35 2020
### 

@<TRIPOS>MOLECULE
6g98_ligand
   72    74     1     0     0
SMALL
GAST_HUCK


@<TRIPOS>ATOM
      1 F15        17.2200  -24.1490  -52.7820 F         1 ER5        -0.2021
      2 C9         18.1460  -23.4840  -53.4630 C.ar      1 ER5         0.1549
      3 C10        19.4510  -23.2740  -52.8190 C.ar      1 ER5         0.0696
      4 S30        19.8150  -23.9210  -51.3120 S.3       1 ER5        -0.1048
      5 C31        20.7940  -25.3730  -51.7200 C.3       1 ER5         0.0155
      6 C32        20.1280  -26.5420  -52.4920 C.3       1 ER5        -0.0069
      7 C33        19.2430  -27.3390  -51.5600 C.ar      1 ER5        -0.0393
      8 C34        19.8230  -28.1320  -50.5680 C.ar      1 ER5        -0.0565
      9 C35        19.0030  -28.8360  -49.6790 C.ar      1 ER5        -0.0543
     10 C36        17.6020  -28.7620  -49.7920 C.ar      1 ER5         0.0032
     11 C39        16.7380  -29.4910  -48.8010 C.2       1 ER5         0.0584
     12 O40        15.5240  -29.2810  -48.7240 O.co2     1 ER5        -0.5625
     13 O41        17.3190  -30.2980  -47.9200 O.co2     1 ER5        -0.5625
     14 C37        17.0210  -27.9530  -50.7850 C.ar      1 ER5        -0.0543
     15 C38        17.8420  -27.2500  -51.6660 C.ar      1 ER5        -0.0565
     16 C11        20.5030  -22.5410  -53.5180 C.ar      1 ER5         0.1621
     17 F14        21.6970  -22.3650  -52.9420 F         1 ER5        -0.2011
     18 C12        20.2350  -21.9930  -54.8450 C.ar      1 ER5         0.1706
     19 F13        21.2470  -21.3460  -55.4040 F         1 ER5        -0.1907
     20 C8         17.8510  -22.9220  -54.7990 C.ar      1 ER5         0.0873
     21 C7         18.9260  -22.1730  -55.5270 C.ar      1 ER5         0.1480
     22 S37        18.7590  -21.5350  -57.0110 S.o2      1 ER5         0.0583
     23 O38        17.4050  -21.5050  -57.4840 O.2       1 ER5        -0.1540
     24 N40        19.3030  -20.0260  -56.9780 N.am      1 ER5        -0.2638
     25 O39        19.5370  -22.3370  -57.9340 O.2       1 ER5        -0.1540
     26 N16        16.6990  -23.2100  -55.4320 N.pl3     1 ER5        -0.3226
     27 C18        16.0680  -24.5340  -55.3290 C.3       1 ER5         0.0337
     28 C19        14.5300  -24.4750  -55.3410 C.3       1 ER5        -0.0309
     29 C20        13.6890  -24.8790  -56.5540 C.3       1 ER5        -0.0510
     30 C21        13.0490  -26.2660  -56.4700 C.3       1 ER5        -0.0530
     31 C22        13.9350  -27.4200  -56.9290 C.3       1 ER5        -0.0531
     32 C23        14.2380  -27.3680  -58.4210 C.3       1 ER5        -0.0531
     33 C24        15.2840  -28.4180  -58.7970 C.3       1 ER5        -0.0531
     34 C25        16.7150  -27.8970  -58.7560 C.3       1 ER5        -0.0531
     35 C26        17.4890  -28.3320  -57.5140 C.3       1 ER5        -0.0531
     36 C27        18.3590  -27.2040  -56.9690 C.3       1 ER5        -0.0530
     37 C28        17.6260  -26.4340  -55.8760 C.3       1 ER5        -0.0510
     38 C29        16.7380  -25.3430  -56.4510 C.3       1 ER5        -0.0309
     39 H1         21.1674  -25.7859  -50.7713 H         1 ER5         0.0423
     40 H2         21.6425  -25.0278  -52.3290 H         1 ER5         0.0423
     41 H3         20.9088  -27.1987  -52.9033 H         1 ER5         0.0441
     42 H4         19.5197  -26.1362  -53.3138 H         1 ER5         0.0441
     43 H5         20.9017  -28.2019  -50.4869 H         1 ER5         0.0564
     44 H6         19.4494  -29.4419  -48.8988 H         1 ER5         0.0634
     45 H7         15.9427  -27.8765  -50.8649 H         1 ER5         0.0634
     46 H8         17.3986  -26.6309  -52.4375 H         1 ER5         0.0564
     47 H9         19.2809  -19.4683  -57.8077 H         1 ER5         0.1631
     48 H10        19.6641  -19.6432  -56.1277 H         1 ER5         0.1631
     49 H11        16.2468  -22.4829  -56.0045 H         1 ER5         0.1734
     50 H12        16.3506  -24.9870  -54.3673 H         1 ER5         0.0545
     51 H13        14.2653  -23.4297  -55.1236 H         1 ER5         0.0287
     52 H14        14.1958  -25.1177  -54.5132 H         1 ER5         0.0287
     53 H15        14.3389  -24.8573  -57.4412 H         1 ER5         0.0266
     54 H16        12.8835  -24.1391  -56.6713 H         1 ER5         0.0266
     55 H17        12.1446  -26.2618  -57.0961 H         1 ER5         0.0265
     56 H18        12.7687  -26.4484  -55.4221 H         1 ER5         0.0265
     57 H19        13.4228  -28.3677  -56.7063 H         1 ER5         0.0265
     58 H20        14.8843  -27.3773  -56.3750 H         1 ER5         0.0265
     59 H21        14.6209  -26.3691  -58.6771 H         1 ER5         0.0265
     60 H22        13.3132  -27.5618  -58.9843 H         1 ER5         0.0265
     61 H23        15.0716  -28.7704  -59.8171 H         1 ER5         0.0265
     62 H24        15.2003  -29.2594  -58.0935 H         1 ER5         0.0265
     63 H25        16.6856  -26.7977  -58.7799 H         1 ER5         0.0265
     64 H26        17.2461  -28.2691  -59.6446 H         1 ER5         0.0265
     65 H27        18.1330  -29.1846  -57.7755 H         1 ER5         0.0265
     66 H28        16.7733  -28.6378  -56.7366 H         1 ER5         0.0265
     67 H29        18.6109  -26.5148  -57.7885 H         1 ER5         0.0265
     68 H30        19.2829  -27.6307  -56.5516 H         1 ER5         0.0265
     69 H31        18.3676  -25.9733  -55.2069 H         1 ER5         0.0266
     70 H32        17.0018  -27.1360  -55.3037 H         1 ER5         0.0266
     71 H33        17.3502  -24.6672  -57.0662 H         1 ER5         0.0287
     72 H34        15.9597  -25.8044  -57.0766 H         1 ER5         0.0287
@<TRIPOS>BOND
     1    1    2 1  
     2    2    3 ar 
     3    2   20 ar 
     4    3    4 1  
     5    3   16 ar 
     6    4    5 1  
     7    5    6 1  
     8    6    7 1  
     9    7    8 ar 
    10    7   15 ar 
    11    8    9 ar 
    12    9   10 ar 
    13   10   11 1  
    14   10   14 ar 
    15   11   12 ar 
    16   11   13 ar 
    17   14   15 ar 
    18   16   17 1  
    19   16   18 ar 
    20   18   19 1  
    21   18   21 ar 
    22   20   21 ar 
    23   20   26 1  
    24   21   22 1  
    25   22   23 2  
    26   22   24 am 
    27   22   25 2  
    28   26   27 1  
    29   27   28 1  
    30   27   38 1  
    31   28   29 1  
    32   29   30 1  
    33   30   31 1  
    34   31   32 1  
    35   32   33 1  
    36   33   34 1  
    37   34   35 1  
    38   35   36 1  
    39   36   37 1  
    40   37   38 1  
    41    5   39 1  
    42    5   40 1  
    43    6   41 1  
    44    6   42 1  
    45    8   43 1  
    46    9   44 1  
    47   14   45 1  
    48   15   46 1  
    49   24   47 1  
    50   24   48 1  
    51   26   49 1  
    52   27   50 1  
    53   28   51 1  
    54   28   52 1  
    55   29   53 1  
    56   29   54 1  
    57   30   55 1  
    58   30   56 1  
    59   31   57 1  
    60   31   58 1  
    61   32   59 1  
    62   32   60 1  
    63   33   61 1  
    64   33   62 1  
    65   34   63 1  
    66   34   64 1  
    67   35   65 1  
    68   35   66 1  
    69   36   67 1  
    70   36   68 1  
    71   37   69 1  
    72   37   70 1  
    73   38   71 1  
    74   38   72 1  
@<TRIPOS>SUBSTRUCTURE
     1 ER5         1

