### 
### Created by X-TOOL on Wed Jan  1 15:39:36 2020
### 

@<TRIPOS>MOLECULE
6g9a_ligand
   61    65     1     0     0
SMALL
GAST_HUCK


@<TRIPOS>ATOM
      1 C2          8.3700    6.6100   44.7270 C.ar      1 ESQ         0.0819
      2 C3          9.6990    6.2260   44.7220 C.ar      1 ESQ         0.0254
      3 N4         10.6380    6.8860   44.0410 N.ar      1 ESQ        -0.2569
      4 C5         10.2080    7.9620   43.3720 C.ar      1 ESQ         0.1879
      5 C7         10.9530    9.8780   41.9520 C.3       1 ESQ         0.0461
      6 C8         10.4090    9.5980   40.5610 C.3       1 ESQ        -0.0060
      7 C11        12.0970   11.8530   40.9980 C.3       1 ESQ         0.0498
      8 C12        12.2640   10.6340   41.8730 C.3       1 ESQ        -0.0060
      9 C14         8.0040    7.7490   44.0050 C.ar      1 ESQ         0.0642
     10 C15         6.6220    8.2810   43.8230 C.ar      1 ESQ         0.0036
     11 C16         6.2450    8.7870   42.5650 C.ar      1 ESQ        -0.0498
     12 C19         2.5590    9.5930   43.3410 C.3       1 ESQ         0.0725
     13 C21         0.8380    9.5730   45.2700 C.3       1 ESQ         0.0756
     14 C22         0.3640   11.0240   45.1640 C.3       1 ESQ        -0.0107
     15 C24         2.3590   12.2960   45.8200 C.3       1 ESQ        -0.0078
     16 C25         2.8240   13.4340   46.6900 C.3       1 ESQ         0.0878
     17 C27         1.2780   12.8230   48.3640 C.3       1 ESQ         0.0878
     18 C28         0.7770   11.6850   47.5080 C.3       1 ESQ        -0.0078
     19 O30         3.0370    8.2580   46.5610 O.2       1 ESQ        -0.3879
     20 C31         4.3490    8.6690   44.5610 C.ar      1 ESQ         0.0587
     21 CL1         7.2750    5.6600   45.6540 Cl        1 ESQ        -0.0667
     22 N6         11.1530    8.6350   42.6860 N.pl3     1 ESQ        -0.2863
     23 C9         10.3600   10.8770   39.7660 C.3       1 ESQ         0.0498
     24 O10        11.6500   11.4940   39.6940 O.3       1 ESQ        -0.3796
     25 N13         8.9420    8.4190   43.3080 N.ar      1 ESQ        -0.2529
     26 C17         4.9550    9.2360   42.3150 C.ar      1 ESQ        -0.0474
     27 C18         3.9980    9.1780   43.3190 C.ar      1 ESQ         0.0040
     28 N20         2.1800    9.3220   44.7300 N.am      1 ESQ        -0.2553
     29 N23         0.9450   12.0150   46.0880 N.4       1 ESQ         0.2399
     30 O26         2.6450   13.1430   48.0790 O.3       1 ESQ        -0.3693
     31 C29         3.1540    8.7000   45.4360 C.2       1 ESQ         0.2061
     32 C32         5.6410    8.2010   44.8160 C.ar      1 ESQ        -0.0337
     33 H1          9.9897    5.3529   45.2949 H         1 ESQ         0.0891
     34 H2         10.2218   10.4950   42.4948 H         1 ESQ         0.0561
     35 H3          9.3950    9.1796   40.6427 H         1 ESQ         0.0310
     36 H4         11.0637    8.8759   40.0512 H         1 ESQ         0.0310
     37 H5         13.0640   12.3709   40.9158 H         1 ESQ         0.0560
     38 H6         11.3584   12.5262   41.4577 H         1 ESQ         0.0560
     39 H7         13.0379    9.9800   41.4449 H         1 ESQ         0.0310
     40 H8         12.5666   10.9477   42.8830 H         1 ESQ         0.0310
     41 H9          6.9811    8.8273   41.7702 H         1 ESQ         0.0675
     42 H10         1.9601    8.9931   42.6399 H         1 ESQ         0.0709
     43 H11         2.4479   10.6601   43.0982 H         1 ESQ         0.0709
     44 H12         0.1249    8.9393   44.7223 H         1 ESQ         0.0577
     45 H13         0.8387    9.2901   46.3330 H         1 ESQ         0.0577
     46 H14        -0.7239   11.0247   45.3267 H         1 ESQ         0.0834
     47 H15         0.5820   11.3646   44.1410 H         1 ESQ         0.0834
     48 H16         2.9578   11.3997   46.0393 H         1 ESQ         0.0837
     49 H17         2.4831   12.5702   44.7620 H         1 ESQ         0.0837
     50 H18         2.2467   14.3355   46.4371 H         1 ESQ         0.0613
     51 H19         3.8917   13.6165   46.4984 H         1 ESQ         0.0613
     52 H20         1.1930   12.5362   49.4225 H         1 ESQ         0.0613
     53 H21         0.6576   13.7112   48.1738 H         1 ESQ         0.0613
     54 H22        -0.2888   11.5124   47.7184 H         1 ESQ         0.0837
     55 H23         1.3489   10.7746   47.7407 H         1 ESQ         0.0837
     56 H24        12.1020    8.2347   42.6800 H         1 ESQ         0.1866
     57 H25         9.6568   11.5720   40.2481 H         1 ESQ         0.0560
     58 H26        10.0128   10.6524   38.7467 H         1 ESQ         0.0560
     59 H27         4.6961    9.6305   41.3391 H         1 ESQ         0.0582
     60 H28         0.4400   12.8726   45.9279 H         1 ESQ         0.2036
     61 H29         5.8825    7.7760   45.7836 H         1 ESQ         0.0695
@<TRIPOS>BOND
     1    1    2 ar 
     2    9    1 ar 
     3    1   21 1  
     4    2    3 ar 
     5    4    3 ar 
     6    4   22 1  
     7   25    4 ar 
     8    5    6 1  
     9    5    8 1  
    10   22    5 1  
    11    6   23 1  
    12    8    7 1  
    13    7   24 1  
    14   10    9 1  
    15    9   25 ar 
    16   10   11 ar 
    17   32   10 ar 
    18   11   26 ar 
    19   27   12 1  
    20   12   28 1  
    21   13   14 1  
    22   28   13 1  
    23   14   29 1  
    24   15   16 1  
    25   29   15 1  
    26   16   30 1  
    27   18   17 1  
    28   17   30 1  
    29   29   18 1  
    30   31   19 2  
    31   20   27 ar 
    32   20   31 1  
    33   20   32 ar 
    34   23   24 1  
    35   26   27 ar 
    36   28   31 am 
    37    2   33 1  
    38    5   34 1  
    39    6   35 1  
    40    6   36 1  
    41    7   37 1  
    42    7   38 1  
    43    8   39 1  
    44    8   40 1  
    45   11   41 1  
    46   12   42 1  
    47   12   43 1  
    48   13   44 1  
    49   13   45 1  
    50   14   46 1  
    51   14   47 1  
    52   15   48 1  
    53   15   49 1  
    54   16   50 1  
    55   16   51 1  
    56   17   52 1  
    57   17   53 1  
    58   18   54 1  
    59   18   55 1  
    60   22   56 1  
    61   23   57 1  
    62   23   58 1  
    63   26   59 1  
    64   29   60 1  
    65   32   61 1  
@<TRIPOS>SUBSTRUCTURE
     1 ESQ         1

