### 
### Created by X-TOOL on Wed Jan  1 15:39:37 2020
### 

@<TRIPOS>MOLECULE
6g9b_ligand
   46    48     1     0     0
SMALL
GAST_HUCK


@<TRIPOS>ATOM
      1 C11       -48.7760   11.5450   -2.8590 C.ar      1 IXX         0.0618
      2 C10       -49.1120   12.4740   -1.8700 C.ar      1 IXX        -0.0464
      3 C9        -50.4270   12.5650   -1.4030 C.ar      1 IXX        -0.0795
      4 C8        -51.4050   11.7340   -1.9100 C.ar      1 IXX        -0.0811
      5 C7        -51.0830   10.8010   -2.8930 C.ar      1 IXX        -0.0704
      6 C2        -46.8760   13.5070   -6.6200 C.ar      1 IXX        -0.0795
      7 C6        -49.4420    9.6550   -4.4720 C.3       1 IXX        -0.0138
      8 C5        -48.0160    9.6640   -5.0370 C.3       1 IXX        -0.0138
      9 N1        -47.4100   11.3400   -3.4420 N.pl3     1 IXX        -0.2667
     10 C3        -47.2350   12.5320   -7.5630 C.ar      1 IXX        -0.0811
     11 N2        -44.3310    9.8550    0.0590 N.4       1 IXX         0.2310
     12 C4        -47.6170   11.2640   -7.1330 C.ar      1 IXX        -0.0704
     13 C1        -46.9000   13.2050   -5.2450 C.ar      1 IXX        -0.0464
     14 C12       -49.7650   10.7090   -3.3550 C.ar      1 IXX        -0.0185
     15 C13       -47.6490   10.9620   -5.7400 C.ar      1 IXX        -0.0185
     16 C14       -47.2910   11.9190   -4.8170 C.ar      1 IXX         0.0618
     17 C15       -46.4000   11.8640   -2.5460 C.3       1 IXX         0.0470
     18 C16       -45.9900   10.6890   -1.5730 C.3       1 IXX         0.0107
     19 C17       -44.6770   11.0290   -0.8350 C.3       1 IXX        -0.0303
     20 C18       -43.3870    8.9890   -0.6290 C.3       1 IXX        -0.0433
     21 C19       -43.7640   10.3360    1.3190 C.3       1 IXX        -0.0433
     22 H1        -48.3490   13.1275   -1.4628 H         1 IXX         0.0506
     23 H2        -50.6792   13.2917   -0.6392 H         1 IXX         0.0528
     24 H3        -52.4226   11.8071   -1.5438 H         1 IXX         0.0494
     25 H4        -51.8491   10.1497   -3.2980 H         1 IXX         0.0521
     26 H5        -46.5793   14.4957   -6.9511 H         1 IXX         0.0528
     27 H6        -49.6272    8.6559   -4.0508 H         1 IXX         0.0421
     28 H7        -50.1331    9.8341   -5.3088 H         1 IXX         0.0421
     29 H8        -47.9223    8.8390   -5.7585 H         1 IXX         0.0421
     30 H9        -47.3117    9.5068   -4.2068 H         1 IXX         0.0421
     31 H10       -47.2150   12.7649   -8.6215 H         1 IXX         0.0494
     32 H11       -45.1701    9.3331    0.2578 H         1 IXX         0.2028
     33 H12       -47.8903   10.5058   -7.8579 H         1 IXX         0.0521
     34 H13       -46.6190   13.9581   -4.5178 H         1 IXX         0.0506
     35 H14       -46.8078   12.7071   -1.9690 H         1 IXX         0.0560
     36 H15       -45.5245   12.2018   -3.1200 H         1 IXX         0.0560
     37 H16       -45.8482    9.7681   -2.1576 H         1 IXX         0.0340
     38 H17       -46.7905   10.5349   -0.8345 H         1 IXX         0.0340
     39 H18       -43.8701   11.1949   -1.5640 H         1 IXX         0.0815
     40 H19       -44.8135   11.9352   -0.2266 H         1 IXX         0.0815
     41 H20       -43.1338    8.1358    0.0174 H         1 IXX         0.0777
     42 H21       -42.4735    9.5552   -0.8633 H         1 IXX         0.0777
     43 H22       -43.8395    8.6209   -1.5616 H         1 IXX         0.0777
     44 H23       -44.4921   10.9882    1.8234 H         1 IXX         0.0777
     45 H24       -42.8440   10.9031    1.1143 H         1 IXX         0.0777
     46 H25       -43.5297    9.4784    1.9667 H         1 IXX         0.0777
@<TRIPOS>BOND
     1    1    2 ar 
     2    9    1 1  
     3    1   14 ar 
     4    2    3 ar 
     5    3    4 ar 
     6    5    4 ar 
     7   14    5 ar 
     8    6   10 ar 
     9   13    6 ar 
    10    8    7 1  
    11   14    7 1  
    12   15    8 1  
    13    9   16 1  
    14   17    9 1  
    15   12   10 ar 
    16   19   11 1  
    17   11   20 1  
    18   11   21 1  
    19   15   12 ar 
    20   16   13 ar 
    21   16   15 ar 
    22   18   17 1  
    23   18   19 1  
    24    2   22 1  
    25    3   23 1  
    26    4   24 1  
    27    5   25 1  
    28    6   26 1  
    29    7   27 1  
    30    7   28 1  
    31    8   29 1  
    32    8   30 1  
    33   10   31 1  
    34   11   32 1  
    35   12   33 1  
    36   13   34 1  
    37   17   35 1  
    38   17   36 1  
    39   18   37 1  
    40   18   38 1  
    41   19   39 1  
    42   19   40 1  
    43   20   41 1  
    44   20   42 1  
    45   20   43 1  
    46   21   44 1  
    47   21   45 1  
    48   21   46 1  
@<TRIPOS>SUBSTRUCTURE
     1 IXX         1

