### 
### Created by X-TOOL on Wed Jan  1 15:39:35 2020
### 

@<TRIPOS>MOLECULE
6g9d_ligand
   60    63     1     0     0
SMALL
GAST_HUCK


@<TRIPOS>ATOM
      1 C1         -1.0030    6.7350   48.4720 C.3       1 ER8        -0.0396
      2 C2          0.3070    7.4420   48.8160 C.3       1 ER8         0.0447
      3 C3          0.0360    8.6250   49.7470 C.3       1 ER8        -0.0396
      4 C6          2.1770    8.3700   47.3940 C.2       1 ER8         0.1993
      5 C8          2.5310    8.8020   45.9830 C.3       1 ER8         0.1244
      6 C10         4.6840   10.1100   45.5920 C.3       1 ER8         0.0748
      7 C11         6.0790    9.6350   45.2900 C.ar      1 ER8         0.0042
      8 C12         7.2510   10.3380   45.1030 C.ar      1 ER8        -0.0474
      9 C13         8.4350    9.6650   44.8250 C.ar      1 ER8        -0.0498
     10 C14         8.4630    8.2750   44.6960 C.ar      1 ER8         0.0036
     11 C15         7.2590    7.5730   44.8820 C.ar      1 ER8        -0.0337
     12 C16         6.0890    8.2560   45.1750 C.ar      1 ER8         0.0589
     13 C19         9.7550    7.5830   44.4240 C.ar      1 ER8         0.0642
     14 C21        11.8750    7.7090   43.4760 C.ar      1 ER8         0.1879
     15 C23        12.4760    9.6590   42.0960 C.3       1 ER8         0.0461
     16 C24        13.7470   10.4720   41.8950 C.3       1 ER8        -0.0060
     17 C25        13.4450   11.7210   41.0810 C.3       1 ER8         0.0498
     18 C27        11.6120   10.7100   39.9780 C.3       1 ER8         0.0498
     19 C28        11.7880    9.4070   40.7510 C.3       1 ER8        -0.0060
     20 C31        10.1220    6.3150   44.9030 C.ar      1 ER8         0.0819
     21 C4          1.2670    6.4570   49.4860 C.3       1 ER8        -0.0396
     22 N5          0.9120    7.9450   47.5660 N.am      1 ER8        -0.2800
     23 O7          3.0050    8.4120   48.3010 O.2       1 ER8        -0.3948
     24 N9          3.9640    8.8500   45.7390 N.am      1 ER8        -0.2415
     25 C17         4.7130    7.7600   45.4080 C.2       1 ER8         0.2080
     26 O18         4.2930    6.6110   45.3310 O.2       1 ER8        -0.3878
     27 N20        10.6620    8.2830   43.7230 N.ar      1 ER8        -0.2529
     28 N22        12.7610    8.4120   42.7640 N.pl3     1 ER8        -0.2863
     29 O26        12.8700   11.3880   39.8010 O.3       1 ER8        -0.3796
     30 N29        12.2760    6.4910   43.9000 N.ar      1 ER8        -0.2569
     31 C30        11.3760    5.8010   44.6150 C.ar      1 ER8         0.0254
     32 CL3         9.0300    5.3570   45.8430 Cl        1 ER8        -0.0667
     33 H1         -1.4669    6.3539   49.3937 H         1 ER8         0.0254
     34 H2         -0.7990    5.8962   47.7903 H         1 ER8         0.0254
     35 H3         -1.6863    7.4459   47.9844 H         1 ER8         0.0254
     36 H4          0.9848    9.1266   49.9882 H         1 ER8         0.0254
     37 H5         -0.4330    8.2625   50.6736 H         1 ER8         0.0254
     38 H6         -0.6386    9.3368   49.2487 H         1 ER8         0.0254
     39 H7          2.1135    9.8048   45.8097 H         1 ER8         0.0767
     40 H8          2.0801    8.0899   45.2762 H         1 ER8         0.0767
     41 H9          4.2771   10.7093   44.7642 H         1 ER8         0.0711
     42 H10         4.6538   10.6990   46.5205 H         1 ER8         0.0711
     43 H11         7.2486   11.4197   45.1731 H         1 ER8         0.0582
     44 H12         9.3529   10.2293   44.7062 H         1 ER8         0.0675
     45 H13         7.2457    6.4925   44.7958 H         1 ER8         0.0695
     46 H14        11.7915   10.2404   42.7312 H         1 ER8         0.0561
     47 H15        14.4895    9.8606   41.3613 H         1 ER8         0.0310
     48 H16        14.1502   10.7654   42.8755 H         1 ER8         0.0310
     49 H17        14.3798   12.2778   40.9195 H         1 ER8         0.0560
     50 H18        12.7357   12.3494   41.6394 H         1 ER8         0.0560
     51 H19        10.9264   11.3665   40.5339 H         1 ER8         0.0560
     52 H20        11.1841   10.4853   38.9899 H         1 ER8         0.0560
     53 H21        10.7999    8.9582   40.9302 H         1 ER8         0.0310
     54 H22        12.4024    8.7153   40.1560 H         1 ER8         0.0310
     55 H23         1.4554    5.6107   48.8091 H         1 ER8         0.0254
     56 H24         0.8195    6.0868   50.4202 H         1 ER8         0.0254
     57 H25         2.2163    6.9653   49.7104 H         1 ER8         0.0254
     58 H26         0.3182    7.9726   46.7619 H         1 ER8         0.1857
     59 H27        13.7169    8.0364   42.6864 H         1 ER8         0.1866
     60 H28        11.6367    4.8134   44.9779 H         1 ER8         0.0891
@<TRIPOS>BOND
     1    2    1 1  
     2    2    3 1  
     3    2   21 1  
     4   22    2 1  
     5    5    4 1  
     6    4   22 am 
     7    4   23 2  
     8   24    5 1  
     9    7    6 1  
    10    6   24 1  
    11    8    7 ar 
    12   12    7 ar 
    13    9    8 ar 
    14   10    9 ar 
    15   10   11 ar 
    16   13   10 1  
    17   11   12 ar 
    18   12   25 1  
    19   13   20 ar 
    20   27   13 ar 
    21   14   27 ar 
    22   28   14 1  
    23   14   30 ar 
    24   15   16 1  
    25   15   19 1  
    26   15   28 1  
    27   16   17 1  
    28   17   29 1  
    29   19   18 1  
    30   18   29 1  
    31   20   31 ar 
    32   20   32 1  
    33   24   25 am 
    34   25   26 2  
    35   30   31 ar 
    36    1   33 1  
    37    1   34 1  
    38    1   35 1  
    39    3   36 1  
    40    3   37 1  
    41    3   38 1  
    42    5   39 1  
    43    5   40 1  
    44    6   41 1  
    45    6   42 1  
    46    8   43 1  
    47    9   44 1  
    48   11   45 1  
    49   15   46 1  
    50   16   47 1  
    51   16   48 1  
    52   17   49 1  
    53   17   50 1  
    54   18   51 1  
    55   18   52 1  
    56   19   53 1  
    57   19   54 1  
    58   21   55 1  
    59   21   56 1  
    60   21   57 1  
    61   22   58 1  
    62   28   59 1  
    63   31   60 1  
@<TRIPOS>SUBSTRUCTURE
     1 ER8         1

