### 
### Created by X-TOOL on Mon Aug  2 16:10:04 2021
### 

@<TRIPOS>MOLECULE
6g9f_ligand
   30    30     1     0     0
SMALL
GAST_HUCK


@<TRIPOS>ATOM
      1 OAC        11.0040   38.5670   43.5520 O.2       1 NXL        -0.3828
      2 CAN        10.1390   37.8770   43.0580 C.2       1 NXL         0.1743
      3 N           9.0560   37.5410   43.7280 N.am      1 NXL        -0.2479
      4 CAJ         7.8480   36.9390   43.1930 C.3       1 NXL         0.0807
      5 CA          9.0640   37.7540   45.1700 C.3       1 NXL         0.1340
      6 C           9.0640   36.4410   45.8940 C.2       1 NXL         0.1996
      7 O           8.3980   36.3200   46.9030 O.2       1 NXL        -0.3947
      8 NAA         9.8130   35.4570   45.4010 N.am      1 NXL        -0.2989
      9 CB          7.8620   38.6340   45.5300 C.3       1 NXL        -0.0069
     10 CAH         6.5740   38.1680   44.8640 C.3       1 NXL        -0.0025
     11 CAO         6.7710   37.9920   43.3720 C.3       1 NXL         0.0316
     12 NAK         7.1810   39.2680   42.7500 N.4       1 NXL         0.4138
     13 OAL         6.3130   40.2500   43.0950 O.3       1 NXL        -0.2010
     14 SAR         6.6690   41.7480   42.9400 S.o2      1 NXL        -0.0327
     15 OAD         7.3770   42.2770   44.1290 O.co2     1 NXL        -0.4578
     16 OAE         7.5910   41.9030   41.7930 O.co2     1 NXL        -0.4578
     17 OAG         5.4100   42.5130   42.7260 O.co2     1 NXL        -0.4578
     18 H1         10.2601   37.5259   42.0343 H         1 NXL         0.1547
     19 H2          7.5919   36.0257   43.7501 H         1 NXL         0.0583
     20 H3          7.9767   36.6950   42.1282 H         1 NXL         0.0583
     21 H4          9.9829   38.2925   45.4451 H         1 NXL         0.0804
     22 H5          9.8360   34.5685   45.8592 H         1 NXL         0.1815
     23 H6         10.3527   35.6064   44.5725 H         1 NXL         0.1815
     24 H7          8.0715   39.6650   45.2088 H         1 NXL         0.0314
     25 H8          7.7227   38.6109   46.6209 H         1 NXL         0.0314
     26 H9          5.7872   38.9168   45.0377 H         1 NXL         0.0323
     27 H10         6.2687   37.2067   45.3030 H         1 NXL         0.0323
     28 H11         5.8337   37.6502   42.9087 H         1 NXL         0.0882
     29 H12         7.1868   39.1643   41.7474 H         1 NXL         0.2382
     30 H13         8.1057   39.5127   43.0678 H         1 NXL         0.2382
@<TRIPOS>BOND
     1    1    2 2  
     2    2    3 am 
     3    3    4 1  
     4    3    5 1  
     5    4   11 1  
     6    5    6 1  
     7    5    9 1  
     8    6    7 2  
     9    6    8 am 
    10    9   10 1  
    11   10   11 1  
    12   11   12 1  
    13   12   13 1  
    14   13   14 1  
    15   14   15 ar 
    16   14   16 ar 
    17   14   17 ar 
    18    2   18 1  
    19    4   19 1  
    20    4   20 1  
    21    5   21 1  
    22    8   22 1  
    23    8   23 1  
    24    9   24 1  
    25    9   25 1  
    26   10   26 1  
    27   10   27 1  
    28   11   28 1  
    29   12   29 1  
    30   12   30 1  
@<TRIPOS>SUBSTRUCTURE
     1 NXL         1

