### 
### Created by X-TOOL on Wed Jan  1 15:39:35 2020
### 

@<TRIPOS>MOLECULE
6g9h_ligand
   63    66     1     0     0
SMALL
GAST_HUCK


@<TRIPOS>ATOM
      1 C1         -0.9180    9.4780   46.8030 C.3       1 ERW         0.0232
      2 C3          1.3210    8.6320   47.3360 C.2       1 ERW         0.2015
      3 C5          1.6530    8.8570   45.8510 C.3       1 ERW         0.1246
      4 C7          3.8410   10.1270   45.4790 C.3       1 ERW         0.0748
      5 C8          5.2390    9.6280   45.2660 C.ar      1 ERW         0.0042
      6 C10         7.6190    9.6270   44.9190 C.ar      1 ERW        -0.0498
      7 C11         7.6460    8.2340   44.8450 C.ar      1 ERW         0.0036
      8 C12         6.4330    7.5480   44.9850 C.ar      1 ERW        -0.0337
      9 C13         5.2310    8.2470   45.1930 C.ar      1 ERW         0.0589
     10 C14         3.8380    7.7670   45.4140 C.2       1 ERW         0.2080
     11 C16         8.9520    7.5440   44.6410 C.ar      1 ERW         0.0642
     12 C21        12.8970   10.4160   42.1180 C.3       1 ERW        -0.0060
     13 C22        12.6610   11.6790   41.3240 C.3       1 ERW         0.0498
     14 C24        10.8330   10.7800   40.1750 C.3       1 ERW         0.0498
     15 C25        10.9350    9.4570   40.8950 C.3       1 ERW        -0.0060
     16 C27        10.5830    5.8320   44.9180 C.ar      1 ERW         0.0254
     17 C28         9.3210    6.3250   45.2060 C.ar      1 ERW         0.0819
     18 C31        -0.0240    6.7000   49.0790 C.3       1 ERW        -0.0394
     19 N2          0.0150    8.8110   47.7150 N.am      1 ERW        -0.2693
     20 O4          2.1990    8.3050   48.1260 O.2       1 ERW        -0.3946
     21 N6          3.0800    8.8800   45.5960 N.am      1 ERW        -0.2415
     22 C9          6.4340   10.3150   45.1080 C.ar      1 ERW        -0.0474
     23 O15         3.4190    6.6200   45.4450 O.2       1 ERW        -0.3878
     24 N17         9.8080    8.2090   43.8710 N.ar      1 ERW        -0.2529
     25 C18        11.0120    7.6510   43.6490 C.ar      1 ERW         0.1879
     26 N19        11.8680    8.3440   42.8770 N.pl3     1 ERW        -0.2863
     27 C20        11.6020    9.6380   42.2580 C.3       1 ERW         0.0461
     28 O23        12.1260   11.3920   40.0330 O.3       1 ERW        -0.3796
     29 N26        11.4480    6.4760   44.1300 N.ar      1 ERW        -0.2569
     30 CL2         8.2800    5.4130   46.2450 Cl        1 ERW        -0.0667
     31 C30        -0.5060    8.1470   48.9710 C.3       1 ERW         0.0473
     32 C32        -0.0210    8.9240   50.1900 C.3       1 ERW        -0.0394
     33 C33        -2.0370    8.1090   49.0290 C.3       1 ERW        -0.0394
     34 H1         -0.3616    9.8989   45.9525 H         1 ERW         0.0486
     35 H2         -1.4380   10.2868   47.3373 H         1 ERW         0.0486
     36 H3         -1.6548    8.7491   46.4344 H         1 ERW         0.0486
     37 H4          1.2233    9.8193   45.5358 H         1 ERW         0.0767
     38 H5          1.2030    8.0440   45.2623 H         1 ERW         0.0767
     39 H6          3.4965   10.7252   44.6226 H         1 ERW         0.0711
     40 H7          3.7675   10.7265   46.3983 H         1 ERW         0.0711
     41 H8          8.5458   10.1815   44.8265 H         1 ERW         0.0675
     42 H9          6.4208    6.4653   44.9324 H         1 ERW         0.0695
     43 H10        13.2728   10.6796   43.1176 H         1 ERW         0.0310
     44 H11        13.6409    9.7937   41.5990 H         1 ERW         0.0310
     45 H12        13.6168   12.2103   41.2049 H         1 ERW         0.0560
     46 H13        11.9520   12.3179   41.8708 H         1 ERW         0.0560
     47 H14        10.1784   11.4522   40.7491 H         1 ERW         0.0560
     48 H15        10.4026   10.6136   39.1765 H         1 ERW         0.0560
     49 H16        11.5333    8.7606   40.2892 H         1 ERW         0.0310
     50 H17         9.9255    9.0443   41.0383 H         1 ERW         0.0310
     51 H18        10.8811    4.8837   45.3503 H         1 ERW         0.0891
     52 H19        -0.4203    6.2494   50.0009 H         1 ERW         0.0254
     53 H20         1.0755    6.6807   49.1048 H         1 ERW         0.0254
     54 H21        -0.3805    6.1289   48.2091 H         1 ERW         0.0254
     55 H22         6.4390   11.3987   45.1328 H         1 ERW         0.0582
     56 H23        12.7931    7.9240   42.7079 H         1 ERW         0.1866
     57 H24        10.9192   10.2049   42.9079 H         1 ERW         0.0561
     58 H25        -0.3637    9.9669   50.1202 H         1 ERW         0.0254
     59 H26         1.0782    8.9009   50.2261 H         1 ERW         0.0254
     60 H27        -0.4276    8.4648   51.1031 H         1 ERW         0.0254
     61 H28        -2.4322    9.1328   48.9545 H         1 ERW         0.0254
     62 H29        -2.3569    7.6609   49.9813 H         1 ERW         0.0254
     63 H30        -2.4208    7.5061   48.1928 H         1 ERW         0.0254
@<TRIPOS>BOND
     1   19    1 1  
     2    3    2 1  
     3    2   19 am 
     4    2   20 2  
     5   21    3 1  
     6    5    4 1  
     7   21    4 1  
     8    9    5 ar 
     9   22    5 ar 
    10    7    6 ar 
    11    6   22 ar 
    12    7    8 ar 
    13   11    7 1  
    14    8    9 ar 
    15    9   10 1  
    16   10   21 am 
    17   10   23 2  
    18   11   17 ar 
    19   24   11 ar 
    20   12   13 1  
    21   27   12 1  
    22   13   28 1  
    23   15   14 1  
    24   14   28 1  
    25   27   15 1  
    26   16   17 ar 
    27   29   16 ar 
    28   17   30 1  
    29   31   18 1  
    30   19   31 1  
    31   25   24 ar 
    32   26   25 1  
    33   25   29 ar 
    34   26   27 1  
    35   31   32 1  
    36   31   33 1  
    37    1   34 1  
    38    1   35 1  
    39    1   36 1  
    40    3   37 1  
    41    3   38 1  
    42    4   39 1  
    43    4   40 1  
    44    6   41 1  
    45    8   42 1  
    46   12   43 1  
    47   12   44 1  
    48   13   45 1  
    49   13   46 1  
    50   14   47 1  
    51   14   48 1  
    52   15   49 1  
    53   15   50 1  
    54   16   51 1  
    55   18   52 1  
    56   18   53 1  
    57   18   54 1  
    58   22   55 1  
    59   26   56 1  
    60   27   57 1  
    61   32   58 1  
    62   32   59 1  
    63   32   60 1  
    64   33   61 1  
    65   33   62 1  
    66   33   63 1  
@<TRIPOS>SUBSTRUCTURE
     1 ERW         1

