### 
### Created by X-TOOL on Wed Jan  1 15:39:36 2020
### 

@<TRIPOS>MOLECULE
6g9i_ligand
   46    48     1     0     0
SMALL
GAST_HUCK


@<TRIPOS>ATOM
      1 C1        -46.0460   13.5580   -5.7700 C.ar      1 CXX        -0.0326
      2 C2        -45.8490   14.0080   -7.0720 C.ar      1 CXX         0.0225
      3 C3        -46.4530   13.3390   -8.1260 C.ar      1 CXX        -0.0671
      4 C4        -47.2500   12.2320   -7.8610 C.ar      1 CXX        -0.0697
      5 C5        -48.3360   10.5510   -6.4100 C.3       1 CXX        -0.0136
      6 C6        -48.1290    9.7710   -5.1190 C.3       1 CXX        -0.0137
      7 C8        -50.6370   10.8920   -2.4990 C.ar      1 CXX        -0.0811
      8 C9        -50.0230   12.0510   -2.0350 C.ar      1 CXX        -0.0795
      9 C10       -48.8050   12.4510   -2.5760 C.ar      1 CXX        -0.0464
     10 C11       -48.2020   11.6980   -3.5820 C.ar      1 CXX         0.0618
     11 C13       -47.4470   11.7720   -6.5590 C.ar      1 CXX        -0.0182
     12 C14       -46.8430   12.4480   -5.4950 C.ar      1 CXX         0.0624
     13 C17       -45.1790   11.2010   -1.0670 C.3       1 CXX        -0.0303
     14 C18       -44.4840   10.1950    0.9890 C.3       1 CXX        -0.0433
     15 C7        -50.0310   10.1390   -3.5000 C.ar      1 CXX        -0.0704
     16 C12       -48.8130   10.5500   -4.0300 C.ar      1 CXX        -0.0185
     17 C15       -45.7910   12.1730   -3.2880 C.3       1 CXX         0.0469
     18 C16       -45.7340   10.8970   -2.4530 C.3       1 CXX         0.0107
     19 C19       -43.3590    9.6390   -1.0610 C.3       1 CXX        -0.0433
     20 N1        -46.9720   12.0860   -4.1390 N.pl3     1 CXX        -0.2667
     21 N2        -44.6560    9.9730   -0.4540 N.4       1 CXX         0.2310
     22 CL2       -44.8170   15.4460   -7.3890 Cl        1 CXX        -0.0803
     23 H1        -45.5685   14.0829   -4.9505 H         1 CXX         0.0511
     24 H2        -46.3050   13.6760   -9.1456 H         1 CXX         0.0501
     25 H3        -47.7292   11.7145   -8.6842 H         1 CXX         0.0522
     26 H4        -49.3840   10.8831   -6.4461 H         1 CXX         0.0422
     27 H5        -48.1360    9.8757   -7.2549 H         1 CXX         0.0422
     28 H6        -47.0550    9.6771   -4.9007 H         1 CXX         0.0422
     29 H7        -48.5746    8.7691   -5.2057 H         1 CXX         0.0422
     30 H8        -51.5861   10.5760   -2.0813 H         1 CXX         0.0494
     31 H9        -50.4916   12.6401   -1.2550 H         1 CXX         0.0528
     32 H10       -48.3232   13.3519   -2.2136 H         1 CXX         0.0506
     33 H11       -45.9811   11.6102   -0.4352 H         1 CXX         0.0815
     34 H12       -44.3678   11.9388   -1.1534 H         1 CXX         0.0815
     35 H13       -44.0923    9.2796    1.4566 H         1 CXX         0.0777
     36 H14       -45.4548   10.4501    1.4390 H         1 CXX         0.0777
     37 H15       -43.7762   11.0213    1.1511 H         1 CXX         0.0777
     38 H16       -50.5065    9.2358   -3.8651 H         1 CXX         0.0521
     39 H17       -44.8864   12.2571   -3.9081 H         1 CXX         0.0560
     40 H18       -45.8666   13.0504   -2.6289 H         1 CXX         0.0560
     41 H19       -46.7475   10.4807   -2.3556 H         1 CXX         0.0340
     42 H20       -45.0832   10.1644   -2.9526 H         1 CXX         0.0340
     43 H21       -43.4911    9.4735   -2.1404 H         1 CXX         0.0777
     44 H22       -42.9610    8.7250   -0.5960 H         1 CXX         0.0777
     45 H23       -42.6546   10.4686   -0.9008 H         1 CXX         0.0777
     46 H24       -45.3039    9.2157   -0.6051 H         1 CXX         0.2028
@<TRIPOS>BOND
     1    1    2 ar 
     2   12    1 ar 
     3    2    3 ar 
     4    2   22 1  
     5    4    3 ar 
     6   11    4 ar 
     7    5    6 1  
     8   11    5 1  
     9   16    6 1  
    10    8    7 ar 
    11   15    7 ar 
    12    9    8 ar 
    13   10    9 ar 
    14   10   16 ar 
    15   20   10 1  
    16   12   11 ar 
    17   20   12 1  
    18   18   13 1  
    19   13   21 1  
    20   21   14 1  
    21   16   15 ar 
    22   17   18 1  
    23   17   20 1  
    24   21   19 1  
    25    1   23 1  
    26    3   24 1  
    27    4   25 1  
    28    5   26 1  
    29    5   27 1  
    30    6   28 1  
    31    6   29 1  
    32    7   30 1  
    33    8   31 1  
    34    9   32 1  
    35   13   33 1  
    36   13   34 1  
    37   14   35 1  
    38   14   36 1  
    39   14   37 1  
    40   15   38 1  
    41   17   39 1  
    42   17   40 1  
    43   18   41 1  
    44   18   42 1  
    45   19   43 1  
    46   19   44 1  
    47   19   45 1  
    48   21   46 1  
@<TRIPOS>SUBSTRUCTURE
     1 CXX         1

