### 
### Created by X-TOOL on Wed Jan  1 15:39:35 2020
### 

@<TRIPOS>MOLECULE
6g9j_ligand
   64    68     1     0     0
SMALL
GAST_HUCK


@<TRIPOS>ATOM
      1 C1         -0.9640    6.8720   48.5120 C.3       1 ERK        -0.0319
      2 C2         -0.1020    8.0850   48.8380 C.3       1 ERK         0.0727
      3 C6          2.3370    8.6170   45.9480 C.3       1 ERK         0.1246
      4 C8          4.5500    9.9000   45.9100 C.3       1 ERK         0.0748
      5 C10         7.1180   10.1530   45.4700 C.ar      1 ERK        -0.0474
      6 C11         8.2870    9.5120   45.1140 C.ar      1 ERK        -0.0498
      7 C12         8.3030    8.1560   44.7860 C.ar      1 ERK         0.0036
      8 C13         7.1050    7.4330   44.8940 C.ar      1 ERK        -0.0337
      9 C14         5.9210    8.0910   45.2650 C.ar      1 ERK         0.0589
     10 C15         4.5340    7.5890   45.4170 C.2       1 ERK         0.2080
     11 N18        10.4360    8.2650   43.6710 N.ar      1 ERK        -0.2529
     12 C19        11.6310    7.7080   43.3970 C.ar      1 ERK         0.1879
     13 C21        12.2220    9.6880   41.9780 C.3       1 ERK         0.0461
     14 C22        13.5220   10.4160   41.7050 C.3       1 ERK        -0.0060
     15 C23        13.1970   11.6930   40.9770 C.3       1 ERK         0.0498
     16 C25        11.2670   10.8140   39.9840 C.3       1 ERK         0.0498
     17 C26        11.4400    9.4900   40.6890 C.3       1 ERK        -0.0060
     18 C28        11.2430    5.8260   44.6010 C.ar      1 ERK         0.0254
     19 C31        -0.9480    9.1610   49.4990 C.ar      1 ERK        -0.0183
     20 C35        -2.3630   11.1100   49.3720 C.ar      1 ERK        -0.0685
     21 C36        -1.5830   10.1450   48.7530 C.ar      1 ERK        -0.0582
     22 N3          0.5750    8.5310   47.6140 N.am      1 ERK        -0.2712
     23 C4          1.8600    8.2860   47.3540 C.2       1 ERK         0.2009
     24 O5          2.6260    7.8260   48.1890 O.2       1 ERK        -0.3947
     25 N7          3.7790    8.6560   45.7920 N.am      1 ERK        -0.2415
     26 C9          5.9350    9.4470   45.5580 C.ar      1 ERK         0.0042
     27 O16         4.1130    6.4580   45.2500 O.2       1 ERK        -0.3878
     28 C17         9.6050    7.5260   44.4430 C.ar      1 ERK         0.0642
     29 N20        12.4910    8.4110   42.6260 N.pl3     1 ERK        -0.2863
     30 O24        12.5220   11.4330   39.7390 O.3       1 ERK        -0.3796
     31 N27        12.0850    6.5190   43.8280 N.ar      1 ERK        -0.2569
     32 C29         9.9890    6.2970   44.9490 C.ar      1 ERK         0.0819
     33 CL3         8.9700    5.3310   45.9660 Cl        1 ERK        -0.0667
     34 C32        -1.1280    9.1550   50.8770 C.ar      1 ERK        -0.0582
     35 C33        -1.9040   10.1260   51.4930 C.ar      1 ERK        -0.0685
     36 C34        -2.5250   11.0990   50.7390 C.ar      1 ERK        -0.0687
     37 H1         -0.3438    6.0992   48.0344 H         1 ERK         0.0274
     38 H2         -1.7714    7.1694   47.8267 H         1 ERK         0.0274
     39 H3         -1.3991    6.4714   49.4395 H         1 ERK         0.0274
     40 H4          0.6718    7.7813   49.5584 H         1 ERK         0.0716
     41 H5          1.9356    9.6035   45.6730 H         1 ERK         0.0767
     42 H6          1.9384    7.8548   45.2623 H         1 ERK         0.0767
     43 H7          4.5090   10.2993   46.9341 H         1 ERK         0.0711
     44 H8          4.1881   10.6623   45.2044 H         1 ERK         0.0711
     45 H9          7.1287   11.2161   45.6816 H         1 ERK         0.0582
     46 H10         9.2133   10.0744   45.0886 H         1 ERK         0.0675
     47 H11         7.0935    6.3682   44.6913 H         1 ERK         0.0695
     48 H12        11.6149   10.3020   42.6595 H         1 ERK         0.0561
     49 H13        14.1776    9.7886   41.0833 H         1 ERK         0.0310
     50 H14        14.0274   10.6461   42.6545 H         1 ERK         0.0310
     51 H15        14.1319   12.2336   40.7680 H         1 ERK         0.0560
     52 H16        12.5494   12.3132   41.6141 H         1 ERK         0.0560
     53 H17        10.6559   11.4783   40.6128 H         1 ERK         0.0560
     54 H18        10.7565   10.6456   39.0243 H         1 ERK         0.0560
     55 H19        10.4509    9.0697   40.9234 H         1 ERK         0.0310
     56 H20        11.9871    8.7965   40.0334 H         1 ERK         0.0310
     57 H21        11.5550    4.8558   44.9703 H         1 ERK         0.0891
     58 H22        -2.8471   11.8761   48.7771 H         1 ERK         0.0599
     59 H23        -1.4677   10.1590   47.6752 H         1 ERK         0.0557
     60 H24         0.0449    9.0454   46.9399 H         1 ERK         0.1881
     61 H25        13.4266    8.0046   42.4830 H         1 ERK         0.1866
     62 H26        -0.6574    8.3840   51.4764 H         1 ERK         0.0557
     63 H27        -2.0225   10.1197   52.5705 H         1 ERK         0.0599
     64 H28        -3.1382   11.8521   51.2205 H         1 ERK         0.0559
@<TRIPOS>BOND
     1    2    1 1  
     2    2   19 1  
     3   22    2 1  
     4   23    3 1  
     5    3   25 1  
     6   25    4 1  
     7    4   26 1  
     8    5    6 ar 
     9   26    5 ar 
    10    7    6 ar 
    11    8    7 ar 
    12    7   28 1  
    13    9    8 ar 
    14   10    9 1  
    15    9   26 ar 
    16   25   10 am 
    17   10   27 2  
    18   11   12 ar 
    19   28   11 ar 
    20   12   29 1  
    21   12   31 ar 
    22   13   14 1  
    23   13   17 1  
    24   29   13 1  
    25   14   15 1  
    26   15   30 1  
    27   17   16 1  
    28   16   30 1  
    29   31   18 ar 
    30   18   32 ar 
    31   19   21 ar 
    32   19   34 ar 
    33   21   20 ar 
    34   20   36 ar 
    35   22   23 am 
    36   23   24 2  
    37   28   32 ar 
    38   32   33 1  
    39   34   35 ar 
    40   35   36 ar 
    41    1   37 1  
    42    1   38 1  
    43    1   39 1  
    44    2   40 1  
    45    3   41 1  
    46    3   42 1  
    47    4   43 1  
    48    4   44 1  
    49    5   45 1  
    50    6   46 1  
    51    8   47 1  
    52   13   48 1  
    53   14   49 1  
    54   14   50 1  
    55   15   51 1  
    56   15   52 1  
    57   16   53 1  
    58   16   54 1  
    59   17   55 1  
    60   17   56 1  
    61   18   57 1  
    62   20   58 1  
    63   21   59 1  
    64   22   60 1  
    65   29   61 1  
    66   34   62 1  
    67   35   63 1  
    68   36   64 1  
@<TRIPOS>SUBSTRUCTURE
     1 ERK         1

