### 
### Created by X-TOOL on Wed Jan  1 15:39:35 2020
### 

@<TRIPOS>MOLECULE
6g9k_ligand
   65    69     1     0     0
SMALL
GAST_HUCK


@<TRIPOS>ATOM
      1 C2         -0.4890    7.0710   48.2010 C.3       1 ESK         0.0768
      2 C3          0.3710    8.2810   48.5730 C.3       1 ESK         0.0986
      3 N4          1.0620    8.7520   47.3790 N.am      1 ESK        -0.2687
      4 C5          2.3340    8.4610   47.1050 C.2       1 ESK         0.2010
      5 C7          2.7690    8.7420   45.6800 C.3       1 ESK         0.1246
      6 C10         6.3680    9.5360   45.2760 C.ar      1 ESK         0.0042
      7 C11         7.5570   10.2370   45.1780 C.ar      1 ESK        -0.0474
      8 C12         8.7240    9.5780   44.8380 C.ar      1 ESK        -0.0498
      9 C13         8.7330    8.2060   44.5740 C.ar      1 ESK         0.0036
     10 C14         7.5270    7.4980   44.6820 C.ar      1 ESK        -0.0337
     11 C15         6.3480    8.1740   45.0180 C.ar      1 ESK         0.0589
     12 C16         4.9620    7.6760   45.2010 C.2       1 ESK         0.2080
     13 O17         4.5400    6.5270   45.1240 O.2       1 ESK        -0.3878
     14 C22        12.6530    9.6830   41.7890 C.3       1 ESK         0.0461
     15 C23        13.9490   10.3880   41.4590 C.3       1 ESK        -0.0060
     16 C24        13.5810   11.6840   40.7920 C.3       1 ESK         0.0498
     17 C26        11.6210   10.8030   39.8390 C.3       1 ESK         0.0498
     18 C27        11.8370    9.4750   40.5260 C.3       1 ESK        -0.0060
     19 C35        -2.1240   11.2900   50.3850 C.ar      1 ESK        -0.0687
     20 C36        -1.6700   10.2190   51.1280 C.ar      1 ESK        -0.0685
     21 C37        -0.8660    9.2530   50.5410 C.ar      1 ESK        -0.0581
     22 O1         -1.3710    7.3710   47.1300 O.3       1 ESK        -0.3906
     23 O6          3.1140    7.9960   47.9310 O.2       1 ESK        -0.3947
     24 N8          4.2070    8.7690   45.4940 N.am      1 ESK        -0.2415
     25 C9          4.9840   10.0060   45.5980 C.3       1 ESK         0.0748
     26 C18        10.0240    7.5440   44.2430 C.ar      1 ESK         0.0642
     27 N19        10.8620    8.2700   43.4850 N.ar      1 ESK        -0.2529
     28 C20        12.0540    7.7070   43.2060 C.ar      1 ESK         0.1879
     29 N21        12.9170    8.4070   42.4450 N.pl3     1 ESK        -0.2863
     30 O25        12.8620   11.4590   39.5720 O.3       1 ESK        -0.3796
     31 N28        12.4820    6.4960   43.5950 N.ar      1 ESK        -0.2569
     32 C29        11.6350    5.8090   44.3590 C.ar      1 ESK         0.0254
     33 C30        10.3830    6.2880   44.7030 C.ar      1 ESK         0.0819
     34 CL1         9.3560    5.3130   45.6900 Cl        1 ESK        -0.0667
     35 C32        -0.5010    9.3530   49.2060 C.ar      1 ESK        -0.0158
     36 C33        -0.9690   10.4380   48.4690 C.ar      1 ESK        -0.0581
     37 C34        -1.7750   11.3980   49.0560 C.ar      1 ESK        -0.0685
     38 H1         -1.0807    6.7695   49.0779 H         1 ESK         0.0603
     39 H2          0.1696    6.2428   47.9007 H         1 ESK         0.0603
     40 H3          1.1254    7.9709   49.3111 H         1 ESK         0.0742
     41 H4          0.5560    9.3227   46.7322 H         1 ESK         0.1882
     42 H5          2.3638    9.7201   45.3817 H         1 ESK         0.0767
     43 H6          2.3514    7.9585   45.0305 H         1 ESK         0.0767
     44 H7          7.5735   11.3041   45.3680 H         1 ESK         0.0582
     45 H8          9.6506   10.1371   44.7750 H         1 ESK         0.0675
     46 H9          7.5079    6.4286   44.5055 H         1 ESK         0.0695
     47 H10        12.0755   10.3162   42.4786 H         1 ESK         0.0561
     48 H11        14.5535    9.7703   40.7786 H         1 ESK         0.0310
     49 H12        14.5184   10.5842   42.3795 H         1 ESK         0.0310
     50 H13        14.5004   12.2446   40.5673 H         1 ESK         0.0560
     51 H14        12.9508   12.2720   41.4755 H         1 ESK         0.0560
     52 H15        11.0084   11.4463   40.4877 H         1 ESK         0.0560
     53 H16        11.0942   10.6329   38.8884 H         1 ESK         0.0560
     54 H17        10.8632    9.0352   40.7873 H         1 ESK         0.0310
     55 H18        12.3763    8.7960   39.8492 H         1 ESK         0.0310
     56 H19        -2.7529   12.0436   50.8451 H         1 ESK         0.0559
     57 H20        -1.9426   10.1325   52.1736 H         1 ESK         0.0599
     58 H21        -0.5196    8.4120   51.1308 H         1 ESK         0.0557
     59 H22        -0.8657    7.6279   46.3676 H         1 ESK         0.2097
     60 H23         4.6384   10.7566   44.8720 H         1 ESK         0.0711
     61 H24         4.9313   10.4262   46.6132 H         1 ESK         0.0711
     62 H25        13.8548    8.0019   42.3133 H         1 ESK         0.1866
     63 H26        11.9384    4.8353   44.7263 H         1 ESK         0.0891
     64 H27        -0.6989   10.5318   47.4234 H         1 ESK         0.0557
     65 H28        -2.1325   12.2365   48.4693 H         1 ESK         0.0599
@<TRIPOS>BOND
     1    2    1 1  
     2    1   22 1  
     3    3    2 1  
     4    2   35 1  
     5    4    3 am 
     6    5    4 1  
     7    4   23 2  
     8   24    5 1  
     9    7    6 ar 
    10   11    6 ar 
    11    6   25 1  
    12    8    7 ar 
    13    9    8 ar 
    14    9   10 ar 
    15   26    9 1  
    16   10   11 ar 
    17   11   12 1  
    18   12   13 2  
    19   12   24 am 
    20   14   15 1  
    21   14   18 1  
    22   29   14 1  
    23   15   16 1  
    24   16   30 1  
    25   18   17 1  
    26   17   30 1  
    27   20   19 ar 
    28   19   37 ar 
    29   21   20 ar 
    30   35   21 ar 
    31   24   25 1  
    32   27   26 ar 
    33   26   33 ar 
    34   28   27 ar 
    35   28   29 1  
    36   28   31 ar 
    37   31   32 ar 
    38   32   33 ar 
    39   33   34 1  
    40   35   36 ar 
    41   36   37 ar 
    42    1   38 1  
    43    1   39 1  
    44    2   40 1  
    45    3   41 1  
    46    5   42 1  
    47    5   43 1  
    48    7   44 1  
    49    8   45 1  
    50   10   46 1  
    51   14   47 1  
    52   15   48 1  
    53   15   49 1  
    54   16   50 1  
    55   16   51 1  
    56   17   52 1  
    57   17   53 1  
    58   18   54 1  
    59   18   55 1  
    60   19   56 1  
    61   20   57 1  
    62   21   58 1  
    63   22   59 1  
    64   25   60 1  
    65   25   61 1  
    66   29   62 1  
    67   32   63 1  
    68   36   64 1  
    69   37   65 1  
@<TRIPOS>SUBSTRUCTURE
     1 ESK         1

