### 
### Created by X-TOOL on Wed Jan  1 15:39:35 2020
### 

@<TRIPOS>MOLECULE
6g9m_ligand
   67    71     1     0     0
SMALL
GAST_HUCK


@<TRIPOS>ATOM
      1 C1         -0.5160   11.3870   47.8620 C.3       1 ESW        -0.0629
      2 C2          0.7310   10.5430   48.1330 C.3       1 ESW         0.0400
      3 C3          0.4390    9.5620   49.2730 C.3       1 ESW        -0.0629
      4 N4          1.0180    9.7470   46.9230 N.am      1 ESW        -0.3100
      5 C5          2.1070    8.9680   46.7700 C.2       1 ESW         0.1915
      6 C7          2.4470    8.5760   45.3420 C.3       1 ESW         0.1237
      7 C10         6.0020    9.5030   44.7690 C.ar      1 ESW         0.0042
      8 C11         7.1630   10.2360   44.5800 C.ar      1 ESW        -0.0474
      9 C12         8.3810    9.5920   44.4350 C.ar      1 ESW        -0.0498
     10 C13         8.4730    8.1990   44.4660 C.ar      1 ESW         0.0036
     11 C14         7.2930    7.4630   44.6440 C.ar      1 ESW        -0.0337
     12 C15         6.0650    8.1210   44.8090 C.ar      1 ESW         0.0589
     13 C16         4.6930    7.5880   45.0180 C.2       1 ESW         0.2080
     14 O17         4.3270    6.4310   45.0910 O.2       1 ESW        -0.3878
     15 C22        12.4710    9.6090   41.9460 C.3       1 ESW         0.0461
     16 C23        13.7560   10.3490   41.6350 C.3       1 ESW        -0.0060
     17 C24        13.4210   11.6240   40.9050 C.3       1 ESW         0.0498
     18 C26        11.4700   10.7490   39.9390 C.3       1 ESW         0.0498
     19 C27        11.6320    9.4420   40.6850 C.3       1 ESW        -0.0060
     20 C35         4.3790   12.9170   48.5040 C.ar      1 ESW        -0.0340
     21 C36         3.5870   13.0200   47.3770 C.ar      1 ESW        -0.0323
     22 C37         2.4250   12.2740   47.2720 C.ar      1 ESW        -0.0374
     23 O6          2.8050    8.5810   47.7070 O.2       1 ESW        -0.3956
     24 N8          3.8770    8.6680   45.1190 N.am      1 ESW        -0.2416
     25 C9          4.5800    9.9440   44.9580 C.3       1 ESW         0.0748
     26 C18         9.7960    7.5390   44.2960 C.ar      1 ESW         0.0642
     27 N19        10.6640    8.2030   43.5240 N.ar      1 ESW        -0.2529
     28 C20        11.8740    7.6390   43.3440 C.ar      1 ESW         0.1879
     29 N21        12.7530    8.3070   42.5610 N.pl3     1 ESW        -0.2863
     30 O25        12.7430   11.3610   39.6750 O.3       1 ESW        -0.3796
     31 N28        12.2950    6.4730   43.8630 N.ar      1 ESW        -0.2569
     32 C29        11.4160    5.8420   44.6470 C.ar      1 ESW         0.0254
     33 C30        10.1500    6.3380   44.9020 C.ar      1 ESW         0.0819
     34 CL1         9.0880    5.4450   45.9390 Cl        1 ESW        -0.0667
     35 C32         2.0300   11.4180   48.2940 C.ar      1 ESW        -0.0254
     36 C33         2.8440   11.3150   49.4190 C.ar      1 ESW        -0.0374
     37 C34         4.0040   12.0690   49.5260 C.ar      1 ESW        -0.0323
     38 H1         -0.7506   11.9905   48.7512 H         1 ESW         0.0159
     39 H2         -1.3644   10.7250   47.6339 H         1 ESW         0.0159
     40 H3         -0.3296   12.0524   47.0061 H         1 ESW         0.0159
     41 H4          1.3335    8.9531   49.4709 H         1 ESW         0.0159
     42 H5         -0.3956    8.9051   48.9868 H         1 ESW         0.0159
     43 H6          0.1696   10.1233   50.1798 H         1 ESW         0.0159
     44 H7          0.3625    9.7886   46.1689 H         1 ESW         0.1739
     45 H8          1.9277    9.2523   44.6471 H         1 ESW         0.0766
     46 H9          2.1180    7.5419   45.1619 H         1 ESW         0.0766
     47 H10         7.1178   11.3185   44.5455 H         1 ESW         0.0582
     48 H11         9.2802   10.1810   44.2947 H         1 ESW         0.0675
     49 H12         7.3297    6.3797   44.6542 H         1 ESW         0.0695
     50 H13        11.8945   10.2094   42.6651 H         1 ESW         0.0561
     51 H14        14.4005    9.7203   41.0031 H         1 ESW         0.0310
     52 H15        14.2810   10.5871   42.5719 H         1 ESW         0.0310
     53 H16        14.3525   12.1682   40.6903 H         1 ESW         0.0560
     54 H17        12.7741   12.2425   41.5444 H         1 ESW         0.0560
     55 H18        10.8617   11.4353   40.5465 H         1 ESW         0.0560
     56 H19        10.9606   10.5554   38.9835 H         1 ESW         0.0560
     57 H20        10.6369    9.0674   40.9667 H         1 ESW         0.0310
     58 H21        12.1243    8.7137   40.0239 H         1 ESW         0.0310
     59 H22         5.2899   13.4990   48.5851 H         1 ESW         0.0856
     60 H23         3.8758   13.6866   46.5725 H         1 ESW         0.0698
     61 H24         1.8146   12.3586   46.3802 H         1 ESW         0.0851
     62 H25         4.2128   10.4931   44.0784 H         1 ESW         0.0711
     63 H26         4.4736   10.5733   45.8539 H         1 ESW         0.0711
     64 H27        13.6725    7.8767   42.3869 H         1 ESW         0.1866
     65 H28        11.7071    4.9022   45.1022 H         1 ESW         0.0891
     66 H29         2.5685   10.6385   50.2199 H         1 ESW         0.0851
     67 H30         4.6180   11.9916   50.4160 H         1 ESW         0.0698
@<TRIPOS>BOND
     1    2    1 1  
     2    2    3 1  
     3    4    2 1  
     4    2   35 1  
     5    5    4 am 
     6    6    5 1  
     7    5   23 2  
     8   24    6 1  
     9    8    7 ar 
    10   12    7 ar 
    11    7   25 1  
    12    9    8 ar 
    13   10    9 ar 
    14   10   11 ar 
    15   26   10 1  
    16   11   12 ar 
    17   12   13 1  
    18   13   14 2  
    19   13   24 am 
    20   15   16 1  
    21   15   19 1  
    22   29   15 1  
    23   16   17 1  
    24   17   30 1  
    25   19   18 1  
    26   18   30 1  
    27   21   20 ar 
    28   20   37 ar 
    29   22   21 ar 
    30   35   22 ar 
    31   24   25 1  
    32   27   26 ar 
    33   26   33 ar 
    34   28   27 ar 
    35   28   29 1  
    36   28   31 ar 
    37   31   32 ar 
    38   32   33 ar 
    39   33   34 1  
    40   35   36 ar 
    41   36   37 ar 
    42    1   38 1  
    43    1   39 1  
    44    1   40 1  
    45    3   41 1  
    46    3   42 1  
    47    3   43 1  
    48    4   44 1  
    49    6   45 1  
    50    6   46 1  
    51    8   47 1  
    52    9   48 1  
    53   11   49 1  
    54   15   50 1  
    55   16   51 1  
    56   16   52 1  
    57   17   53 1  
    58   17   54 1  
    59   18   55 1  
    60   18   56 1  
    61   19   57 1  
    62   19   58 1  
    63   20   59 1  
    64   21   60 1  
    65   22   61 1  
    66   25   62 1  
    67   25   63 1  
    68   29   64 1  
    69   32   65 1  
    70   36   66 1  
    71   37   67 1  
@<TRIPOS>SUBSTRUCTURE
     1 ESW         1

