### 
### Created by X-TOOL on Wed Jan  1 15:39:35 2020
### 

@<TRIPOS>MOLECULE
6g9n_ligand
   71    75     1     0     0
SMALL
GAST_HUCK


@<TRIPOS>ATOM
      1 C1          1.5360   10.2120   45.1560 C.3       1 ESN        -0.0241
      2 C2          2.1630    8.8790   45.5470 C.3       1 ESN         0.1326
      3 C5          5.8280    9.5070   45.4570 C.ar      1 ESN         0.0042
      4 C6          7.0500   10.1450   45.4320 C.ar      1 ESN        -0.0474
      5 C7          8.1930    9.4340   45.1330 C.ar      1 ESN        -0.0498
      6 C8          8.1390    8.0690   44.8210 C.ar      1 ESN         0.0036
      7 C10         5.7550    8.1440   45.1850 C.ar      1 ESN         0.0589
      8 C11         4.3340    7.7320   45.2350 C.2       1 ESN         0.2082
      9 C13         9.4080    7.3440   44.5650 C.ar      1 ESN         0.0642
     10 C15        11.4820    7.4650   43.6240 C.ar      1 ESN         0.1879
     11 C19        13.1450   11.4630   41.1950 C.3       1 ESN         0.0498
     12 C21        11.1820   10.5790   40.1970 C.3       1 ESN         0.0498
     13 C22        11.3350    9.2780   40.9540 C.3       1 ESN        -0.0060
     14 C24        10.9800    5.5850   44.7780 C.ar      1 ESN         0.0254
     15 C25         9.7240    6.0880   45.0720 C.ar      1 ESN         0.0819
     16 C27         1.7780    8.4960   46.9770 C.2       1 ESN         0.2038
     17 C31        -1.0690    6.7740   48.2000 C.3       1 ESN         0.0767
     18 C35        -1.8960   10.0600   51.0590 C.ar      1 ESN        -0.0752
     19 C36        -2.3110   11.1430   50.3000 C.ar      1 ESN        -0.0675
     20 C37        -2.0360   11.2110   48.9400 C.ar      1 ESN        -0.0528
     21 C38        -2.4540   12.4050   48.1200 C.3       1 ESN        -0.0327
     22 C39        -1.3140   10.1740   48.3650 C.ar      1 ESN        -0.0572
     23 N3          3.6120    8.8830   45.4090 N.am      1 ESN        -0.2391
     24 C4          4.4520   10.0420   45.7160 C.3       1 ESN         0.0751
     25 C9          6.8980    7.4230   44.8470 C.ar      1 ESN        -0.0337
     26 O12         3.8570    6.6140   45.1400 O.2       1 ESN        -0.3878
     27 N14        10.2870    8.0370   43.8360 N.ar      1 ESN        -0.2529
     28 N16        12.3650    8.1710   42.8740 N.pl3     1 ESN        -0.2863
     29 C17        12.1140    9.4720   42.2450 C.3       1 ESN         0.0461
     30 C18        13.4160   10.1990   41.9720 C.3       1 ESN        -0.0060
     31 O20        12.4520   11.1980   39.9580 O.3       1 ESN        -0.3796
     32 N23        11.8750    6.2600   44.0610 N.ar      1 ESN        -0.2569
     33 CL1         8.6500    5.1350   46.0400 Cl        1 ESN        -0.0667
     34 O28         2.6300    8.3420   47.8530 O.2       1 ESN        -0.3944
     35 N29         0.4700    8.3530   47.1760 N.am      1 ESN        -0.2686
     36 C30        -0.1300    7.9400   48.4490 C.3       1 ESN         0.0970
     37 O32        -2.0920    7.1180   47.3020 O.3       1 ESN        -0.3906
     38 C33        -0.8850    9.0770   49.1110 C.ar      1 ESN        -0.0226
     39 C34        -1.1940    9.0250   50.4640 C.ar      1 ESN        -0.0650
     40 H1          0.4444   10.1537   45.2786 H         1 ESN         0.0277
     41 H2          1.7755   10.4360   44.1060 H         1 ESN         0.0277
     42 H3          1.9354   11.0084   45.8012 H         1 ESN         0.0277
     43 H4          1.7631    8.1116   44.8679 H         1 ESN         0.0800
     44 H5          7.1122   11.2056   45.6474 H         1 ESN         0.0582
     45 H6          9.1513    9.9405   45.1394 H         1 ESN         0.0675
     46 H7         14.1034   11.9525   40.9674 H         1 ESN         0.0560
     47 H8         12.5280   12.1335   41.8112 H         1 ESN         0.0560
     48 H9         10.5553   11.2644   40.7865 H         1 ESN         0.0560
     49 H10        10.6956   10.3761   39.2315 H         1 ESN         0.0560
     50 H11        11.8696    8.5560   40.3192 H         1 ESN         0.0310
     51 H12        10.3362    8.8853   41.1950 H         1 ESN         0.0310
     52 H13        11.2452    4.6009   45.1471 H         1 ESN         0.0891
     53 H14        -1.5204    6.4686   49.1555 H         1 ESN         0.0603
     54 H15        -0.4936    5.9351   47.7815 H         1 ESN         0.0603
     55 H16        -2.1210   10.0231   52.1188 H         1 ESN         0.0582
     56 H17        -2.8585   11.9492   50.7748 H         1 ESN         0.0499
     57 H18        -2.1425   12.2594   47.0751 H         1 ESN         0.0390
     58 H19        -1.9769   13.3110   48.5219 H         1 ESN         0.0390
     59 H20        -3.5475   12.5158   48.1646 H         1 ESN         0.0390
     60 H21        -1.0775   10.2183   47.3080 H         1 ESN         0.0495
     61 H22         4.2214   10.8894   45.0536 H         1 ESN         0.0711
     62 H23         4.3352   10.3537   46.7644 H         1 ESN         0.0711
     63 H24         6.8266    6.3686   44.6057 H         1 ESN         0.0695
     64 H25        13.2969    7.7553   42.7335 H         1 ESN         0.1866
     65 H26        11.5107   10.0834   42.9322 H         1 ESN         0.0561
     66 H27        13.8983   10.4543   42.9271 H         1 ESN         0.0310
     67 H28        14.0820    9.5472   41.3875 H         1 ESN         0.0310
     68 H29        -0.1432    8.5391   46.4083 H         1 ESN         0.1882
     69 H30         0.6733    7.6145   49.1263 H         1 ESN         0.0741
     70 H31        -1.7093    7.3784   46.4724 H         1 ESN         0.2097
     71 H32        -0.8847    8.1715   51.0563 H         1 ESN         0.0500
@<TRIPOS>BOND
     1    2    1 1  
     2   16    2 1  
     3    2   23 1  
     4    3    4 ar 
     5    3    7 ar 
     6   24    3 1  
     7    4    5 ar 
     8    5    6 ar 
     9    6    9 1  
    10   25    6 ar 
    11    8    7 1  
    12    7   25 ar 
    13   23    8 am 
    14    8   26 2  
    15    9   15 ar 
    16    9   27 ar 
    17   27   10 ar 
    18   10   28 1  
    19   10   32 ar 
    20   30   11 1  
    21   11   31 1  
    22   13   12 1  
    23   12   31 1  
    24   29   13 1  
    25   15   14 ar 
    26   14   32 ar 
    27   15   33 1  
    28   16   34 2  
    29   35   16 am 
    30   36   17 1  
    31   17   37 1  
    32   19   18 ar 
    33   18   39 ar 
    34   20   19 ar 
    35   20   21 1  
    36   22   20 ar 
    37   38   22 ar 
    38   23   24 1  
    39   28   29 1  
    40   29   30 1  
    41   36   35 1  
    42   36   38 1  
    43   38   39 ar 
    44    1   40 1  
    45    1   41 1  
    46    1   42 1  
    47    2   43 1  
    48    4   44 1  
    49    5   45 1  
    50   11   46 1  
    51   11   47 1  
    52   12   48 1  
    53   12   49 1  
    54   13   50 1  
    55   13   51 1  
    56   14   52 1  
    57   17   53 1  
    58   17   54 1  
    59   18   55 1  
    60   19   56 1  
    61   21   57 1  
    62   21   58 1  
    63   21   59 1  
    64   22   60 1  
    65   24   61 1  
    66   24   62 1  
    67   25   63 1  
    68   28   64 1  
    69   29   65 1  
    70   30   66 1  
    71   30   67 1  
    72   35   68 1  
    73   36   69 1  
    74   37   70 1  
    75   39   71 1  
@<TRIPOS>SUBSTRUCTURE
     1 ESN         1

