### 
### Created by X-TOOL on Mon Aug  2 16:10:04 2021
### 

@<TRIPOS>MOLECULE
6g9s_ligand
   36    37     1     0     0
SMALL
GAST_HUCK


@<TRIPOS>ATOM
      1 N1          9.0530   37.5820   44.1620 N.am      1 ET5        -0.2504
      2 C1          7.8520   37.0680   43.5260 C.3       1 ET5         0.0873
      3 C2          8.7710   36.2220   46.1240 C.3       1 ET5        -0.0038
      4 C3          3.8010   39.7810   46.7610 C.2       1 ET5         0.1593
      5 C7          8.8940   37.6600   45.6080 C.3       1 ET5         0.1058
      6 C8          7.6120   38.3990   45.9310 C.2       1 ET5        -0.0484
      7 C9          6.6610   38.5630   44.9980 C.2       1 ET5         0.0323
      8 C10         6.9230   38.2750   43.5530 C.3       1 ET5         0.0588
      9 C11         5.3160   39.0750   45.3670 C.2       1 ET5         0.1328
     10 C12         4.1980   39.3860   44.6100 C.2       1 ET5         0.0003
     11 C13        10.1480   37.9760   43.5030 C.2       1 ET5         0.1744
     12 N3          9.9850   35.3920   45.8690 N.4       1 ET5         0.2217
     13 N4          7.5580   39.4440   42.8870 N.4       1 ET5         0.4200
     14 N5          3.2740   39.8140   45.5060 N.2       1 ET5        -0.3099
     15 O3          6.6890   40.4790   42.7480 O.3       1 ET5        -0.1993
     16 O4          6.9490   41.7570   44.9000 O.co2     1 ET5        -0.4578
     17 O5          8.1300   42.4790   42.9370 O.co2     1 ET5        -0.4578
     18 O6          5.7330   42.7410   43.0710 O.co2     1 ET5        -0.4578
     19 O7          5.1000   39.3110   46.7000 O.3       1 ET5        -0.2338
     20 O8         10.9790   38.7860   43.9050 O.2       1 ET5        -0.3827
     21 S1          6.8770   41.8650   43.4220 S.o2      1 ET5        -0.0326
     22 H1          7.4288   36.2277   44.0959 H         1 ET5         0.0601
     23 H2          8.0553   36.7458   42.4941 H         1 ET5         0.0601
     24 H3          7.9131   35.7459   45.6268 H         1 ET5         0.0861
     25 H4          8.5938   36.2554   47.2091 H         1 ET5         0.0861
     26 H5          3.2809   40.0782   47.6704 H         1 ET5         0.1376
     27 H6          9.7550   38.1681   46.0668 H         1 ET5         0.0760
     28 H7          7.4601   38.8018   46.9313 H         1 ET5         0.0523
     29 H8          5.9800   38.0366   43.0393 H         1 ET5         0.1002
     30 H9          4.0855   39.3045   43.5299 H         1 ET5         0.0491
     31 H10        10.3183   37.5387   42.5203 H         1 ET5         0.1548
     32 H11         9.8388   34.4627   46.2312 H         1 ET5         0.1997
     33 H12        10.7799   35.8098   46.3268 H         1 ET5         0.1997
     34 H13        10.1561   35.3428   44.8769 H         1 ET5         0.1997
     35 H14         7.8805   39.1639   41.9740 H         1 ET5         0.2400
     36 H15         8.3426   39.7490   43.4415 H         1 ET5         0.2400
@<TRIPOS>BOND
     1    2    1 1  
     2    5    1 1  
     3    1   11 am 
     4    8    2 1  
     5    5    3 1  
     6    3   12 1  
     7    4   14 2  
     8   19    4 1  
     9    6    5 1  
    10    7    6 2  
    11    7    8 1  
    12    9    7 1  
    13    8   13 1  
    14    9   10 2  
    15    9   19 1  
    16   10   14 1  
    17   11   20 2  
    18   13   15 1  
    19   15   21 1  
    20   21   16 ar 
    21   21   17 ar 
    22   21   18 ar 
    23    2   22 1  
    24    2   23 1  
    25    3   24 1  
    26    3   25 1  
    27    4   26 1  
    28    5   27 1  
    29    6   28 1  
    30    8   29 1  
    31   10   30 1  
    32   11   31 1  
    33   12   32 1  
    34   12   33 1  
    35   12   34 1  
    36   13   35 1  
    37   13   36 1  
@<TRIPOS>SUBSTRUCTURE
     1 ET5         1

