### 
### Created by X-TOOL on Wed Jan  1 15:39:35 2020
### 

@<TRIPOS>MOLECULE
6g9u_ligand
   60    62     1     0     0
SMALL
GAST_HUCK


@<TRIPOS>ATOM
      1 F14         8.8430  -29.8400  -59.9440 F         1 ETK        -0.2011
      2 C11         9.5970  -28.9010  -59.3550 C.ar      1 ETK         0.1621
      3 C10        10.8070  -28.3960  -59.9720 C.ar      1 ETK         0.0696
      4 S16        11.2670  -29.0210  -61.4800 S.3       1 ETK        -0.1048
      5 C17        12.0070  -30.5880  -61.0030 C.3       1 ETK         0.0155
      6 C18        13.3520  -30.4870  -60.2590 C.3       1 ETK        -0.0069
      7 C19        14.4270  -30.1130  -61.2400 C.ar      1 ETK        -0.0393
      8 C24        14.7480  -31.0370  -62.2420 C.ar      1 ETK        -0.0565
      9 C23        15.7190  -30.7160  -63.1780 C.ar      1 ETK        -0.0543
     10 C22        16.3730  -29.4810  -63.1390 C.ar      1 ETK         0.0032
     11 C25        17.3960  -29.1840  -64.2070 C.2       1 ETK         0.0584
     12 O27        17.8570  -28.0340  -64.3420 O.co2     1 ETK        -0.5625
     13 O26        17.7120  -30.0890  -64.9960 O.co2     1 ETK        -0.5625
     14 C21        16.0520  -28.5480  -62.1360 C.ar      1 ETK        -0.0543
     15 C20        15.0790  -28.8710  -61.1820 C.ar      1 ETK        -0.0565
     16 C12         9.1850  -28.3960  -58.0390 C.ar      1 ETK         0.1706
     17 F13         8.0790  -28.9010  -57.5250 F         1 ETK        -0.1907
     18 C7          9.9080  -27.3480  -57.2970 C.ar      1 ETK         0.1480
     19 S4          9.2740  -26.8930  -55.8470 S.o2      1 ETK         0.0583
     20 O5          9.5620  -27.9170  -54.8580 O.2       1 ETK        -0.1540
     21 N1          7.7040  -26.7330  -56.0450 N.am      1 ETK        -0.2638
     22 O6          9.8720  -25.6490  -55.4580 O.2       1 ETK        -0.1540
     23 C8         11.1420  -26.8240  -57.9400 C.ar      1 ETK         0.0873
     24 C9         11.5800  -27.3640  -59.2660 C.ar      1 ETK         0.1549
     25 F15        12.6700  -26.8910  -59.8580 F         1 ETK        -0.2021
     26 N58        11.9170  -25.9860  -57.2300 N.pl3     1 ETK        -0.3226
     27 C28        13.3650  -26.1330  -57.1150 C.3       1 ETK         0.0337
     28 C35        13.5920  -27.4380  -56.3270 C.3       1 ETK        -0.0309
     29 C34        15.0090  -28.0100  -56.3580 C.3       1 ETK        -0.0510
     30 C33        15.8090  -27.8220  -55.0680 C.3       1 ETK        -0.0530
     31 C32        15.5500  -26.5260  -54.2770 C.3       1 ETK        -0.0531
     32 C31        16.0310  -25.2480  -54.9550 C.3       1 ETK        -0.0530
     33 C30        15.4520  -24.8540  -56.3210 C.3       1 ETK        -0.0510
     34 C29        13.9250  -24.9340  -56.3700 C.3       1 ETK        -0.0309
     35 H1         12.1688  -31.1785  -61.9168 H         1 ETK         0.0423
     36 H2         11.2961  -31.1131  -60.3481 H         1 ETK         0.0423
     37 H3         13.5932  -31.4570  -59.7998 H         1 ETK         0.0441
     38 H4         13.2834  -29.7175  -59.4760 H         1 ETK         0.0441
     39 H5         14.2419  -31.9946  -62.2854 H         1 ETK         0.0564
     40 H6         15.9746  -31.4322  -63.9505 H         1 ETK         0.0634
     41 H7         16.5534  -27.5876  -62.1020 H         1 ETK         0.0634
     42 H8         14.8296  -28.1631  -60.3999 H         1 ETK         0.0564
     43 H9          7.1282  -26.4592  -55.2746 H         1 ETK         0.1631
     44 H10         7.2927  -26.9062  -56.9399 H         1 ETK         0.1631
     45 H11        11.4658  -25.1993  -56.7417 H         1 ETK         0.1734
     46 H12        13.8306  -26.2016  -58.1092 H         1 ETK         0.0545
     47 H13        12.9139  -28.2002  -56.7384 H         1 ETK         0.0287
     48 H14        13.3317  -27.2445  -55.2759 H         1 ETK         0.0287
     49 H15        15.5579  -27.5185  -57.1748 H         1 ETK         0.0266
     50 H16        14.9375  -29.0887  -56.5612 H         1 ETK         0.0266
     51 H17        16.8767  -27.8440  -55.3315 H         1 ETK         0.0265
     52 H18        15.5773  -28.6689  -54.4055 H         1 ETK         0.0265
     53 H19        16.0618  -26.6106  -53.3070 H         1 ETK         0.0265
     54 H20        14.4659  -26.4376  -54.1131 H         1 ETK         0.0265
     55 H21        17.1191  -25.3442  -55.0843 H         1 ETK         0.0265
     56 H22        15.8156  -24.4189  -54.2649 H         1 ETK         0.0265
     57 H23        15.8629  -25.5313  -57.0842 H         1 ETK         0.0266
     58 H24        15.7560  -23.8210  -56.5456 H         1 ETK         0.0266
     59 H25        13.5527  -24.9715  -55.3356 H         1 ETK         0.0287
     60 H26        13.5519  -24.0232  -56.8612 H         1 ETK         0.0287
@<TRIPOS>BOND
     1    1    2 1  
     2    2    3 ar 
     3    2   16 ar 
     4    3    4 1  
     5    3   24 ar 
     6    4    5 1  
     7    5    6 1  
     8    6    7 1  
     9    7    8 ar 
    10    7   15 ar 
    11    8    9 ar 
    12    9   10 ar 
    13   10   11 1  
    14   10   14 ar 
    15   11   12 ar 
    16   11   13 ar 
    17   14   15 ar 
    18   16   17 1  
    19   16   18 ar 
    20   18   19 1  
    21   18   23 ar 
    22   19   20 2  
    23   19   21 am 
    24   19   22 2  
    25   23   24 ar 
    26   23   26 1  
    27   24   25 1  
    28   26   27 1  
    29   27   28 1  
    30   27   34 1  
    31   28   29 1  
    32   29   30 1  
    33   30   31 1  
    34   31   32 1  
    35   32   33 1  
    36   33   34 1  
    37    5   35 1  
    38    5   36 1  
    39    6   37 1  
    40    6   38 1  
    41    8   39 1  
    42    9   40 1  
    43   14   41 1  
    44   15   42 1  
    45   21   43 1  
    46   21   44 1  
    47   26   45 1  
    48   27   46 1  
    49   28   47 1  
    50   28   48 1  
    51   29   49 1  
    52   29   50 1  
    53   30   51 1  
    54   30   52 1  
    55   31   53 1  
    56   31   54 1  
    57   32   55 1  
    58   32   56 1  
    59   33   57 1  
    60   33   58 1  
    61   34   59 1  
    62   34   60 1  
@<TRIPOS>SUBSTRUCTURE
     1 ETK         1

