### 
### Created by X-TOOL on Mon Aug  2 16:13:28 2021
### 

@<TRIPOS>MOLECULE
6g9x_ligand
   15    15     1     0     0
SMALL
GAST_HUCK


@<TRIPOS>ATOM
      1 SD         97.1410   25.9490   43.1510 S.3       1 JKE        -0.1152
      2 CG         96.4220   29.0360   44.1000 C.2       1 JKE         0.0594
      3 CZ         97.7140   28.7300   43.2800 C.ar      1 JKE         0.0219
      4 CD1        99.2890   27.3080   42.0480 C.ar      1 JKE        -0.0462
      5 OD1        95.9160   30.1710   43.9690 O.co2     1 JKE        -0.5629
      6 CD2        99.7200   29.6370   42.2170 C.ar      1 JKE        -0.0650
      7 OD2        95.7970   28.2640   44.8920 O.co2     1 JKE        -0.5629
      8 CE1        98.1140   27.4610   42.8080 C.ar      1 JKE         0.0270
      9 CE2        98.5440   29.8070   42.9560 C.ar      1 JKE        -0.0534
     10 CG1       100.1090   28.3830   41.7510 C.ar      1 JKE        -0.0651
     11 H1         97.5958   25.1550   42.7280 H         1 JKE         0.1233
     12 H2         99.5588   26.3225   41.6858 H         1 JKE         0.0572
     13 H3        100.3413   30.4990   42.0026 H         1 JKE         0.0566
     14 H4         98.2689   30.8020   43.2866 H         1 JKE         0.0633
     15 H5        101.0197   28.2539   41.1773 H         1 JKE         0.0621
@<TRIPOS>BOND
     1    8    1 1  
     2    3    2 1  
     3    2    5 ar 
     4    2    7 ar 
     5    3    8 ar 
     6    3    9 ar 
     7    8    4 ar 
     8    4   10 ar 
     9    9    6 ar 
    10    6   10 ar 
    11    1   11 1  
    12    4   12 1  
    13    6   13 1  
    14    9   14 1  
    15   10   15 1  
@<TRIPOS>SUBSTRUCTURE
     1 JKE         1

