### 
### Created by X-TOOL on Mon Aug  2 16:11:43 2021
### 

@<TRIPOS>MOLECULE
6gbw_ligand
   77    79     1     0     0
SMALL
GAST_HUCK


@<TRIPOS>ATOM
      1 O2         15.9830  -12.8170   22.6490 O.2       1 EU5        -0.3946
      2 O3         15.5160  -12.2450   19.7130 O.2       1 EU5        -0.3944
      3 C7         19.4500  -13.3300   25.1420 C.ar      1 EU5        -0.0587
      4 C16        17.5200  -11.4690   20.8120 C.3       1 EU5         0.1337
      5 C19        13.1690   -9.9550   21.5750 C.ar      1 EU5        -0.0134
      6 CL         12.1820   -7.4180   24.5030 Cl        1 EU5        -0.0789
      7 C21        12.2290   -8.8230   23.4700 C.ar      1 EU5         0.0264
      8 C20        13.0960   -8.8360   22.4030 C.ar      1 EU5        -0.0509
      9 C22        11.4120   -9.8920   23.7440 C.ar      1 EU5        -0.0614
     10 C23        11.4930  -11.0170   22.9430 C.ar      1 EU5        -0.0611
     11 C24        12.3700  -11.0750   21.8640 C.ar      1 EU5         0.0054
     12 C25        12.4610  -12.3800   21.0450 C.3       1 EU5        -0.0037
     13 N6         13.0520  -13.4890   21.8440 N.4       1 EU5         0.2299
     14 C18        14.0660   -9.9460   20.3600 C.3       1 EU5         0.0624
     15 N5         15.4600  -10.2130   20.6870 N.am      1 EU5        -0.2749
     16 C17        16.0700  -11.3490   20.3510 C.2       1 EU5         0.2035
     17 C15        18.4940  -11.3610   19.6320 C.3       1 EU5        -0.0104
     18 C14        19.6810  -12.2340   20.0780 C.3       1 EU5        -0.0281
     19 C13        19.0270  -13.4000   20.7870 C.3       1 EU5         0.0369
     20 N4         17.7930  -12.8110   21.3400 N.am      1 EU5        -0.2502
     21 C12        16.8860  -13.4370   22.1000 C.2       1 EU5         0.2025
     22 C4         17.0640  -14.9520   22.2950 C.3       1 EU5         0.1265
     23 C3         16.1270  -15.7040   21.3280 C.3       1 EU5        -0.0128
     24 C2         16.6420  -16.9950   20.6900 C.3       1 EU5        -0.0160
     25 C1         15.6380  -17.5700   19.6940 C.3       1 EU5         0.0627
     26 N2         15.4800  -16.7470   18.4990 N.pl3     1 EU5        -0.2723
     27 C          16.0870  -17.2380   17.2800 C.cat     1 EU5         0.2882
     28 N1         16.9000  -18.3760   17.4380 N.pl3     1 EU5        -0.2849
     29 N          15.8570  -16.6230   16.1470 N.pl3     1 EU5        -0.2849
     30 N3         16.6660  -15.2160   23.6680 N.am      1 EU5        -0.2281
     31 S          17.3640  -16.3720   24.5640 S.o2      1 EU5         0.0511
     32 O          16.3170  -17.0130   25.3040 O.2       1 EU5        -0.1532
     33 O1         18.1860  -17.1570   23.6880 O.2       1 EU5        -0.1532
     34 C5         18.3830  -15.5210   25.7590 C.3       1 EU5         0.1181
     35 C6         19.4850  -14.7200   25.1270 C.ar      1 EU5        -0.0204
     36 C11        20.5630  -15.3480   24.5160 C.ar      1 EU5        -0.0587
     37 C10        21.5800  -14.6050   23.9380 C.ar      1 EU5        -0.0685
     38 C9         21.5320  -13.2270   23.9630 C.ar      1 EU5        -0.0687
     39 C8         20.4660  -12.5900   24.5630 C.ar      1 EU5        -0.0685
     40 H1         18.6172  -12.8201   25.6127 H         1 EU5         0.0557
     41 H2         17.7286  -10.6967   21.5670 H         1 EU5         0.0802
     42 H3         13.7238   -7.9747   22.2053 H         1 EU5         0.0544
     43 H4         10.7154   -9.8551   24.5738 H         1 EU5         0.0548
     44 H5         10.8608  -11.8703   23.1601 H         1 EU5         0.0540
     45 H6         13.0902  -12.2030   20.1602 H         1 EU5         0.0964
     46 H7         11.4500  -12.6710   20.7238 H         1 EU5         0.0964
     47 H8         13.0962  -14.3231   21.2798 H         1 EU5         0.2007
     48 H9         12.4785  -13.6618   22.6547 H         1 EU5         0.2007
     49 H10        13.9814  -13.2329   22.1383 H         1 EU5         0.2007
     50 H11        14.0001   -8.9577   19.8815 H         1 EU5         0.0668
     51 H12        13.7155  -10.7172   19.6583 H         1 EU5         0.0668
     52 H13        15.9793   -9.5169   21.1828 H         1 EU5         0.1876
     53 H14        18.8081  -10.3188   19.4733 H         1 EU5         0.0313
     54 H15        18.0411  -11.7521   18.7090 H         1 EU5         0.0313
     55 H16        20.3398  -11.6793   20.7622 H         1 EU5         0.0287
     56 H17        20.2613  -12.5793   19.2097 H         1 EU5         0.0287
     57 H18        19.6731  -13.7863   21.5890 H         1 EU5         0.0524
     58 H19        18.7946  -14.2107   20.0808 H         1 EU5         0.0524
     59 H20        18.1081  -15.2526   22.1231 H         1 EU5         0.0753
     60 H21        15.8766  -15.0121   20.5104 H         1 EU5         0.0309
     61 H22        15.2140  -15.9567   21.8871 H         1 EU5         0.0309
     62 H23        16.8237  -17.7366   21.4818 H         1 EU5         0.0301
     63 H24        17.5843  -16.7819   20.1640 H         1 EU5         0.0301
     64 H25        14.6608  -17.6551   20.1918 H         1 EU5         0.0689
     65 H26        15.9818  -18.5690   19.3878 H         1 EU5         0.0689
     66 H27        14.9606  -15.8579   18.5220 H         1 EU5         0.2642
     67 H28        17.3702  -18.7905   16.6207 H         1 EU5         0.2615
     68 H29        17.0247  -18.7943   18.3709 H         1 EU5         0.2615
     69 H30        15.2460  -15.7940   16.1258 H         1 EU5         0.2615
     70 H31        16.2871  -16.9682   15.2771 H         1 EU5         0.2615
     71 H32        15.9364  -14.6653   24.0736 H         1 EU5         0.1703
     72 H33        18.8329  -16.2671   26.4305 H         1 EU5         0.0682
     73 H34        17.7452  -14.8404   26.3420 H         1 EU5         0.0682
     74 H35        20.6092  -16.4307   24.4911 H         1 EU5         0.0557
     75 H36        22.4155  -15.1083   23.4650 H         1 EU5         0.0599
     76 H37        22.3292  -12.6466   23.5127 H         1 EU5         0.0559
     77 H38        20.4239  -11.5070   24.5811 H         1 EU5         0.0599
@<TRIPOS>BOND
     1   21    1 2  
     2   16    2 2  
     3   35    3 ar 
     4    3   39 ar 
     5    4   16 1  
     6    4   17 1  
     7   20    4 1  
     8    5    8 ar 
     9    5   11 ar 
    10   14    5 1  
    11    7    6 1  
    12    8    7 ar 
    13    7    9 ar 
    14   10    9 ar 
    15   11   10 ar 
    16   11   12 1  
    17   12   13 1  
    18   15   14 1  
    19   16   15 am 
    20   18   17 1  
    21   19   18 1  
    22   20   19 1  
    23   21   20 am 
    24   22   21 1  
    25   22   23 1  
    26   30   22 1  
    27   23   24 1  
    28   24   25 1  
    29   25   26 1  
    30   26   27 ar 
    31   27   28 ar 
    32   27   29 ar 
    33   31   30 am 
    34   31   32 2  
    35   31   33 2  
    36   34   31 1  
    37   34   35 1  
    38   35   36 ar 
    39   36   37 ar 
    40   37   38 ar 
    41   38   39 ar 
    42    3   40 1  
    43    4   41 1  
    44    8   42 1  
    45    9   43 1  
    46   10   44 1  
    47   12   45 1  
    48   12   46 1  
    49   13   47 1  
    50   13   48 1  
    51   13   49 1  
    52   14   50 1  
    53   14   51 1  
    54   15   52 1  
    55   17   53 1  
    56   17   54 1  
    57   18   55 1  
    58   18   56 1  
    59   19   57 1  
    60   19   58 1  
    61   22   59 1  
    62   23   60 1  
    63   23   61 1  
    64   24   62 1  
    65   24   63 1  
    66   25   64 1  
    67   25   65 1  
    68   26   66 1  
    69   28   67 1  
    70   28   68 1  
    71   29   69 1  
    72   29   70 1  
    73   30   71 1  
    74   34   72 1  
    75   34   73 1  
    76   36   74 1  
    77   37   75 1  
    78   38   76 1  
    79   39   77 1  
@<TRIPOS>SUBSTRUCTURE
     1 EU5         1

