### 
### Created by X-TOOL on Wed Jan  1 15:39:35 2020
### 

@<TRIPOS>MOLECULE
6gbx_ligand
   44    47     1     0     0
SMALL
GAST_HUCK


@<TRIPOS>ATOM
      1 C18        24.4950    5.1650   34.2620 C.3       1 S77         0.0533
      2 N2         23.0260    4.8200   34.4420 N.pl3     1 S77        -0.2190
      3 C13        22.3650    3.8060   33.8630 C.2       1 S77         0.1134
      4 N5         21.1120    3.8790   34.2460 N.2       1 S77        -0.2700
      5 N4         20.9390    4.9280   35.0700 N.2       1 S77        -0.2695
      6 C4         22.1380    5.5250   35.1560 C.2       1 S77         0.1379
      7 C3         22.4700    6.7940   35.9480 C.3       1 S77         0.0432
      8 C9         23.4290    6.4280   37.0570 C.3       1 S77        -0.0131
      9 C7         23.6820    7.6110   37.9820 C.3       1 S77         0.0331
     10 C8         21.2440    7.3570   36.5410 C.3       1 S77        -0.0131
     11 C6         21.5500    8.5740   37.3720 C.3       1 S77         0.0331
     12 N1         22.4660    8.1780   38.4720 N.pl3     1 S77        -0.2916
     13 C1         22.3840    8.7100   39.7360 C.ar      1 S77         0.1241
     14 N3         23.4630    9.3470   40.1860 N.ar      1 S77        -0.2841
     15 C14        23.5040    9.9390   41.4490 C.ar      1 S77        -0.0044
     16 C15        22.3640    9.9140   42.2640 C.ar      1 S77        -0.0478
     17 C10        21.1950    9.2690   41.7990 C.ar      1 S77        -0.0460
     18 C2         21.1990    8.6600   40.5260 C.ar      1 S77         0.0320
     19 C5         20.0800    7.8940   40.1600 C.ar      1 S77         0.0042
     20 C12        20.3640    6.5390   39.8280 C.ar      1 S77        -0.0404
     21 C17        19.3900    5.6270   39.5110 C.ar      1 S77         0.0020
     22 C16        18.1040    6.0280   39.5450 C.ar      1 S77         0.2119
     23 F          17.1820    5.1110   39.2300 F         1 S77        -0.1542
     24 N6         17.7540    7.3170   39.8740 N.ar      1 S77        -0.2657
     25 C11        18.7480    8.2720   40.2050 C.ar      1 S77         0.0118
     26 H1         24.9745    4.4063   33.6260 H         1 S77         0.0587
     27 H2         24.9898    5.1860   35.2442 H         1 S77         0.0587
     28 H3         24.5841    6.1524   33.7854 H         1 S77         0.0587
     29 H4         22.7911    3.0580   33.1961 H         1 S77         0.1261
     30 H5         22.9326    7.5370   35.2817 H         1 S77         0.0547
     31 H6         24.3840    6.1087   36.6142 H         1 S77         0.0316
     32 H7         23.0013    5.6006   37.6422 H         1 S77         0.0316
     33 H8         24.2355    8.3831   37.4275 H         1 S77         0.0524
     34 H9         24.2846    7.2706   38.8369 H         1 S77         0.0524
     35 H10        20.7723    6.5959   37.1798 H         1 S77         0.0316
     36 H11        20.5517    7.6386   35.7339 H         1 S77         0.0316
     37 H12        20.6181    8.9790   37.7934 H         1 S77         0.0524
     38 H13        22.0321    9.3390   36.7456 H         1 S77         0.0524
     39 H14        24.4128   10.4157   41.7980 H         1 S77         0.0777
     40 H15        22.3785   10.3843   43.2406 H         1 S77         0.0597
     41 H16        20.3034    9.2425   42.4150 H         1 S77         0.0699
     42 H17        21.3978    6.2131   39.8257 H         1 S77         0.0713
     43 H18        19.6481    4.6096   39.2400 H         1 S77         0.0674
     44 H19        18.4705    9.2808   40.4885 H         1 S77         0.0799
@<TRIPOS>BOND
     1    1    2 1  
     2    2    3 1  
     3    2    6 1  
     4    3    4 2  
     5    4    5 1  
     6    5    6 2  
     7    6    7 1  
     8    7    8 1  
     9    7   10 1  
    10    8    9 1  
    11    9   12 1  
    12   10   11 1  
    13   11   12 1  
    14   12   13 1  
    15   13   14 ar 
    16   13   18 ar 
    17   14   15 ar 
    18   15   16 ar 
    19   16   17 ar 
    20   17   18 ar 
    21   18   19 1  
    22   19   20 ar 
    23   19   25 ar 
    24   20   21 ar 
    25   21   22 ar 
    26   22   23 1  
    27   22   24 ar 
    28   24   25 ar 
    29    1   26 1  
    30    1   27 1  
    31    1   28 1  
    32    3   29 1  
    33    7   30 1  
    34    8   31 1  
    35    8   32 1  
    36    9   33 1  
    37    9   34 1  
    38   10   35 1  
    39   10   36 1  
    40   11   37 1  
    41   11   38 1  
    42   15   39 1  
    43   16   40 1  
    44   17   41 1  
    45   20   42 1  
    46   21   43 1  
    47   25   44 1  
@<TRIPOS>SUBSTRUCTURE
     1 S77         1

