### 
### Created by X-TOOL on Mon Sep 10 21:12:44 2018
### 

@<TRIPOS>MOLECULE
6gch_ligand
   32    32     1     0     0
SMALL
GAST_HUCK


@<TRIPOS>ATOM
      1 CN2        36.5950   73.1230   87.8860 C.3       1 APF         0.0257
      2 CN1        35.7010   74.2350   88.1310 C.2       1 APF         0.1733
      3 ON1        34.7290   74.2040   88.8510 O.2       1 APF        -0.3974
      4 N3         36.2240   75.4220   87.5940 N.am      1 APF        -0.2794
      5 C3         36.0440   76.6950   87.1720 C.3       1 APF         0.0858
      6 C2         35.9260   77.0700   85.8060 C.3       1 APF         0.1745
      7 C1         34.7680   76.2830   85.2130 C.3       1 APF         0.4177
      8 C4         37.0530   77.6620   87.9000 C.3       1 APF         0.0067
      9 O2         35.6070   78.5220   85.8550 O.3       1 APF        -0.3808
     10 F11        35.0780   75.0580   85.1170 F         1 APF        -0.1678
     11 F12        34.3750   76.7120   84.1420 F         1 APF        -0.1678
     12 F13        33.7260   76.5410   85.9350 F         1 APF        -0.1678
     13 CP1        37.1910   77.6250   89.4240 C.ar      1 APF        -0.0408
     14 CP2        38.3230   78.0130   90.0210 C.ar      1 APF        -0.0603
     15 CP3        38.4550   77.9640   91.3500 C.ar      1 APF        -0.0686
     16 CP4        37.4550   77.4850   92.1110 C.ar      1 APF        -0.0687
     17 CP5        36.3170   77.0840   91.5370 C.ar      1 APF        -0.0686
     18 CP6        36.2070   77.1340   90.2090 C.ar      1 APF        -0.0603
     19 H1         37.3890   73.4368   87.1923 H         1 APF         0.0467
     20 H2         36.0303   72.2890   87.4437 H         1 APF         0.0467
     21 H3         37.0451   72.7982   88.8357 H         1 APF         0.0467
     22 H4         37.1976   75.2386   87.4580 H         1 APF         0.1857
     23 H5         35.0530   76.9449   87.5788 H         1 APF         0.0607
     24 H6         36.8527   76.8816   85.2441 H         1 APF         0.0709
     25 H7         36.7569   78.6874   87.6337 H         1 APF         0.0449
     26 H8         38.0499   77.4491   87.4866 H         1 APF         0.0449
     27 H9         36.3422   78.9942   86.2280 H         1 APF         0.2103
     28 H10        39.1476   78.3734   89.4166 H         1 APF         0.0557
     29 H11        39.3703   78.3112   91.8157 H         1 APF         0.0599
     30 H12        37.5718   77.4244   93.1870 H         1 APF         0.0559
     31 H13        35.4939   76.7228   92.1429 H         1 APF         0.0599
     32 H14        35.2984   76.7688   89.7441 H         1 APF         0.0557
@<TRIPOS>BOND
     1    1    2 1  
     2    2    3 2  
     3    2    4 am 
     4    4    5 1  
     5    5    6 1  
     6    5    8 1  
     7    6    7 1  
     8    6    9 1  
     9    7   10 1  
    10    7   11 1  
    11    7   12 1  
    12    8   13 1  
    13   13   14 ar 
    14   13   18 ar 
    15   14   15 ar 
    16   15   16 ar 
    17   16   17 ar 
    18   17   18 ar 
    19    1   19 1  
    20    1   20 1  
    21    1   21 1  
    22    4   22 1  
    23    5   23 1  
    24    6   24 1  
    25    8   25 1  
    26    8   26 1  
    27    9   27 1  
    28   14   28 1  
    29   15   29 1  
    30   16   30 1  
    31   17   31 1  
    32   18   32 1  
@<TRIPOS>SUBSTRUCTURE
     1 APF         1

