### 
### Created by X-TOOL on Mon Aug  2 16:13:29 2021
### 

@<TRIPOS>MOLECULE
6gcl_ligand
   22    23     1     0     0
SMALL
GAST_HUCK


@<TRIPOS>ATOM
      1 CAN         4.1760  -16.0050   16.2710 C.3       1 EUE         0.0585
      2 SAK         4.9960  -15.7060   14.7370 S.o2      1 EUE        -0.0106
      3 OAL         5.8780  -16.9170   14.4130 O.2       1 EUE        -0.1707
      4 OAM         4.0140  -15.5650   13.5530 O.2       1 EUE        -0.1707
      5 CAC         6.0580  -14.3550   14.8020 C.ar      1 EUE         0.0752
      6 CAD         7.3810  -14.4760   14.3230 C.ar      1 EUE        -0.0283
      7 CAE         8.2270  -13.4170   14.4140 C.ar      1 EUE         0.0512
      8 SAG         9.8930  -13.2560   13.9300 S.3       1 EUE         0.0284
      9 CAH         9.9780  -11.6070   14.4880 C.2       1 EUE         0.1827
     10 NAJ        11.0650  -10.8160   14.4240 N.pl3     1 EUE        -0.2934
     11 NAI         8.7820  -11.2540   14.9910 N.2       1 EUE        -0.3076
     12 CAF         7.8270  -12.2210   14.9580 C.ar      1 EUE         0.0105
     13 CAA         6.5600  -12.1060   15.4010 C.ar      1 EUE        -0.0614
     14 CAB         5.6230  -13.1460   15.3490 C.ar      1 EUE        -0.0508
     15 H1          4.9223  -16.0962   17.0740 H         1 EUE         0.0467
     16 H2          3.5966  -16.9374   16.2014 H         1 EUE         0.0467
     17 H3          3.4982  -15.1678   16.4938 H         1 EUE         0.0467
     18 H4          7.7194  -15.4082   13.8854 H         1 EUE         0.0576
     19 H5         11.0211   -9.8506   14.7804 H         1 EUE         0.1896
     20 H6         11.9408  -11.1760   14.0187 H         1 EUE         0.1896
     21 H7          6.2484  -11.1564   15.8208 H         1 EUE         0.0537
     22 H8          4.6107  -13.0187   15.7151 H         1 EUE         0.0564
@<TRIPOS>BOND
     1    1    2 1  
     2    2    3 2  
     3    2    4 2  
     4    2    5 1  
     5    5    6 ar 
     6    5   14 ar 
     7    6    7 ar 
     8    7    8 1  
     9    7   12 ar 
    10    8    9 1  
    11    9   10 1  
    12    9   11 2  
    13   11   12 1  
    14   12   13 ar 
    15   13   14 ar 
    16    1   15 1  
    17    1   16 1  
    18    1   17 1  
    19    6   18 1  
    20   10   19 1  
    21   10   20 1  
    22   13   21 1  
    23   14   22 1  
@<TRIPOS>SUBSTRUCTURE
     1 EUE         1

