### 
### Created by X-TOOL on Mon Aug  2 16:10:04 2021
### 

@<TRIPOS>MOLECULE
6gcr_ligand
   70    73     1     0     0
SMALL
GAST_HUCK


@<TRIPOS>ATOM
      1 C4          7.7070    3.7470   25.9490 C.ar      1 EUW         0.1497
      2 C5          6.6710    4.4680   25.4000 C.ar      1 EUW         0.0988
      3 C6          5.3680    3.9990   25.5250 C.ar      1 EUW         0.0154
      4 N1          5.1370    2.8040   26.2060 N.ar      1 EUW        -0.2683
      5 N3          7.4160    2.6120   26.6160 N.ar      1 EUW        -0.2336
      6 C2          6.1580    2.1340   26.7460 C.ar      1 EUW         0.1943
      7 CAH         6.6930    0.2260   28.0800 C.ar      1 EUW         0.0589
      8 CAI         8.0620    0.0890   27.8180 C.ar      1 EUW        -0.0443
      9 CAJ         8.8390   -0.7760   28.5940 C.ar      1 EUW        -0.0674
     10 CAK         8.2800   -1.5170   29.6380 C.ar      1 EUW        -0.0326
     11 CAL         6.9300   -1.3750   29.8620 C.ar      1 EUW        -0.0674
     12 CAM         6.1330   -0.5210   29.1090 C.ar      1 EUW        -0.0443
     13 CAN         9.0120   -2.4440   30.4310 C.3       1 EUW         0.0516
     14 CAP         9.7680   -2.1330   32.6610 C.2       1 EUW         0.1399
     15 CAQ        10.5470   -2.1200   33.8280 C.2       1 EUW         0.1384
     16 CAR         9.4030   -2.3400   34.6050 C.2       1 EUW         0.2235
     17 CAS         8.6160   -2.3570   33.4520 C.2       1 EUW         0.2236
     18 CAW        12.7170   -2.5760   33.0770 C.3       1 EUW         0.0430
     19 CAX        13.8560   -1.6230   32.6730 C.3       1 EUW         0.0503
     20 CAZ        14.9640   -0.4500   34.5520 C.2       1 EUW         0.1758
     21 CBA        14.9100    0.7320   35.5350 C.3       1 EUW         0.0344
     22 CBB        13.7120    1.6530   35.4170 C.3       1 EUW        -0.0482
     23 CBE        10.0320    3.5690   26.1090 C.ar      1 EUW         0.0853
     24 CBF        11.0540    3.3020   25.1690 C.ar      1 EUW         0.0729
     25 CBG        12.1860    2.5890   25.5640 C.ar      1 EUW        -0.0512
     26 CBH        12.3190    2.1380   26.8650 C.ar      1 EUW        -0.0675
     27 CBI        11.3180    2.4040   27.7840 C.ar      1 EUW        -0.0669
     28 CBJ        10.1800    3.1260   27.4250 C.ar      1 EUW        -0.0320
     29 CBK        11.0390    3.6760   23.8250 C.2       1 EUW         0.1981
     30 CBN        11.8350    3.2950   21.6020 C.3       1 EUW         0.0187
     31 NAG         5.8340    1.0040   27.3990 N.pl3     1 EUW        -0.2480
     32 NAO        10.0630   -1.9600   31.3460 N.pl3     1 EUW        -0.3106
     33 NAV        11.8480   -1.9510   34.0980 N.pl3     1 EUW        -0.3181
     34 NAY        13.9530   -0.5310   33.6720 N.am      1 EUW        -0.2851
     35 NBD         8.9400    4.2670   25.7450 N.pl3     1 EUW        -0.2509
     36 NBM        11.8040    2.9290   23.0350 N.am      1 EUW        -0.2912
     37 OAT         7.4010   -2.5190   33.2710 O.2       1 EUW        -0.3669
     38 OAU         9.1610   -2.4790   35.8100 O.2       1 EUW        -0.3669
     39 OBC        15.8990   -1.2520   34.5960 O.2       1 EUW        -0.3971
     40 OBL        10.3650    4.6020   23.4080 O.2       1 EUW        -0.3912
     41 CL1         7.0250    5.9050   24.5570 Cl        1 EUW        -0.0747
     42 H1          4.5415    4.5556   25.0982 H         1 EUW         0.0855
     43 H2          8.5190    0.6537   27.0135 H         1 EUW         0.0521
     44 H3          9.8974   -0.8738   28.3812 H         1 EUW         0.0530
     45 H4          6.4702   -1.9515   30.6565 H         1 EUW         0.0530
     46 H5          5.0739   -0.4377   29.3246 H         1 EUW         0.0521
     47 H6          9.4947   -3.1461   29.7353 H         1 EUW         0.0654
     48 H7          8.2783   -2.9845   31.0471 H         1 EUW         0.0654
     49 H8         13.1487   -3.5006   33.4877 H         1 EUW         0.0532
     50 H9         12.1147   -2.8157   32.1883 H         1 EUW         0.0532
     51 H10        13.6453   -1.1969   31.6810 H         1 EUW         0.0539
     52 H11        14.8056   -2.1772   32.6399 H         1 EUW         0.0539
     53 H12        15.8146    1.3382   35.3794 H         1 EUW         0.0500
     54 H13        14.9158    0.3197   36.5548 H         1 EUW         0.0500
     55 H14        13.7888    2.4525   36.1686 H         1 EUW         0.0254
     56 H15        12.7895    1.0782   35.5861 H         1 EUW         0.0254
     57 H16        13.6883    2.0967   34.4108 H         1 EUW         0.0254
     58 H17        12.9701    2.3861   24.8435 H         1 EUW         0.0639
     59 H18        13.1999    1.5808   27.1627 H         1 EUW         0.0533
     60 H19        11.4208    2.0444   28.8014 H         1 EUW         0.0623
     61 H20         9.4155    3.3418   28.1626 H         1 EUW         0.0550
     62 H21        12.4996    2.6048   21.0616 H         1 EUW         0.0483
     63 H22        12.2091    4.3238   21.4943 H         1 EUW         0.0483
     64 H23        10.8195    3.2284   21.1845 H         1 EUW         0.0483
     65 H24         4.8469    0.7106   27.3754 H         1 EUW         0.2161
     66 H25        10.9399   -1.5304   31.0182 H         1 EUW         0.1770
     67 H26        12.2025   -1.4442   34.9217 H         1 EUW         0.1747
     68 H27        13.2400    0.1700   33.6909 H         1 EUW         0.1851
     69 H28         9.0426    5.1958   25.3117 H         1 EUW         0.2187
     70 H29        12.3321    2.1583   23.3916 H         1 EUW         0.1837
@<TRIPOS>BOND
     1    1    2 ar 
     2    1    5 ar 
     3   35    1 1  
     4    2    3 ar 
     5    2   41 1  
     6    3    4 ar 
     7    6    4 ar 
     8    5    6 ar 
     9    6   31 1  
    10    7    8 ar 
    11    7   12 ar 
    12   31    7 1  
    13    8    9 ar 
    14    9   10 ar 
    15   11   10 ar 
    16   10   13 1  
    17   12   11 ar 
    18   13   32 1  
    19   14   15 2  
    20   14   17 1  
    21   32   14 1  
    22   15   16 1  
    23   15   33 1  
    24   17   16 1  
    25   16   38 2  
    26   17   37 2  
    27   18   19 1  
    28   33   18 1  
    29   19   34 1  
    30   20   21 1  
    31   34   20 am 
    32   20   39 2  
    33   21   22 1  
    34   23   24 ar 
    35   23   28 ar 
    36   23   35 1  
    37   24   25 ar 
    38   24   29 1  
    39   25   26 ar 
    40   26   27 ar 
    41   27   28 ar 
    42   29   36 am 
    43   29   40 2  
    44   36   30 1  
    45    3   42 1  
    46    8   43 1  
    47    9   44 1  
    48   11   45 1  
    49   12   46 1  
    50   13   47 1  
    51   13   48 1  
    52   18   49 1  
    53   18   50 1  
    54   19   51 1  
    55   19   52 1  
    56   21   53 1  
    57   21   54 1  
    58   22   55 1  
    59   22   56 1  
    60   22   57 1  
    61   25   58 1  
    62   26   59 1  
    63   27   60 1  
    64   28   61 1  
    65   30   62 1  
    66   30   63 1  
    67   30   64 1  
    68   31   65 1  
    69   32   66 1  
    70   33   67 1  
    71   34   68 1  
    72   35   69 1  
    73   36   70 1  
@<TRIPOS>SUBSTRUCTURE
     1 EUW         1

