### 
### Created by X-TOOL on Mon Aug  2 16:13:29 2021
### 

@<TRIPOS>MOLECULE
6gcw_ligand
   72    75     1     0     0
SMALL
GAST_HUCK


@<TRIPOS>ATOM
      1 C4          0.4230  -34.7170   13.9720 C.ar      1 EUQ         0.1497
      2 C5         -0.3120  -35.8980   14.0330 C.ar      1 EUQ         0.0988
      3 C6          0.1280  -36.9440   14.8160 C.ar      1 EUQ         0.0154
      4 N1          1.2950  -36.7710   15.5420 N.ar      1 EUQ        -0.2683
      5 N3          1.5310  -34.6150   14.7100 N.ar      1 EUQ        -0.2336
      6 C2          1.9770  -35.6240   15.4720 C.ar      1 EUQ         0.1943
      7 CAA        15.2050  -32.0570   19.1190 C.3       1 EUQ        -0.0482
      8 CAB         0.6350  -34.0700    8.4130 C.3       1 EUQ         0.0187
      9 CAF        15.9990  -30.8750   18.5600 C.3       1 EUQ         0.0344
     10 CAG         1.9540  -30.6890   13.5580 C.ar      1 EUQ        -0.0669
     11 CAH         2.0990  -30.3350   12.2220 C.ar      1 EUQ        -0.0675
     12 CAI         1.2320  -31.8250   13.9070 C.ar      1 EUQ        -0.0320
     13 CAJ         1.5290  -31.1330   11.2380 C.ar      1 EUQ        -0.0512
     14 CAK         5.5440  -33.4200   17.6900 C.ar      1 EUQ        -0.0643
     15 CAL         4.8500  -32.4190   15.6170 C.ar      1 EUQ        -0.0643
     16 CAM         4.6740  -34.4820   17.4950 C.ar      1 EUQ        -0.0441
     17 CAN         3.9860  -33.4890   15.4160 C.ar      1 EUQ        -0.0441
     18 CAP        10.3140  -30.2650   19.1810 C.2       1 EUQ         0.0745
     19 CAQ        12.8760  -28.7250   18.3210 C.3       1 EUQ         0.0611
     20 CAR        12.0180  -28.5210   19.5690 C.3       1 EUQ         0.0954
     21 CAS         6.5290  -31.3420   16.9980 C.3       1 EUQ        -0.0038
     22 CAT         8.1700  -31.5350   18.7520 C.3       1 EUQ         0.0027
     23 CBD        15.1500  -29.6420   18.2580 C.2       1 EUQ         0.1758
     24 CBE         0.2480  -33.0370   10.5610 C.2       1 EUQ         0.1981
     25 CBG         5.6440  -32.4010   16.7620 C.ar      1 EUQ        -0.0096
     26 CBH         3.8770  -34.5110   16.3530 C.ar      1 EUQ         0.0589
     27 CBI         9.0090  -30.2660   18.9630 C.2       1 EUQ         0.0810
     28 CBK         0.6600  -32.6220   12.9230 C.ar      1 EUQ         0.0853
     29 CBL         0.8000  -32.2610   11.5840 C.ar      1 EUQ         0.0729
     30 NAV         8.5640  -29.0040   18.9630 N.2       1 EUQ        -0.2212
     31 NAW         9.5640  -28.2530   19.1730 N.2       1 EUQ        -0.1017
     32 NAY         1.0840  -33.2410    9.5340 N.am      1 EUQ        -0.2912
     33 NAZ         6.7640  -31.2080   18.4450 N.4       1 EUQ         0.2465
     34 NBA        13.8490  -29.8000   18.5430 N.am      1 EUQ        -0.2841
     35 NBB         3.0830  -35.5810   16.2150 N.pl3     1 EUQ        -0.2480
     36 NBC        -0.0580  -33.7310   13.1830 N.pl3     1 EUQ        -0.2509
     37 NBN        10.6360  -28.9790   19.3110 N.pl3     1 EUQ        -0.1791
     38 OAC        15.6460  -28.6120   17.7920 O.2       1 EUQ        -0.3971
     39 OAD        -0.8860  -33.5060   10.6520 O.2       1 EUQ        -0.3912
     40 CL5        -1.7280  -36.1080   13.1530 Cl        1 EUQ        -0.0747
     41 H1         -0.4239  -37.8758   14.8622 H         1 EUQ         0.0855
     42 H2         15.8863  -32.8996   19.3084 H         1 EUQ         0.0254
     43 H3         14.4390  -32.3615   18.3906 H         1 EUQ         0.0254
     44 H4         14.7188  -31.7600   20.0599 H         1 EUQ         0.0254
     45 H5          1.4356  -34.1352    7.6615 H         1 EUQ         0.0483
     46 H6         -0.2590  -33.6186    7.9581 H         1 EUQ         0.0483
     47 H7          0.3913  -35.0788    8.7775 H         1 EUQ         0.0483
     48 H8         16.4863  -31.1959   17.6275 H         1 EUQ         0.0500
     49 H9         16.7660  -30.5944   19.2968 H         1 EUQ         0.0500
     50 H10         2.4054  -30.0774   14.3308 H         1 EUQ         0.0623
     51 H11         2.6524  -29.4435   11.9499 H         1 EUQ         0.0533
     52 H12         1.1149  -32.0900   14.9516 H         1 EUQ         0.0550
     53 H13         1.6548  -30.8724   10.1933 H         1 EUQ         0.0639
     54 H14         6.1554  -33.3886   18.5846 H         1 EUQ         0.0531
     55 H15         4.9053  -31.6121   14.8952 H         1 EUQ         0.0531
     56 H16         4.6147  -35.2819   18.2242 H         1 EUQ         0.0521
     57 H17         3.3868  -33.5276   14.5135 H         1 EUQ         0.0521
     58 H18        10.9784  -31.1258   19.2409 H         1 EUQ         0.0900
     59 H19        13.4119  -27.7920   18.0924 H         1 EUQ         0.0550
     60 H20        12.2270  -28.9921   17.4740 H         1 EUQ         0.0550
     61 H21        12.0050  -27.4530   19.8319 H         1 EUQ         0.0668
     62 H22        12.4438  -29.0987   20.4026 H         1 EUQ         0.0668
     63 H23         6.0951  -30.4088   16.6097 H         1 EUQ         0.0957
     64 H24         7.4835  -31.5422   16.4892 H         1 EUQ         0.0957
     65 H25         8.2039  -32.1426   19.6683 H         1 EUQ         0.0931
     66 H26         8.5944  -32.1093   17.9153 H         1 EUQ         0.0931
     67 H27         1.9978  -32.8347    9.5328 H         1 EUQ         0.1837
     68 H28         6.1565  -31.8395   18.9432 H         1 EUQ         0.2036
     69 H29         6.5703  -30.2607   18.7298 H         1 EUQ         0.2036
     70 H30        13.5343  -30.6727   18.9163 H         1 EUQ         0.1852
     71 H31         3.3477  -36.4373   16.7225 H         1 EUQ         0.2161
     72 H32        -0.9966  -33.8302   12.7705 H         1 EUQ         0.2187
@<TRIPOS>BOND
     1    1    2 ar 
     2    1    5 ar 
     3   36    1 1  
     4    2    3 ar 
     5    2   40 1  
     6    3    4 ar 
     7    6    4 ar 
     8    5    6 ar 
     9    6   35 1  
    10    9    7 1  
    11   32    8 1  
    12   23    9 1  
    13   10   11 ar 
    14   12   10 ar 
    15   13   11 ar 
    16   28   12 ar 
    17   29   13 ar 
    18   16   14 ar 
    19   14   25 ar 
    20   17   15 ar 
    21   15   25 ar 
    22   26   16 ar 
    23   26   17 ar 
    24   27   18 2  
    25   18   37 1  
    26   20   19 1  
    27   19   34 1  
    28   37   20 1  
    29   25   21 1  
    30   21   33 1  
    31   22   27 1  
    32   33   22 1  
    33   34   23 am 
    34   23   38 2  
    35   29   24 1  
    36   24   32 am 
    37   24   39 2  
    38   35   26 1  
    39   27   30 1  
    40   28   29 ar 
    41   28   36 1  
    42   30   31 2  
    43   31   37 1  
    44    3   41 1  
    45    7   42 1  
    46    7   43 1  
    47    7   44 1  
    48    8   45 1  
    49    8   46 1  
    50    8   47 1  
    51    9   48 1  
    52    9   49 1  
    53   10   50 1  
    54   11   51 1  
    55   12   52 1  
    56   13   53 1  
    57   14   54 1  
    58   15   55 1  
    59   16   56 1  
    60   17   57 1  
    61   18   58 1  
    62   19   59 1  
    63   19   60 1  
    64   20   61 1  
    65   20   62 1  
    66   21   63 1  
    67   21   64 1  
    68   22   65 1  
    69   22   66 1  
    70   32   67 1  
    71   33   68 1  
    72   33   69 1  
    73   34   70 1  
    74   35   71 1  
    75   36   72 1  
@<TRIPOS>SUBSTRUCTURE
     1 EUQ         1

