### 
### Created by X-TOOL on Mon Aug  2 16:13:29 2021
### 

@<TRIPOS>MOLECULE
6gcx_ligand
   70    73     1     0     0
SMALL
GAST_HUCK


@<TRIPOS>ATOM
      1 C4         -3.1310    5.6780   87.2830 C.ar      1 EUW         0.1497
      2 C5         -4.1280    6.3970   86.6330 C.ar      1 EUW         0.0988
      3 C6         -5.4340    5.9510   86.7200 C.ar      1 EUW         0.0154
      4 N1         -5.7060    4.7950   87.4650 N.ar      1 EUW        -0.2683
      5 N3         -3.4420    4.5630   87.9860 N.ar      1 EUW        -0.2336
      6 C2         -4.7200    4.1290   88.0830 C.ar      1 EUW         0.1943
      7 CAH        -4.3980    2.2740   89.5640 C.ar      1 EUW         0.0589
      8 CAI        -5.1320    1.5410   90.4940 C.ar      1 EUW        -0.0443
      9 CAJ        -4.5060    0.6970   91.3920 C.ar      1 EUW        -0.0674
     10 CAK        -3.1240    0.5720   91.3660 C.ar      1 EUW        -0.0326
     11 CAL        -2.3680    1.2850   90.4340 C.ar      1 EUW        -0.0674
     12 CAM        -3.0090    2.1360   89.5270 C.ar      1 EUW        -0.0443
     13 CAN        -2.5540   -0.3040   92.2750 C.3       1 EUW         0.0516
     14 CAP        -3.1460   -2.4730   93.1000 C.2       1 EUW         0.1399
     15 CAQ        -2.7170   -2.9640   94.3370 C.2       1 EUW         0.1384
     16 CAR        -2.5190   -4.2200   93.7640 C.2       1 EUW         0.2235
     17 CAS        -2.9480   -3.7330   92.5360 C.2       1 EUW         0.2236
     18 CAW        -2.6780   -1.0120   95.6240 C.3       1 EUW         0.0430
     19 CAX        -2.9820   -0.5040   97.0310 C.3       1 EUW         0.0503
     20 CAZ        -4.8510    0.5920   98.1750 C.2       1 EUW         0.1758
     21 CBA        -6.3300    0.9790   98.1050 C.3       1 EUW         0.0344
     22 CBB        -7.0440    0.0840   97.0900 C.3       1 EUW        -0.0482
     23 CBE        -0.8330    5.5560   87.6610 C.ar      1 EUW         0.0853
     24 CBF         0.1990    5.1720   86.7920 C.ar      1 EUW         0.0729
     25 CBG         1.3150    4.5280   87.3280 C.ar      1 EUW        -0.0512
     26 CBH         1.4110    4.2810   88.6950 C.ar      1 EUW        -0.0675
     27 CBI         0.3860    4.6760   89.5480 C.ar      1 EUW        -0.0669
     28 CBJ        -0.7320    5.3170   89.0310 C.ar      1 EUW        -0.0320
     29 CBK         0.1640    5.3860   85.4040 C.2       1 EUW         0.1981
     30 CBN         1.0930    4.8400   83.2500 C.3       1 EUW         0.0187
     31 NAG        -5.1320    3.0390   88.7460 N.pl3     1 EUW        -0.2480
     32 NAO        -3.5920   -1.3000   92.6350 N.pl3     1 EUW        -0.3106
     33 NAV        -2.5600   -2.4770   95.5750 N.pl3     1 EUW        -0.3181
     34 NAY        -4.3820   -0.0600   97.1040 N.am      1 EUW        -0.2851
     35 NBD        -1.8930    6.1790   87.1290 N.pl3     1 EUW        -0.2509
     36 NBM         1.0730    4.6670   84.7090 N.am      1 EUW        -0.2912
     37 OAT        -3.0900   -4.2250   91.4160 O.2       1 EUW        -0.3669
     38 OAU        -2.1240   -5.3130   94.1710 O.2       1 EUW        -0.3669
     39 OBC        -4.1650    0.8700   99.1580 O.2       1 EUW        -0.3971
     40 OBL        -0.6320    6.1680   84.8730 O.2       1 EUW        -0.3912
     41 CL1        -3.7490    7.8240   85.7190 Cl        1 EUW        -0.0747
     42 H1         -6.2337    6.4860   86.2207 H         1 EUW         0.0855
     43 H2         -6.2118    1.6341   90.5137 H         1 EUW         0.0521
     44 H3         -5.0909    0.1362   92.1121 H         1 EUW         0.0530
     45 H4         -1.2893    1.1799   90.4130 H         1 EUW         0.0530
     46 H5         -2.4281    2.6874   88.7966 H         1 EUW         0.0521
     47 H6         -2.2292    0.2428   93.1725 H         1 EUW         0.0654
     48 H7         -1.6890   -0.8089   91.8202 H         1 EUW         0.0654
     49 H8         -1.7301   -0.5689   95.2846 H         1 EUW         0.0532
     50 H9         -3.4904   -0.6995   94.9515 H         1 EUW         0.0532
     51 H10        -2.3176    0.3403   97.2668 H         1 EUW         0.0539
     52 H11        -2.8168   -1.3143   97.7563 H         1 EUW         0.0539
     53 H12        -6.4196    2.0302   97.7937 H         1 EUW         0.0500
     54 H13        -6.7902    0.8494   99.0956 H         1 EUW         0.0500
     55 H14        -8.1070    0.3622   97.0398 H         1 EUW         0.0254
     56 H15        -6.9545   -0.9672   97.4012 H         1 EUW         0.0254
     57 H16        -6.5839    0.2136   96.0993 H         1 EUW         0.0254
     58 H17         2.1185    4.2156   86.6709 H         1 EUW         0.0639
     59 H18         2.2855    3.7804   89.0947 H         1 EUW         0.0533
     60 H19         0.4596    4.4842   90.6124 H         1 EUW         0.0623
     61 H20        -1.5289    5.6326   89.6946 H         1 EUW         0.0550
     62 H21         1.8751    4.2000   82.8156 H         1 EUW         0.0483
     63 H22         1.3041    5.8921   83.0084 H         1 EUW         0.0483
     64 H23         0.1148    4.5573   82.8338 H         1 EUW         0.0483
     65 H24        -6.1148    2.7613   88.6123 H         1 EUW         0.2161
     66 H25        -4.5974   -1.1007   92.5331 H         1 EUW         0.1770
     67 H26        -2.3768   -3.0639   96.4014 H         1 EUW         0.1747
     68 H27        -4.9963   -0.2490   96.3379 H         1 EUW         0.1851
     69 H28        -1.7581    7.0504   86.5967 H         1 EUW         0.2187
     70 H29         1.7055    4.0434   85.1684 H         1 EUW         0.1837
@<TRIPOS>BOND
     1    1    2 ar 
     2    1    5 ar 
     3   35    1 1  
     4    2    3 ar 
     5    2   41 1  
     6    3    4 ar 
     7    6    4 ar 
     8    5    6 ar 
     9    6   31 1  
    10    7    8 ar 
    11    7   12 ar 
    12   31    7 1  
    13    8    9 ar 
    14    9   10 ar 
    15   11   10 ar 
    16   10   13 1  
    17   12   11 ar 
    18   13   32 1  
    19   14   15 2  
    20   14   17 1  
    21   32   14 1  
    22   15   16 1  
    23   15   33 1  
    24   17   16 1  
    25   16   38 2  
    26   17   37 2  
    27   18   19 1  
    28   33   18 1  
    29   19   34 1  
    30   20   21 1  
    31   34   20 am 
    32   20   39 2  
    33   21   22 1  
    34   23   24 ar 
    35   23   28 ar 
    36   23   35 1  
    37   24   25 ar 
    38   24   29 1  
    39   25   26 ar 
    40   26   27 ar 
    41   27   28 ar 
    42   29   36 am 
    43   29   40 2  
    44   36   30 1  
    45    3   42 1  
    46    8   43 1  
    47    9   44 1  
    48   11   45 1  
    49   12   46 1  
    50   13   47 1  
    51   13   48 1  
    52   18   49 1  
    53   18   50 1  
    54   19   51 1  
    55   19   52 1  
    56   21   53 1  
    57   21   54 1  
    58   22   55 1  
    59   22   56 1  
    60   22   57 1  
    61   25   58 1  
    62   26   59 1  
    63   27   60 1  
    64   28   61 1  
    65   30   62 1  
    66   30   63 1  
    67   30   64 1  
    68   31   65 1  
    69   32   66 1  
    70   33   67 1  
    71   34   68 1  
    72   35   69 1  
    73   36   70 1  
@<TRIPOS>SUBSTRUCTURE
     1 EUW         1

