### 
### Created by X-TOOL on Wed Jan  1 15:39:38 2020
### 

@<TRIPOS>MOLECULE
6gdg_ligand
   38    40     1     0     0
SMALL
GAST_HUCK


@<TRIPOS>ATOM
      1 C5'        84.8000   54.2810   72.4010 C.2       1 NEC         0.2080
      2 O5'        85.9490   53.9230   72.1790 O.2       1 NEC        -0.3941
      3 N5'        84.2250   55.3070   71.7660 N.am      1 NEC        -0.2850
      4 C51        84.9230   56.0920   70.7640 C.3       1 NEC         0.0281
      5 C52        84.0970   57.2810   70.3290 C.3       1 NEC        -0.0449
      6 C4'        83.9550   53.5510   73.4150 C.3       1 NEC         0.1788
      7 O4'        83.6190   52.2590   72.9020 O.3       1 NEC        -0.3181
      8 C3'        84.6620   53.3510   74.7540 C.3       1 NEC         0.1295
      9 O3'        84.0230   54.1250   75.7760 O.3       1 NEC        -0.3840
     10 C2'        84.5980   51.8580   75.0400 C.3       1 NEC         0.1408
     11 O2'        83.7590   51.5600   76.1640 O.3       1 NEC        -0.3834
     12 C1'        84.0410   51.2060   73.7760 C.3       1 NEC         0.2035
     13 N9         85.0540   50.3340   73.1110 N.pl3     1 NEC        -0.1918
     14 C8         85.6250   50.5320   71.9010 C.2       1 NEC         0.1123
     15 N7         86.5000   49.5340   71.6090 N.2       1 NEC        -0.2958
     16 C5         86.4990   48.6710   72.6370 C.ar      1 NEC         0.1045
     17 C6         87.1930   47.4000   72.9770 C.ar      1 NEC         0.1298
     18 N6         88.0880   46.8430   72.1250 N.pl3     1 NEC        -0.3152
     19 N1         86.8990   46.8180   74.1670 N.ar      1 NEC        -0.2698
     20 C2         86.0090   47.3560   75.0320 C.ar      1 NEC         0.0533
     21 N3         85.3470   48.5080   74.7810 N.ar      1 NEC        -0.2714
     22 C4         85.5410   49.2000   73.6250 C.ar      1 NEC         0.1613
     23 H1         83.2792   55.5425   71.9894 H         1 NEC         0.1851
     24 H2         85.1271   55.4574   69.8890 H         1 NEC         0.0517
     25 H3         85.8732   56.4505   71.1867 H         1 NEC         0.0517
     26 H4         84.6509   57.8548   69.5714 H         1 NEC         0.0249
     27 H5         83.8926   57.9232   71.1983 H         1 NEC         0.0249
     28 H6         83.1465   56.9302   69.9006 H         1 NEC         0.0249
     29 H7         83.0354   54.1305   73.5842 H         1 NEC         0.0869
     30 H8         85.7126   53.6675   74.6756 H         1 NEC         0.0673
     31 H9         83.1172   53.8509   75.8596 H         1 NEC         0.2102
     32 H10        85.6101   51.4780   75.2432 H         1 NEC         0.0678
     33 H11        84.0998   51.9956   76.9365 H         1 NEC         0.2101
     34 H12        83.1722   50.5866   74.0436 H         1 NEC         0.0998
     35 H13        85.4122   51.3775   71.2485 H         1 NEC         0.1349
     36 H14        88.5594   45.9624   72.3766 H         1 NEC         0.1820
     37 H15        88.2967   47.3003   71.2260 H         1 NEC         0.1820
     38 H16        85.8183   46.8414   75.9668 H         1 NEC         0.0996
@<TRIPOS>BOND
     1    1    2 2  
     2    1    3 am 
     3    1    6 1  
     4    3    4 1  
     5    4    5 1  
     6    6    7 1  
     7    6    8 1  
     8    7   12 1  
     9    8    9 1  
    10    8   10 1  
    11   10   11 1  
    12   10   12 1  
    13   12   13 1  
    14   13   14 1  
    15   13   22 1  
    16   14   15 2  
    17   15   16 1  
    18   16   17 ar 
    19   16   22 ar 
    20   17   18 1  
    21   17   19 ar 
    22   19   20 ar 
    23   20   21 ar 
    24   21   22 ar 
    25    3   23 1  
    26    4   24 1  
    27    4   25 1  
    28    5   26 1  
    29    5   27 1  
    30    5   28 1  
    31    6   29 1  
    32    8   30 1  
    33    9   31 1  
    34   10   32 1  
    35   11   33 1  
    36   12   34 1  
    37   14   35 1  
    38   18   36 1  
    39   18   37 1  
    40   20   38 1  
@<TRIPOS>SUBSTRUCTURE
     1 NEC         1

