### 
### Created by X-TOOL on Wed Jan  1 15:39:35 2020
### 

@<TRIPOS>MOLECULE
6ge0_ligand
   68    72     1     0     0
SMALL
GAST_HUCK


@<TRIPOS>ATOM
      1 C1         -2.9080   12.0180   47.1850 C.3       1 EVQ         0.0592
      2 C3         -2.5220   11.0510   49.3560 C.ar      1 EVQ         0.0841
      3 C5         -2.0960   10.2060   51.5570 C.ar      1 EVQ        -0.0771
      4 C6         -1.2960    9.2130   51.0190 C.ar      1 EVQ        -0.0692
      5 C7         -1.0770    9.1370   49.6480 C.ar      1 EVQ        -0.0272
      6 C8         -1.7080   10.0630   48.8220 C.ar      1 EVQ        -0.0301
      7 C10        -0.9960    6.7490   48.8670 C.3       1 EVQ        -0.0321
      8 C12         1.7150    8.2750   47.5330 C.2       1 EVQ         0.2009
      9 C14         2.0960    8.5570   46.0950 C.3       1 EVQ         0.1246
     10 C16         4.2880    9.8530   46.0620 C.3       1 EVQ         0.0748
     11 C19         8.0370    9.4920   45.3290 C.ar      1 EVQ        -0.0498
     12 C21         6.8480    7.4330   45.0040 C.ar      1 EVQ        -0.0337
     13 C22         5.6790    8.0650   45.3750 C.ar      1 EVQ         0.0589
     14 C23         4.2910    7.5620   45.4820 C.2       1 EVQ         0.2080
     15 C25         9.3500    7.5030   44.6200 C.ar      1 EVQ         0.0642
     16 C27        11.4080    7.6730   43.5930 C.ar      1 EVQ         0.1879
     17 C31        13.0470   11.6820   41.1590 C.3       1 EVQ         0.0498
     18 C36        11.0030    5.7780   44.8000 C.ar      1 EVQ         0.0254
     19 C37         9.7510    6.2640   45.1240 C.ar      1 EVQ         0.0819
     20 O2         -3.1700   11.9890   48.5910 O.3       1 EVQ        -0.3230
     21 C4         -2.7170   11.1120   50.7240 C.ar      1 EVQ        -0.0401
     22 C9         -0.1990    8.0340   49.0730 C.3       1 EVQ         0.0703
     23 N11         0.4210    8.4170   47.8100 N.am      1 EVQ        -0.2714
     24 O13         2.5550    7.9400   48.3610 O.2       1 EVQ        -0.3947
     25 N15         3.5320    8.6180   45.9010 N.am      1 EVQ        -0.2415
     26 C17         5.6800    9.4050   45.7210 C.ar      1 EVQ         0.0042
     27 C18         6.8600   10.1120   45.6940 C.ar      1 EVQ        -0.0474
     28 C20         8.0540    8.1510   44.9540 C.ar      1 EVQ         0.0036
     29 O24         3.8610    6.4380   45.2500 O.2       1 EVQ        -0.3878
     30 N26        10.2000    8.2200   43.8750 N.ar      1 EVQ        -0.2529
     31 N28        12.2660    8.3680   42.8220 N.pl3     1 EVQ        -0.2863
     32 C29        11.9980    9.6480   42.1970 C.3       1 EVQ         0.0461
     33 C30        13.2930   10.4290   41.9820 C.3       1 EVQ        -0.0060
     34 O32        12.4210   11.3730   39.8990 O.3       1 EVQ        -0.3796
     35 C33        11.1320   10.7730   40.1200 C.3       1 EVQ         0.0498
     36 C34        11.2690    9.4530   40.8650 C.3       1 EVQ        -0.0060
     37 N35        11.8440    6.4720   44.0260 N.ar      1 EVQ        -0.2569
     38 CL1         8.7060    5.3280   46.1460 Cl        1 EVQ        -0.0667
     39 H1         -3.4997   12.8193   46.7183 H         1 EVQ         0.0577
     40 H2         -3.1853   11.0509   46.7403 H         1 EVQ         0.0577
     41 H3         -1.8376   12.2062   47.0153 H         1 EVQ         0.0577
     42 H4         -2.2339   10.2711   52.6302 H         1 EVQ         0.0572
     43 H5         -0.8338    8.4846   51.6754 H         1 EVQ         0.0465
     44 H6         -1.5615   10.0113   47.7492 H         1 EVQ         0.0479
     45 H7         -0.3376    5.9718   48.4517 H         1 EVQ         0.0274
     46 H8         -1.8244    6.9392   48.1687 H         1 EVQ         0.0274
     47 H9         -1.4004    6.4096   49.8320 H         1 EVQ         0.0274
     48 H10         1.6589    9.5215   45.7972 H         1 EVQ         0.0767
     49 H11         1.6881    7.7575   45.4590 H         1 EVQ         0.0767
     50 H12         4.2291   10.2274   47.0946 H         1 EVQ         0.0711
     51 H13         3.9364   10.6315   45.3690 H         1 EVQ         0.0711
     52 H14         8.9622   10.0569   45.3342 H         1 EVQ         0.0675
     53 H15         6.8356    6.3792   44.7504 H         1 EVQ         0.0695
     54 H16        14.0098   12.1782   40.9673 H         1 EVQ         0.0560
     55 H17        12.3920   12.3593   41.7266 H         1 EVQ         0.0560
     56 H18        11.3108    4.8114   45.1822 H         1 EVQ         0.0891
     57 H19        -3.3615   11.8762   51.1432 H         1 EVQ         0.0486
     58 H20         0.6022    7.8321   49.7991 H         1 EVQ         0.0715
     59 H21        -0.1660    8.8133   47.1040 H         1 EVQ         0.1881
     60 H22         6.8648   11.1626   45.9612 H         1 EVQ         0.0582
     61 H23        13.1951    7.9531   42.6623 H         1 EVQ         0.1866
     62 H24        11.3486   10.2308   42.8668 H         1 EVQ         0.0561
     63 H25        13.7051   10.7171   42.9603 H         1 EVQ         0.0310
     64 H26        14.0150    9.7887   41.4541 H         1 EVQ         0.0310
     65 H27        10.6484   10.5902   39.1491 H         1 EVQ         0.0560
     66 H28        10.5121   11.4598   40.7149 H         1 EVQ         0.0560
     67 H29        10.2665    9.0443   41.0600 H         1 EVQ         0.0310
     68 H30        11.8385    8.7465   40.2433 H         1 EVQ         0.0310
@<TRIPOS>BOND
     1   20    1 1  
     2    6    2 ar 
     3    2   20 1  
     4    2   21 ar 
     5    4    3 ar 
     6    3   21 ar 
     7    5    4 ar 
     8    5    6 ar 
     9   22    5 1  
    10   22    7 1  
    11    9    8 1  
    12    8   23 am 
    13    8   24 2  
    14   25    9 1  
    15   10   25 1  
    16   26   10 1  
    17   11   27 ar 
    18   28   11 ar 
    19   12   13 ar 
    20   28   12 ar 
    21   13   14 1  
    22   13   26 ar 
    23   14   25 am 
    24   14   29 2  
    25   15   19 ar 
    26   15   28 1  
    27   30   15 ar 
    28   16   30 ar 
    29   31   16 1  
    30   16   37 ar 
    31   33   17 1  
    32   17   34 1  
    33   18   19 ar 
    34   37   18 ar 
    35   19   38 1  
    36   23   22 1  
    37   27   26 ar 
    38   32   31 1  
    39   32   33 1  
    40   32   36 1  
    41   34   35 1  
    42   35   36 1  
    43    1   39 1  
    44    1   40 1  
    45    1   41 1  
    46    3   42 1  
    47    4   43 1  
    48    6   44 1  
    49    7   45 1  
    50    7   46 1  
    51    7   47 1  
    52    9   48 1  
    53    9   49 1  
    54   10   50 1  
    55   10   51 1  
    56   11   52 1  
    57   12   53 1  
    58   17   54 1  
    59   17   55 1  
    60   18   56 1  
    61   21   57 1  
    62   22   58 1  
    63   23   59 1  
    64   27   60 1  
    65   31   61 1  
    66   32   62 1  
    67   33   63 1  
    68   33   64 1  
    69   35   65 1  
    70   35   66 1  
    71   36   67 1  
    72   36   68 1  
@<TRIPOS>SUBSTRUCTURE
     1 EVQ         1

