### 
### Created by X-TOOL on Wed Jan  1 15:39:37 2020
### 

@<TRIPOS>MOLECULE
6ge7_ligand
   58    57     1     0     0
SMALL
GAST_HUCK


@<TRIPOS>ATOM
      1 C4         23.4610   49.0810   57.0490 C.3       1 EW8        -0.0516
      2 C5         22.4700   47.9120   56.9950 C.3       1 EW8        -0.0530
      3 C6         21.3280   48.0730   58.0010 C.3       1 EW8        -0.0531
      4 C7         20.2850   46.9560   57.8690 C.3       1 EW8        -0.0531
      5 C8         19.4080   47.1220   56.6140 C.3       1 EW8        -0.0531
      6 C10        17.2670   48.5430   56.9840 C.3       1 EW8        -0.0531
      7 C13        13.7030   49.8390   56.0290 C.3       1 EW8        -0.0531
      8 C15        11.7330   51.3770   56.0760 C.3       1 EW8        -0.0531
      9 C17        10.2560   51.3690   54.0480 C.3       1 EW8        -0.0533
     10 O1         24.8140   49.9470   52.8820 O.co2     1 EW8        -0.5690
     11 C1         25.5680   49.9650   53.8870 C.2       1 EW8         0.0348
     12 O2         26.6320   50.6130   53.9890 O.co2     1 EW8        -0.5690
     13 C2         25.1200   49.1120   55.1270 C.3       1 EW8         0.0002
     14 C3         23.7750   49.6240   55.6530 C.3       1 EW8        -0.0414
     15 C9         17.8930   47.1160   56.9240 C.3       1 EW8        -0.0531
     16 C11        15.8190   48.5560   56.4550 C.3       1 EW8        -0.0531
     17 C12        15.1310   49.9430   56.5190 C.3       1 EW8        -0.0531
     18 C14        13.0960   51.1380   55.5370 C.3       1 EW8        -0.0531
     19 C16        10.8360   52.1880   55.1720 C.3       1 EW8        -0.0531
     20 C18         8.8880   51.8910   53.6590 C.3       1 EW8        -0.0559
     21 C19         8.5010   51.4660   52.2470 C.3       1 EW8        -0.0653
     22 H1         24.3953   48.7347   57.5149 H         1 EW8         0.0266
     23 H2         23.0262   49.8889   57.6558 H         1 EW8         0.0266
     24 H3         23.0097   46.9799   57.2185 H         1 EW8         0.0265
     25 H4         22.0442   47.8555   55.9823 H         1 EW8         0.0265
     26 H5         20.8355   49.0411   57.8275 H         1 EW8         0.0265
     27 H6         21.7452   48.0510   59.0186 H         1 EW8         0.0265
     28 H7         19.6371   46.9699   58.7578 H         1 EW8         0.0265
     29 H8         20.8069   45.9895   57.8107 H         1 EW8         0.0265
     30 H9         19.6266   46.2947   55.9228 H         1 EW8         0.0265
     31 H10        19.6626   48.0782   56.1336 H         1 EW8         0.0265
     32 H11        17.8757   49.2248   56.3720 H         1 EW8         0.0265
     33 H12        17.2675   48.8884   58.0284 H         1 EW8         0.0265
     34 H13        13.0843   49.4665   56.8587 H         1 EW8         0.0265
     35 H14        13.6788   49.1162   55.2002 H         1 EW8         0.0265
     36 H15        11.8305   51.9114   57.0325 H         1 EW8         0.0265
     37 H16        11.2555   50.4011   56.2482 H         1 EW8         0.0265
     38 H17        10.1644   50.3222   54.3733 H         1 EW8         0.0265
     39 H18        10.9254   51.4251   53.1770 H         1 EW8         0.0265
     40 H19        25.8775   49.1955   55.9202 H         1 EW8         0.0430
     41 H20        25.0174   48.0586   54.8273 H         1 EW8         0.0430
     42 H21        23.8063   50.7226   55.6980 H         1 EW8         0.0283
     43 H22        22.9798   49.3078   54.9618 H         1 EW8         0.0283
     44 H23        17.7381   46.6263   57.8967 H         1 EW8         0.0265
     45 H24        17.3787   46.5425   56.1387 H         1 EW8         0.0265
     46 H25        15.2265   47.8492   57.0545 H         1 EW8         0.0265
     47 H26        15.8322   48.2258   55.4058 H         1 EW8         0.0265
     48 H27        15.1336   50.3026   57.5586 H         1 EW8         0.0265
     49 H28        15.6826   50.6522   55.8843 H         1 EW8         0.0265
     50 H29        13.0389   51.1056   54.4390 H         1 EW8         0.0265
     51 H30        13.7468   51.9693   55.8460 H         1 EW8         0.0265
     52 H31        11.4225   53.0128   54.7411 H         1 EW8         0.0265
     53 H32        10.0102   52.5991   55.7712 H         1 EW8         0.0265
     54 H33         8.8983   52.9898   53.7099 H         1 EW8         0.0263
     55 H34         8.1426   51.4981   54.3661 H         1 EW8         0.0263
     56 H35         7.5047   51.8641   52.0044 H         1 EW8         0.0230
     57 H36         8.4816   50.3678   52.1869 H         1 EW8         0.0230
     58 H37         9.2374   51.8595   51.5308 H         1 EW8         0.0230
@<TRIPOS>BOND
     1    2    1 1  
     2    1   14 1  
     3    3    2 1  
     4    4    3 1  
     5    5    4 1  
     6   15    5 1  
     7    6   15 1  
     8   16    6 1  
     9   17    7 1  
    10    7   18 1  
    11   18    8 1  
    12    8   19 1  
    13   19    9 1  
    14    9   20 1  
    15   11   10 ar 
    16   11   12 ar 
    17   13   11 1  
    18   14   13 1  
    19   16   17 1  
    20   20   21 1  
    21    1   22 1  
    22    1   23 1  
    23    2   24 1  
    24    2   25 1  
    25    3   26 1  
    26    3   27 1  
    27    4   28 1  
    28    4   29 1  
    29    5   30 1  
    30    5   31 1  
    31    6   32 1  
    32    6   33 1  
    33    7   34 1  
    34    7   35 1  
    35    8   36 1  
    36    8   37 1  
    37    9   38 1  
    38    9   39 1  
    39   13   40 1  
    40   13   41 1  
    41   14   42 1  
    42   14   43 1  
    43   15   44 1  
    44   15   45 1  
    45   16   46 1  
    46   16   47 1  
    47   17   48 1  
    48   17   49 1  
    49   18   50 1  
    50   18   51 1  
    51   19   52 1  
    52   19   53 1  
    53   20   54 1  
    54   20   55 1  
    55   21   56 1  
    56   21   57 1  
    57   21   58 1  
@<TRIPOS>SUBSTRUCTURE
     1 EW8         1

