### 
### Created by X-TOOL on Mon Aug  2 16:11:43 2021
### 

@<TRIPOS>MOLECULE
6gev_ligand
   49    52     1     0     0
SMALL
GAST_HUCK


@<TRIPOS>ATOM
      1 C1          8.4370   18.8410   14.1950 C.3       1 EWN        -0.0626
      2 C2          7.4320   17.9270   13.5010 C.3       1 EWN        -0.0441
      3 C3          7.6800   17.9450   12.0090 C.3       1 EWN        -0.0626
      4 C8          9.0280   14.4670   16.0770 C.ar      1 EWN         0.1117
      5 C9         10.1390   13.6460   16.1700 C.ar      1 EWN        -0.0125
      6 C10        11.2700   14.2110   16.7310 C.ar      1 EWN         0.1074
      7 C11        11.3250   15.5120   17.1820 C.ar      1 EWN        -0.0531
      8 C12        10.2010   16.3100   17.0830 C.ar      1 EWN        -0.0504
      9 C13         9.0520   15.7700   16.5330 C.ar      1 EWN         0.0954
     10 C15         7.3990   17.5130   17.2950 C.2       1 EWN         0.2198
     11 C19         8.6490   16.6590   20.7640 C.ar      1 EWN        -0.0392
     12 C20         8.9130   17.9370   21.2380 C.ar      1 EWN         0.1214
     13 C21         8.6770   19.0400   20.4490 C.ar      1 EWN         0.1026
     14 C22         8.2060   18.9120   19.1560 C.ar      1 EWN        -0.0291
     15 N23         8.8990   20.3430   20.9670 N.am      1 EWN        -0.2335
     16 C24         9.5270   20.5450   22.1620 C.2       1 EWN         0.2315
     17 C4          7.5650   16.4680   13.9320 C.3       1 EWN        -0.0203
     18 C5          6.9780   16.1820   15.3040 C.3       1 EWN         0.0904
     19 C6          6.7080   14.7080   15.4910 C.3       1 EWN         0.0948
     20 O7          7.9160   13.9230   15.4650 O.3       1 EWN        -0.3222
     21 N14         7.8640   16.5480   16.4060 N.am      1 EWN        -0.2201
     22 O16         6.4490   18.2460   17.0000 O.2       1 EWN        -0.3800
     23 C17         7.9600   17.6340   18.6690 C.ar      1 EWN         0.0303
     24 C18         8.1780   16.5150   19.4600 C.ar      1 EWN        -0.0654
     25 O25         9.6610   21.6490   22.6510 O.2       1 EWN        -0.3833
     26 C26        10.0720   19.3080   22.8070 C.3       1 EWN         0.1624
     27 O27         9.3020   18.1140   22.5590 O.3       1 EWN        -0.2997
     28 F28        12.3750   13.4470   16.8520 F         1 EWN        -0.1990
     29 H1          8.2941   19.8745   13.8466 H         1 EWN         0.0232
     30 H2          9.4587   18.5113   13.9556 H         1 EWN         0.0232
     31 H3          8.2828   18.7963   15.2832 H         1 EWN         0.0232
     32 H4          6.4153   18.2843   13.7214 H         1 EWN         0.0296
     33 H5          6.9552   17.2858   11.5089 H         1 EWN         0.0232
     34 H6          8.7008   17.5909   11.8026 H         1 EWN         0.0232
     35 H7          7.5643   18.9713   11.6304 H         1 EWN         0.0232
     36 H8         10.1233   12.6192   15.8230 H         1 EWN         0.0484
     37 H9         12.2401   15.9053   17.6098 H         1 EWN         0.0473
     38 H10        10.2192   17.3372   17.4289 H         1 EWN         0.0459
     39 H11         8.8059   15.7914   21.3947 H         1 EWN         0.0510
     40 H12         8.0330   19.7856   18.5380 H         1 EWN         0.0514
     41 H13         8.5867   21.1347   20.4419 H         1 EWN         0.2223
     42 H14         8.6334   16.2068   13.9498 H         1 EWN         0.0295
     43 H15         7.0460   15.8388   13.1939 H         1 EWN         0.0295
     44 H16         6.0371   16.7446   15.3944 H         1 EWN         0.0642
     45 H17         6.0455   14.3644   14.6829 H         1 EWN         0.0636
     46 H18         6.2107   14.5597   16.4609 H         1 EWN         0.0636
     47 H19         7.9814   15.5258   19.0626 H         1 EWN         0.0516
     48 H20        10.1070   19.4744   23.8938 H         1 EWN         0.0861
     49 H21        11.0915   19.1439   22.4281 H         1 EWN         0.0861
@<TRIPOS>BOND
     1    2    1 1  
     2    2    3 1  
     3   17    2 1  
     4    4    5 ar 
     5    9    4 ar 
     6    4   20 1  
     7    5    6 ar 
     8    7    6 ar 
     9    6   28 1  
    10    8    7 ar 
    11    9    8 ar 
    12   21    9 1  
    13   21   10 am 
    14   10   22 2  
    15   10   23 1  
    16   12   11 ar 
    17   11   24 ar 
    18   13   12 ar 
    19   12   27 1  
    20   14   13 ar 
    21   13   15 1  
    22   23   14 ar 
    23   15   16 am 
    24   16   25 2  
    25   16   26 1  
    26   18   17 1  
    27   18   19 1  
    28   18   21 1  
    29   19   20 1  
    30   23   24 ar 
    31   26   27 1  
    32    1   29 1  
    33    1   30 1  
    34    1   31 1  
    35    2   32 1  
    36    3   33 1  
    37    3   34 1  
    38    3   35 1  
    39    5   36 1  
    40    7   37 1  
    41    8   38 1  
    42   11   39 1  
    43   14   40 1  
    44   15   41 1  
    45   17   42 1  
    46   17   43 1  
    47   18   44 1  
    48   19   45 1  
    49   19   46 1  
    50   24   47 1  
    51   26   48 1  
    52   26   49 1  
@<TRIPOS>SUBSTRUCTURE
     1 EWN         1

