### 
### Created by X-TOOL on Mon Aug  2 16:10:46 2021
### 

@<TRIPOS>MOLECULE
6gf3_ligand
   61    66     1     0     0
SMALL
GAST_HUCK


@<TRIPOS>ATOM
      1 CAA        17.5470   66.6000   45.1640 C.ar      1 EX5        -0.0111
      2 CAB        17.4940   65.7050   46.2890 C.ar      1 EX5         0.1913
      3 CAC        17.0710   64.3520   46.0770 C.ar      1 EX5         0.1758
      4 CAD        16.7050   63.9430   44.7400 C.ar      1 EX5         0.0231
      5 CAE        16.7720   64.8560   43.6890 C.ar      1 EX5         0.0391
      6 CAF        17.1850   66.1630   43.8950 C.ar      1 EX5        -0.0561
      7 CAH        16.6560   65.8060   41.7540 C.2       1 EX5         0.0126
      8 CAI        17.1290   66.7690   42.6610 C.3       1 EX5         0.0300
      9 CAJ        16.1810   66.1530   40.5320 C.3       1 EX5         0.1040
     10 CAK        15.7340   67.4970   40.2500 C.3       1 EX5        -0.0064
     11 CAL        15.3090   68.3400   41.6230 C.3       1 EX5         0.0364
     12 CAM        16.5880   68.2670   42.4140 C.3       1 EX5        -0.0349
     13 CAN        14.9090   69.8330   41.4510 C.3       1 EX5         0.1004
     14 CAO        15.9230   70.9660   41.6230 C.3       1 EX5         0.1253
     15 CAP        17.3490   70.5930   42.1140 C.3       1 EX5        -0.0033
     16 CAT        16.6330   62.2170   46.9050 C.3       1 EX5         0.0672
     17 CAU        17.1330   66.8950   48.3840 C.2       1 EX5         0.2522
     18 CAV        16.8830   66.2330   49.7310 C.3       1 EX5         0.0411
     19 CAY        18.7610   68.6290   42.8360 C.3       1 EX5        -0.0423
     20 CAZ        18.6780   67.0660   42.4700 C.3       1 EX5        -0.0326
     21 CBA        14.1040   67.6970   42.3230 C.3       1 EX5        -0.0434
     22 CBB        13.0480   67.2690   41.3030 C.3       1 EX5        -0.0645
     23 CBC        15.9160   65.1720   39.5790 C.2       1 EX5         0.2531
     24 CBF        14.5400   64.6250   37.8790 C.3       1 EX5         0.0659
     25 NAG        16.5010   64.6930   42.4300 N.2       1 EX5        -0.2865
     26 NAQ        17.6620   69.1490   41.9720 N.4       1 EX5         0.2310
     27 OAR        17.0430   63.5500   47.1550 O.3       1 EX5        -0.2957
     28 OAS        17.8630   66.1280   47.5450 O.3       1 EX5        -0.2091
     29 OAW        16.7060   68.0190   48.1400 O.2       1 EX5        -0.3646
     30 OAX        14.8880   70.7050   42.5960 O.3       1 EX5        -0.3620
     31 OBD        16.1050   63.9890   39.8250 O.2       1 EX5        -0.3654
     32 OBE        15.4490   65.5930   38.3850 O.3       1 EX5        -0.2778
     33 H1         17.8721   67.6242   45.3071 H         1 EX5         0.0884
     34 H2         16.3784   62.9261   44.5546 H         1 EX5         0.0841
     35 H3         17.1913   66.3463   40.1422 H         1 EX5         0.0771
     36 H4         14.8588   67.4438   39.5858 H         1 EX5         0.0330
     37 H5         16.5466   68.0382   39.7433 H         1 EX5         0.0330
     38 H6         16.3106   68.6400   43.4109 H         1 EX5         0.0718
     39 H7         14.1301   69.9110   40.6782 H         1 EX5         0.0631
     40 H8         15.9263   71.8486   40.9666 H         1 EX5         0.0676
     41 H9         17.4345   70.8655   43.1763 H         1 EX5         0.0841
     42 H10        18.0812   71.1678   41.5279 H         1 EX5         0.0841
     43 H11        16.6443   61.6474   47.8459 H         1 EX5         0.0595
     44 H12        17.3219   61.7503   46.1856 H         1 EX5         0.0595
     45 H13        15.6145   62.2184   46.4895 H         1 EX5         0.0595
     46 H14        16.2862   66.9054   50.3648 H         1 EX5         0.0485
     47 H15        17.8453   66.0249   50.2215 H         1 EX5         0.0485
     48 H16        16.3367   65.2902   49.5805 H         1 EX5         0.0485
     49 H17        19.7350   69.0619   42.5642 H         1 EX5         0.0803
     50 H18        18.5638   68.8107   43.9028 H         1 EX5         0.0803
     51 H19        18.9967   66.8799   41.4338 H         1 EX5         0.0189
     52 H20        19.2893   66.4611   43.1559 H         1 EX5         0.0189
     53 H21        13.6599   68.4249   43.0179 H         1 EX5         0.0270
     54 H22        14.4422   66.8135   42.8842 H         1 EX5         0.0270
     55 H23        12.1959   66.8119   41.8273 H         1 EX5         0.0230
     56 H24        13.4854   66.5379   40.6072 H         1 EX5         0.0230
     57 H25        12.7031   68.1494   40.7409 H         1 EX5         0.0230
     58 H26        14.1532   64.9591   36.9049 H         1 EX5         0.0577
     59 H27        13.7039   64.5036   38.5834 H         1 EX5         0.0577
     60 H28        15.0592   63.6630   37.7569 H         1 EX5         0.0577
     61 H29        17.8780   68.9843   41.0013 H         1 EX5         0.2025
@<TRIPOS>BOND
     1    2    1 ar 
     2    1    6 ar 
     3    2    3 ar 
     4   28    2 1  
     5    3    4 ar 
     6    3   27 1  
     7    4    5 ar 
     8    6    5 ar 
     9    5   25 1  
    10    6    8 1  
    11    8    7 1  
    12    7    9 1  
    13   25    7 2  
    14    8   12 1  
    15    8   20 1  
    16    9   10 1  
    17    9   23 1  
    18   11   10 1  
    19   12   11 1  
    20   11   13 1  
    21   11   21 1  
    22   12   26 1  
    23   13   14 1  
    24   13   30 1  
    25   15   14 1  
    26   14   30 1  
    27   26   15 1  
    28   27   16 1  
    29   17   18 1  
    30   17   28 1  
    31   17   29 2  
    32   20   19 1  
    33   19   26 1  
    34   21   22 1  
    35   23   31 2  
    36   23   32 1  
    37   32   24 1  
    38    1   33 1  
    39    4   34 1  
    40    9   35 1  
    41   10   36 1  
    42   10   37 1  
    43   12   38 1  
    44   13   39 1  
    45   14   40 1  
    46   15   41 1  
    47   15   42 1  
    48   16   43 1  
    49   16   44 1  
    50   16   45 1  
    51   18   46 1  
    52   18   47 1  
    53   18   48 1  
    54   19   49 1  
    55   19   50 1  
    56   20   51 1  
    57   20   52 1  
    58   21   53 1  
    59   21   54 1  
    60   22   55 1  
    61   22   56 1  
    62   22   57 1  
    63   24   58 1  
    64   24   59 1  
    65   24   60 1  
    66   26   61 1  
@<TRIPOS>SUBSTRUCTURE
     1 EX5         1

