### 
### Created by X-TOOL on Wed Jan  1 15:39:37 2020
### 

@<TRIPOS>MOLECULE
6gf9_ligand
   52    51     1     0     0
SMALL
GAST_HUCK


@<TRIPOS>ATOM
      1 O19         2.3270   -0.3780   54.6890 O.co2     1 X90        -0.5690
      2 C21         2.5390   -0.7480   55.8680 C.2       1 X90         0.0348
      3 O21         1.9040   -0.2810   56.8420 O.co2     1 X90        -0.5690
      4 C22         3.6070   -1.8000   56.0860 C.3       1 X90         0.0002
      5 C23         4.1560   -1.8090   57.5120 C.3       1 X90        -0.0414
      6 C24         5.2520   -0.7680   57.7250 C.3       1 X90        -0.0516
      7 C25         6.5700   -1.2140   57.1060 C.3       1 X90        -0.0530
      8 C26         7.7160   -0.3440   57.5960 C.3       1 X90        -0.0531
      9 C27         8.9120   -0.4530   56.6680 C.3       1 X90        -0.0531
     10 C28         9.3860   -1.8890   56.5910 C.3       1 X90        -0.0531
     11 C29        10.7600   -1.9590   55.9380 C.3       1 X90        -0.0531
     12 C30        12.9120   -3.1820   55.7680 C.3       1 X90        -0.0531
     13 C31        13.6300   -4.5110   55.7850 C.3       1 X90        -0.0531
     14 C32        15.0040   -4.2430   55.2350 C.3       1 X90        -0.0531
     15 C33        15.7490   -5.5350   55.0280 C.3       1 X90        -0.0531
     16 C34        17.2350   -5.2590   54.8740 C.3       1 X90        -0.0533
     17 C35        17.8260   -5.5460   53.5010 C.3       1 X90        -0.0559
     18 C36        17.7980   -4.3500   52.5740 C.3       1 X90        -0.0653
     19 C39        11.5020   -3.2360   56.3020 C.3       1 X90        -0.0531
     20 H1          4.4379   -1.6047   55.3921 H         1 X90         0.0430
     21 H2          3.1743   -2.7882   55.8711 H         1 X90         0.0430
     22 H3          4.5707   -2.8056   57.7237 H         1 X90         0.0283
     23 H4          3.3309   -1.5996   58.2086 H         1 X90         0.0283
     24 H5          5.3969   -0.6167   58.8049 H         1 X90         0.0266
     25 H6          4.9410    0.1793   57.2605 H         1 X90         0.0266
     26 H7          6.4996   -1.1352   56.0111 H         1 X90         0.0265
     27 H8          6.7651   -2.2596   57.3866 H         1 X90         0.0265
     28 H9          8.0111   -0.6707   58.6040 H         1 X90         0.0265
     29 H10         7.3829    0.7037   57.6330 H         1 X90         0.0265
     30 H11         9.7273    0.1785   57.0506 H         1 X90         0.0265
     31 H12         8.6242   -0.1112   55.6629 H         1 X90         0.0265
     32 H13         8.6711   -2.4755   55.9952 H         1 X90         0.0265
     33 H14         9.4457   -2.3062   57.6071 H         1 X90         0.0265
     34 H15        11.3552   -1.0959   56.2706 H         1 X90         0.0265
     35 H16        10.6361   -1.9199   54.8457 H         1 X90         0.0265
     36 H17        12.8741   -2.8232   54.7289 H         1 X90         0.0265
     37 H18        13.4862   -2.4714   56.3806 H         1 X90         0.0265
     38 H19        13.1007   -5.2402   55.1541 H         1 X90         0.0265
     39 H20        13.6977   -4.8964   56.8130 H         1 X90         0.0265
     40 H21        15.5614   -3.6131   55.9438 H         1 X90         0.0265
     41 H22        14.9129   -3.7192   54.2720 H         1 X90         0.0265
     42 H23        15.3745   -6.0300   54.1199 H         1 X90         0.0265
     43 H24        15.5885   -6.1912   55.8961 H         1 X90         0.0265
     44 H25        17.7707   -5.8791   55.6077 H         1 X90         0.0265
     45 H26        17.4053   -4.1957   55.0986 H         1 X90         0.0265
     46 H27        17.2508   -6.3607   53.0369 H         1 X90         0.0263
     47 H28        18.8714   -5.8627   53.6304 H         1 X90         0.0263
     48 H29        18.2381   -4.6270   51.6047 H         1 X90         0.0230
     49 H30        18.3781   -3.5279   53.0185 H         1 X90         0.0230
     50 H31        16.7575   -4.0258   52.4250 H         1 X90         0.0230
     51 H32        10.9791   -4.0989   55.8639 H         1 X90         0.0265
     52 H33        11.5306   -3.3416   57.3965 H         1 X90         0.0265
@<TRIPOS>BOND
     1    2    1 ar 
     2    2    3 ar 
     3    4    2 1  
     4    5    4 1  
     5    6    5 1  
     6    7    6 1  
     7    8    7 1  
     8    9    8 1  
     9   10    9 1  
    10   11   10 1  
    11   19   11 1  
    12   12   13 1  
    13   12   19 1  
    14   13   14 1  
    15   14   15 1  
    16   15   16 1  
    17   16   17 1  
    18   17   18 1  
    19    4   20 1  
    20    4   21 1  
    21    5   22 1  
    22    5   23 1  
    23    6   24 1  
    24    6   25 1  
    25    7   26 1  
    26    7   27 1  
    27    8   28 1  
    28    8   29 1  
    29    9   30 1  
    30    9   31 1  
    31   10   32 1  
    32   10   33 1  
    33   11   34 1  
    34   11   35 1  
    35   12   36 1  
    36   12   37 1  
    37   13   38 1  
    38   13   39 1  
    39   14   40 1  
    40   14   41 1  
    41   15   42 1  
    42   15   43 1  
    43   16   44 1  
    44   16   45 1  
    45   17   46 1  
    46   17   47 1  
    47   18   48 1  
    48   18   49 1  
    49   18   50 1  
    50   19   51 1  
    51   19   52 1  
@<TRIPOS>SUBSTRUCTURE
     1 X90         1

