### 
### Created by X-TOOL on Wed Jan  1 15:39:37 2020
### 

@<TRIPOS>MOLECULE
6gfs_ligand
   46    45     1     0     0
SMALL
GAST_HUCK


@<TRIPOS>ATOM
      1 C1          2.5620   -0.4540   56.7220 C.2       1 F15         0.0348
      2 O2          1.7300   -0.1760   57.6270 O.co2     1 F15        -0.5690
      3 O3          2.5170    0.0630   55.5770 O.co2     1 F15        -0.5690
      4 C4          3.6410   -1.4810   57.0160 C.3       1 F15         0.0002
      5 C5          5.0040   -1.1560   56.3990 C.3       1 F15        -0.0414
      6 C6          7.3750   -0.2960   56.7710 C.3       1 F15        -0.0530
      7 C7          8.1090   -1.6130   56.5410 C.3       1 F15        -0.0531
      8 C8          5.9920   -0.5210   57.3810 C.3       1 F15        -0.0516
      9 C9          9.4580   -1.3970   55.8830 C.3       1 F15        -0.0531
     10 C10        10.3210   -2.5870   56.2360 C.3       1 F15        -0.0531
     11 C11        11.6140   -2.5920   55.4610 C.3       1 F15        -0.0531
     12 C12        12.4220   -3.8410   55.7440 C.3       1 F15        -0.0531
     13 C13        13.7360   -3.6880   54.9970 C.3       1 F15        -0.0531
     14 C2         14.6170   -4.9060   55.1210 C.3       1 F15        -0.0531
     15 C3         15.6260   -4.7790   53.9970 C.3       1 F15        -0.0533
     16 C14        16.9590   -5.4010   54.3340 C.3       1 F15        -0.0559
     17 C15        17.8300   -5.2960   53.1090 C.3       1 F15        -0.0653
     18 H1          3.3079   -2.4530   56.6232 H         1 F15         0.0430
     19 H2          3.7640   -1.5490   58.1070 H         1 F15         0.0430
     20 H3          4.8487   -0.4577   55.5634 H         1 F15         0.0283
     21 H4          5.4443   -2.0899   56.0195 H         1 F15         0.0283
     22 H5          7.2599    0.2215   55.8072 H         1 F15         0.0265
     23 H6          7.9689    0.3290   57.4542 H         1 F15         0.0265
     24 H7          7.4948   -2.2546   55.8921 H         1 F15         0.0265
     25 H8          8.2610   -2.1102   57.5104 H         1 F15         0.0265
     26 H9          6.0964   -1.1844   58.2522 H         1 F15         0.0266
     27 H10         5.5894    0.4499   57.7055 H         1 F15         0.0266
     28 H11         9.9182   -0.4721   56.2607 H         1 F15         0.0265
     29 H12         9.3387   -1.3281   54.7917 H         1 F15         0.0265
     30 H13         9.7661   -3.5090   56.0082 H         1 F15         0.0265
     31 H14        10.5508   -2.5535   57.3112 H         1 F15         0.0265
     32 H15        12.2062   -1.7102   55.7468 H         1 F15         0.0265
     33 H16        11.3870   -2.5485   54.3856 H         1 F15         0.0265
     34 H17        11.8833   -4.7306   55.3856 H         1 F15         0.0265
     35 H18        12.6085   -3.9356   56.8239 H         1 F15         0.0265
     36 H19        14.2747   -2.8202   55.4052 H         1 F15         0.0265
     37 H20        13.5186   -3.5171   53.9324 H         1 F15         0.0265
     38 H21        14.0239   -5.8251   55.0055 H         1 F15         0.0265
     39 H22        15.1250   -4.9176   56.0966 H         1 F15         0.0265
     40 H23        15.7807   -3.7112   53.7827 H         1 F15         0.0265
     41 H24        15.2215   -5.2775   53.1037 H         1 F15         0.0265
     42 H25        16.8220   -6.4575   54.6080 H         1 F15         0.0263
     43 H26        17.4238   -4.8619   55.1726 H         1 F15         0.0263
     44 H27        18.8136   -5.7414   53.3192 H         1 F15         0.0230
     45 H28        17.9571   -4.2372   52.8391 H         1 F15         0.0230
     46 H29        17.3553   -5.8328   52.2744 H         1 F15         0.0230
@<TRIPOS>BOND
     1    1    2 ar 
     2    1    3 ar 
     3    4    1 1  
     4    5    4 1  
     5    8    5 1  
     6    6    7 1  
     7    6    8 1  
     8    7    9 1  
     9    9   10 1  
    10   10   11 1  
    11   11   12 1  
    12   12   13 1  
    13   13   14 1  
    14   14   15 1  
    15   15   16 1  
    16   16   17 1  
    17    4   18 1  
    18    4   19 1  
    19    5   20 1  
    20    5   21 1  
    21    6   22 1  
    22    6   23 1  
    23    7   24 1  
    24    7   25 1  
    25    8   26 1  
    26    8   27 1  
    27    9   28 1  
    28    9   29 1  
    29   10   30 1  
    30   10   31 1  
    31   11   32 1  
    32   11   33 1  
    33   12   34 1  
    34   12   35 1  
    35   13   36 1  
    36   13   37 1  
    37   14   38 1  
    38   14   39 1  
    39   15   40 1  
    40   15   41 1  
    41   16   42 1  
    42   16   43 1  
    43   17   44 1  
    44   17   45 1  
    45   17   46 1  
@<TRIPOS>SUBSTRUCTURE
     1 F15         1

