### 
### Created by X-TOOL on Wed Jan  1 15:39:37 2020
### 

@<TRIPOS>MOLECULE
6gfy_ligand
   65    67     1     0     0
SMALL
GAST_HUCK


@<TRIPOS>ATOM
      1 CAA         9.9200   56.9210   96.0810 C.3       1 EXH         0.0258
      2 CAV        11.1950   56.3500   95.4450 C.2       1 EXH         0.1751
      3 OAF        12.2600   56.9520   95.5870 O.2       1 EXH        -0.3972
      4 N          11.0330   55.1840   94.7740 N.am      1 EXH        -0.2653
      5 CA         12.1240   54.4650   94.0680 C.3       1 EXH         0.1359
      6 CB         12.2920   53.0210   94.6190 C.3       1 EXH         0.0026
      7 CG1        12.6480   53.1200   96.1020 C.3       1 EXH        -0.0558
      8 CAE        13.4200   52.2840   93.8740 C.3       1 EXH        -0.0558
      9 CG2        11.0200   52.1640   94.5010 C.3       1 EXH        -0.0558
     10 C          11.7900   54.4710   92.5550 C.2       1 EXH         0.2071
     11 O          10.6380   54.2700   92.1880 O.2       1 EXH        -0.3942
     12 NBG        12.7800   54.7290   91.6770 N.am      1 EXH        -0.2443
     13 CAQ        14.2300   55.0800   91.9070 C.3       1 EXH         0.0657
     14 CBC        14.5920   55.9310   90.7110 C.3       1 EXH         0.1109
     15 OAI        14.1060   57.2740   90.8960 O.3       1 EXH        -0.3867
     16 CBD        13.8450   55.2480   89.5770 C.3       1 EXH         0.1684
     17 FAJ        13.6440   56.0940   88.5720 F         1 EXH        -0.2377
     18 CBF        12.4950   54.8350   90.1940 C.3       1 EXH         0.1670
     19 CAW        12.0760   53.6410   89.5870 C.2       1 EXH         0.2066
     20 OAG        12.5840   52.5810   89.9420 O.2       1 EXH        -0.3943
     21 NAS        11.1750   53.7520   88.5680 N.am      1 EXH        -0.2740
     22 CAP        10.7390   52.5860   87.8000 C.3       1 EXH         0.0631
     23 CAZ        11.5590   52.4310   86.6320 C.ar      1 EXH        -0.0241
     24 CAL        11.6090   51.1790   86.0020 C.ar      1 EXH        -0.0617
     25 CAN        12.4060   50.9680   84.8700 C.ar      1 EXH        -0.0654
     26 CAK        12.3450   53.4600   86.0760 C.ar      1 EXH        -0.0617
     27 CAM        13.1410   53.2420   84.9350 C.ar      1 EXH        -0.0654
     28 CBA        13.1760   51.9990   84.3050 C.ar      1 EXH        -0.0244
     29 CBB        13.9460   51.7840   83.2160 C.2       1 EXH         0.0479
     30 SAU        15.5570   52.2190   83.0610 S.3       1 EXH        -0.0127
     31 CAO        15.7650   51.6100   81.5400 C.2       1 EXH         0.0738
     32 NAR        14.6010   51.0700   81.1530 N.2       1 EXH        -0.3006
     33 CAY        13.6110   51.1620   82.0630 C.2       1 EXH         0.0119
     34 CAB        12.2330   50.5790   81.7390 C.3       1 EXH        -0.0271
     35 H1          9.0700   56.2603   95.8552 H         1 EXH         0.0467
     36 H2          9.7237   57.9234   95.6727 H         1 EXH         0.0467
     37 H3         10.0524   56.9885   97.1709 H         1 EXH         0.0467
     38 H4         10.1181   54.7809   94.7528 H         1 EXH         0.1883
     39 H5         13.0695   55.0047   94.2255 H         1 EXH         0.0805
     40 H6         12.7728   52.1091   96.5174 H         1 EXH         0.0237
     41 H7         11.8410   53.6400   96.6389 H         1 EXH         0.0237
     42 H8         13.5865   53.6821   96.2171 H         1 EXH         0.0237
     43 H9         13.1672   52.2108   92.8059 H         1 EXH         0.0237
     44 H10        13.5372   51.2737   94.2931 H         1 EXH         0.0237
     45 H11        14.3614   52.8409   93.9906 H         1 EXH         0.0237
     46 H12        10.1915   52.6635   95.0245 H         1 EXH         0.0237
     47 H13        11.1988   51.1779   94.9545 H         1 EXH         0.0237
     48 H14        10.7600   52.0378   93.4397 H         1 EXH         0.0237
     49 H15        14.8511   54.1729   91.9443 H         1 EXH         0.0551
     50 H16        14.3520   55.6467   92.8419 H         1 EXH         0.0551
     51 H17        15.6774   55.9417   90.5328 H         1 EXH         0.0645
     52 H18        14.4992   57.6472   91.6761 H         1 EXH         0.2100
     53 H19        14.3991   54.3683   89.2177 H         1 EXH         0.0728
     54 H20        11.7313   55.6073   90.0199 H         1 EXH         0.0832
     55 H21        10.8039   54.6524   88.3409 H         1 EXH         0.1878
     56 H22         9.6914   52.7228   87.4937 H         1 EXH         0.0679
     57 H23        10.8234   51.6855   88.4260 H         1 EXH         0.0679
     58 H24        11.0201   50.3598   86.3985 H         1 EXH         0.0550
     59 H25        12.4296   49.9832   84.4175 H         1 EXH         0.0568
     60 H26        12.3367   54.4411   86.5368 H         1 EXH         0.0550
     61 H27        13.7376   54.0559   84.5392 H         1 EXH         0.0568
     62 H28        16.6836   51.6416   80.9560 H         1 EXH         0.1176
     63 H29        12.2502   50.1347   80.7329 H         1 EXH         0.0382
     64 H30        11.4790   51.3791   81.7736 H         1 EXH         0.0382
     65 H31        11.9797   49.8043   82.4776 H         1 EXH         0.0382
@<TRIPOS>BOND
     1    1    2 1  
     2    2    3 2  
     3    2    4 am 
     4    4    5 1  
     5    5    6 1  
     6    5   10 1  
     7    6    7 1  
     8    6    8 1  
     9    6    9 1  
    10   10   11 2  
    11   10   12 am 
    12   12   13 1  
    13   12   18 1  
    14   13   14 1  
    15   14   15 1  
    16   14   16 1  
    17   16   17 1  
    18   16   18 1  
    19   18   19 1  
    20   19   20 2  
    21   19   21 am 
    22   21   22 1  
    23   22   23 1  
    24   23   24 ar 
    25   23   26 ar 
    26   24   25 ar 
    27   25   28 ar 
    28   26   27 ar 
    29   27   28 ar 
    30   28   29 1  
    31   29   30 1  
    32   29   33 2  
    33   30   31 1  
    34   31   32 2  
    35   32   33 1  
    36   33   34 1  
    37    1   35 1  
    38    1   36 1  
    39    1   37 1  
    40    4   38 1  
    41    5   39 1  
    42    7   40 1  
    43    7   41 1  
    44    7   42 1  
    45    8   43 1  
    46    8   44 1  
    47    8   45 1  
    48    9   46 1  
    49    9   47 1  
    50    9   48 1  
    51   13   49 1  
    52   13   50 1  
    53   14   51 1  
    54   15   52 1  
    55   16   53 1  
    56   18   54 1  
    57   21   55 1  
    58   22   56 1  
    59   22   57 1  
    60   24   58 1  
    61   25   59 1  
    62   26   60 1  
    63   27   61 1  
    64   31   62 1  
    65   34   63 1  
    66   34   64 1  
    67   34   65 1  
@<TRIPOS>SUBSTRUCTURE
     1 EXH         1

