### 
### Created by X-TOOL on Wed Jan  1 15:39:37 2020
### 

@<TRIPOS>MOLECULE
6gfz_ligand
   65    67     1     0     0
SMALL
GAST_HUCK


@<TRIPOS>ATOM
      1 CAA        10.5180   56.5010   95.1370 C.3       1 EXE         0.0258
      2 CAV        11.8370   55.9720   94.5370 C.2       1 EXE         0.1751
      3 OAF        12.8730   56.6150   94.6550 O.2       1 EXE        -0.3972
      4 N          11.7350   54.7760   93.9420 N.am      1 EXE        -0.2653
      5 CA         12.8340   54.0710   93.2700 C.3       1 EXE         0.1359
      6 CB         12.9640   52.6300   93.8150 C.3       1 EXE         0.0026
      7 CG1        14.0560   51.8660   93.0180 C.3       1 EXE        -0.0558
      8 CAE        11.6480   51.8070   93.7330 C.3       1 EXE        -0.0558
      9 CG2        13.3390   52.7410   95.3020 C.3       1 EXE        -0.0558
     10 C          12.4810   54.1060   91.7620 C.2       1 EXE         0.2071
     11 O          11.3140   53.9210   91.4370 O.2       1 EXE        -0.3942
     12 NBG        13.4510   54.4250   90.8590 N.am      1 EXE        -0.2443
     13 CAQ        14.9130   54.7400   91.0480 C.3       1 EXE         0.0657
     14 CBC        15.3080   55.6020   89.8240 C.3       1 EXE         0.1109
     15 OAI        14.9660   56.9700   90.0230 O.3       1 EXE        -0.3867
     16 CBD        14.4790   54.9950   88.7400 C.3       1 EXE         0.1684
     17 FAJ        15.1710   53.8700   88.3150 F         1 EXE        -0.2377
     18 CBF        13.1280   54.5600   89.4040 C.3       1 EXE         0.1670
     19 CAW        12.7370   53.3520   88.8410 C.2       1 EXE         0.2066
     20 OAG        13.2050   52.3150   89.3140 O.2       1 EXE        -0.3943
     21 NAS        11.9850   53.4160   87.7020 N.am      1 EXE        -0.2740
     22 CAP        11.6380   52.1760   86.9780 C.3       1 EXE         0.0631
     23 CAZ        12.4400   52.0060   85.7830 C.ar      1 EXE        -0.0241
     24 CAL        12.2980   50.8280   85.0270 C.ar      1 EXE        -0.0617
     25 CAN        13.0510   50.5940   83.8660 C.ar      1 EXE        -0.0654
     26 CAK        13.3910   52.9410   85.3280 C.ar      1 EXE        -0.0617
     27 CAM        14.1330   52.6980   84.1530 C.ar      1 EXE        -0.0654
     28 CBA        13.9800   51.5400   83.3860 C.ar      1 EXE        -0.0244
     29 CBB        14.7390   51.3260   82.2780 C.2       1 EXE         0.0479
     30 SAU        16.3740   51.7960   82.1010 S.3       1 EXE        -0.0127
     31 CAO        16.5900   51.1530   80.6040 C.2       1 EXE         0.0738
     32 NAR        15.4540   50.5890   80.2180 N.2       1 EXE        -0.3006
     33 CAY        14.4460   50.6810   81.1200 C.2       1 EXE         0.0119
     34 CAB        13.0970   50.0490   80.7650 C.3       1 EXE        -0.0271
     35 H1          9.7076   55.7873   94.9274 H         1 EXE         0.0467
     36 H2         10.2747   57.4746   94.6866 H         1 EXE         0.0467
     37 H3         10.6310   56.6182   96.2249 H         1 EXE         0.0467
     38 H4         10.8408   54.3285   93.9566 H         1 EXE         0.1883
     39 H5         13.7834   54.5996   93.4408 H         1 EXE         0.0805
     40 H6         14.1456   50.8415   93.4085 H         1 EXE         0.0237
     41 H7         15.0197   52.3852   93.1262 H         1 EXE         0.0237
     42 H8         13.7763   51.8300   91.9548 H         1 EXE         0.0237
     43 H9         10.8551   52.3268   94.2908 H         1 EXE         0.0237
     44 H10        11.8108   50.8107   94.1698 H         1 EXE         0.0237
     45 H11        11.3467   51.7011   92.6804 H         1 EXE         0.0237
     46 H12        14.2693   53.3191   95.4033 H         1 EXE         0.0237
     47 H13        13.4859   51.7339   95.7193 H         1 EXE         0.0237
     48 H14        12.5302   53.2494   95.8472 H         1 EXE         0.0237
     49 H15        15.5062   53.8140   91.0744 H         1 EXE         0.0551
     50 H16        15.0684   55.3018   91.9809 H         1 EXE         0.0551
     51 H17        16.3825   55.5183   89.6038 H         1 EXE         0.0645
     52 H18        15.2194   57.4731   89.2580 H         1 EXE         0.2100
     53 H19        14.3076   55.6969   87.9106 H         1 EXE         0.0728
     54 H20        12.3435   55.3155   89.2502 H         1 EXE         0.0832
     55 H21        11.6700   54.3009   87.3590 H         1 EXE         0.1878
     56 H22        10.5768   52.2166   86.6913 H         1 EXE         0.0679
     57 H23        11.8054   51.3166   87.6439 H         1 EXE         0.0679
     58 H24        11.5853   50.0783   85.3511 H         1 EXE         0.0550
     59 H25        12.9152   49.6642   83.3256 H         1 EXE         0.0568
     60 H26        13.5540   53.8558   85.8862 H         1 EXE         0.0550
     61 H27        14.8530   53.4418   83.8312 H         1 EXE         0.0568
     62 H28        17.5122   51.1849   80.0257 H         1 EXE         0.1176
     63 H29        13.1555   49.5986   79.7632 H         1 EXE         0.0382
     64 H30        12.3157   50.8232   80.7739 H         1 EXE         0.0382
     65 H31        12.8509   49.2712   81.5029 H         1 EXE         0.0382
@<TRIPOS>BOND
     1    1    2 1  
     2    2    3 2  
     3    2    4 am 
     4    4    5 1  
     5    5    6 1  
     6    5   10 1  
     7    6    7 1  
     8    6    8 1  
     9    6    9 1  
    10   10   11 2  
    11   10   12 am 
    12   12   13 1  
    13   12   18 1  
    14   13   14 1  
    15   14   15 1  
    16   14   16 1  
    17   16   17 1  
    18   16   18 1  
    19   18   19 1  
    20   19   20 2  
    21   19   21 am 
    22   21   22 1  
    23   22   23 1  
    24   23   24 ar 
    25   23   26 ar 
    26   24   25 ar 
    27   25   28 ar 
    28   26   27 ar 
    29   27   28 ar 
    30   28   29 1  
    31   29   30 1  
    32   29   33 2  
    33   30   31 1  
    34   31   32 2  
    35   32   33 1  
    36   33   34 1  
    37    1   35 1  
    38    1   36 1  
    39    1   37 1  
    40    4   38 1  
    41    5   39 1  
    42    7   40 1  
    43    7   41 1  
    44    7   42 1  
    45    8   43 1  
    46    8   44 1  
    47    8   45 1  
    48    9   46 1  
    49    9   47 1  
    50    9   48 1  
    51   13   49 1  
    52   13   50 1  
    53   14   51 1  
    54   15   52 1  
    55   16   53 1  
    56   18   54 1  
    57   21   55 1  
    58   22   56 1  
    59   22   57 1  
    60   24   58 1  
    61   25   59 1  
    62   26   60 1  
    63   27   61 1  
    64   31   62 1  
    65   34   63 1  
    66   34   64 1  
    67   34   65 1  
@<TRIPOS>SUBSTRUCTURE
     1 EXE         1

