### 
### Created by X-TOOL on Mon Aug  2 16:13:31 2021
### 

@<TRIPOS>MOLECULE
6gg3_ligand
   13    12     1     0     0
SMALL
GAST_HUCK


@<TRIPOS>ATOM
      1 N          28.2880  387.4260   68.5560 N.4       1 ALA         0.2325
      2 CA         26.8060  387.5910   68.7000 C.3       1 ALA         0.0255
      3 C          26.1760  386.3220   69.4590 C.2       1 ALA         0.0841
      4 O          24.9550  386.1500   69.5880 O.co2     1 ALA        -0.5643
      5 CB         26.1580  387.7660   67.3210 C.3       1 ALA        -0.0095
      6 OXT        26.8670  385.4270   69.9270 O.co2     1 ALA        -0.5643
      7 H1         28.6705  388.2274   68.0790 H         1 ALA         0.2010
      8 H2         28.4831  386.5931   68.0229 H         1 ALA         0.2010
      9 H3         28.7076  387.3466   69.4691 H         1 ALA         0.2010
     10 H4         26.6082  388.4924   69.2986 H         1 ALA         0.1021
     11 H5         25.0710  387.8861   67.4393 H         1 ALA         0.0303
     12 H6         26.3638  386.8790   66.7039 H         1 ALA         0.0303
     13 H7         26.5743  388.6584   66.8308 H         1 ALA         0.0303
@<TRIPOS>BOND
     1    1    2 1  
     2    2    3 1  
     3    2    5 1  
     4    3    4 ar 
     5    3    6 ar 
     6    1    7 1  
     7    1    8 1  
     8    1    9 1  
     9    2   10 1  
    10    5   11 1  
    11    5   12 1  
    12    5   13 1  
@<TRIPOS>SUBSTRUCTURE
     1 ALA         1

