### 
### Created by X-TOOL on Wed Jan  1 15:39:37 2020
### 

@<TRIPOS>MOLECULE
6gg4_ligand
   23    23     1     0     0
SMALL
GAST_HUCK


@<TRIPOS>ATOM
      1 N         371.3180  -78.6350  195.6590 N.4       1 PHE         0.2341
      2 CA        371.1120  -80.0730  196.0520 C.3       1 PHE         0.0378
      3 C         371.2820  -81.0130  194.8570 C.2       1 PHE         0.0866
      4 O         371.4780  -80.5100  193.7460 O.co2     1 PHE        -0.5641
      5 CB        369.7310  -80.2760  196.6690 C.3       1 PHE         0.0361
      6 CG        368.5880  -80.1380  195.6930 C.ar      1 PHE        -0.0360
      7 CD1       368.0410  -78.8820  195.4030 C.ar      1 PHE        -0.0600
      8 CD2       368.0280  -81.2730  195.0860 C.ar      1 PHE        -0.0600
      9 CE1       366.9680  -78.7600  194.5210 C.ar      1 PHE        -0.0686
     10 CE2       366.9590  -81.1570  194.2000 C.ar      1 PHE        -0.0686
     11 CZ        366.4320  -79.8950  193.9120 C.ar      1 PHE        -0.0687
     12 OXT       371.2000  -82.2550  194.9790 O.co2     1 PHE        -0.5641
     13 H1        371.1989  -78.0453  196.4678 H         1 PHE         0.2012
     14 H2        370.6439  -78.3793  194.9546 H         1 PHE         0.2012
     15 H3        372.2492  -78.5172  195.2915 H         1 PHE         0.2012
     16 H4        371.8706  -80.3319  196.8053 H         1 PHE         0.1048
     17 H5        369.5962  -79.5290  197.4651 H         1 PHE         0.0500
     18 H6        369.6929  -81.2858  197.1035 H         1 PHE         0.0500
     19 H7        368.4560  -77.9956  195.8689 H         1 PHE         0.0557
     20 H8        368.4329  -82.2534  195.3097 H         1 PHE         0.0557
     21 H9        366.5500  -77.7827  194.3084 H         1 PHE         0.0599
     22 H10       366.5379  -82.0416  193.7361 H         1 PHE         0.0599
     23 H11       365.6070  -79.7981  193.2156 H         1 PHE         0.0559
@<TRIPOS>BOND
     1    1    2 1  
     2    2    3 1  
     3    2    5 1  
     4    3    4 ar 
     5    3   12 ar 
     6    5    6 1  
     7    6    7 ar 
     8    6    8 ar 
     9    7    9 ar 
    10    8   10 ar 
    11    9   11 ar 
    12   10   11 ar 
    13    1   13 1  
    14    1   14 1  
    15    1   15 1  
    16    2   16 1  
    17    5   17 1  
    18    5   18 1  
    19    7   19 1  
    20    8   20 1  
    21    9   21 1  
    22   10   22 1  
    23   11   23 1  
@<TRIPOS>SUBSTRUCTURE
     1 PHE         1

