### 
### Created by X-TOOL on Wed Jan  1 15:39:38 2020
### 

@<TRIPOS>MOLECULE
6gg5_ligand
   27    28     1     0     0
SMALL
GAST_HUCK


@<TRIPOS>ATOM
      1 N         369.5230  -78.7770  196.0820 N.4       1 TRP         0.2336
      2 CA        369.3180  -80.2720  196.0590 C.3       1 TRP         0.0324
      3 C         369.4120  -80.9770  194.7030 C.2       1 TRP         0.0858
      4 O         369.5780  -80.3670  193.6780 O.co2     1 TRP        -0.5642
      5 CB        367.9760  -80.6280  196.6760 C.3       1 TRP         0.0190
      6 CG        366.7830  -80.2360  195.8780 C.2       1 TRP        -0.0392
      7 CD1       366.2010  -79.0000  195.8180 C.2       1 TRP         0.0167
      8 CD2       365.9720  -81.1000  195.0790 C.ar      1 TRP        -0.0213
      9 NE1       365.0830  -79.0380  195.0130 N.pl3     1 TRP        -0.2890
     10 CE2       364.9220  -80.3170  194.5440 C.ar      1 TRP         0.0603
     11 CE3       366.0310  -82.4540  194.7530 C.ar      1 TRP        -0.0747
     12 CZ2       363.9580  -80.8450  193.6840 C.ar      1 TRP        -0.0443
     13 CZ3       365.0630  -82.9730  193.8950 C.ar      1 TRP        -0.0792
     14 CH2       364.0460  -82.1700  193.3790 C.ar      1 TRP        -0.0768
     15 OXT       369.2980  -82.1940  194.5810 O.co2     1 TRP        -0.5642
     16 H1        369.4358  -78.4404  197.0281 H         1 TRP         0.2011
     17 H2        368.8278  -78.3335  195.5022 H         1 TRP         0.2011
     18 H3        370.4423  -78.5584  195.7311 H         1 TRP         0.2011
     19 H4        370.1094  -80.6998  196.6920 H         1 TRP         0.1040
     20 H5        367.9090  -80.1291  197.6540 H         1 TRP         0.0423
     21 H6        367.9461  -81.7184  196.8178 H         1 TRP         0.0423
     22 H7        366.5682  -78.1131  196.3324 H         1 TRP         0.0795
     23 H8        364.4699  -78.2385  194.7990 H         1 TRP         0.2216
     24 H9        366.8115  -83.0884  195.1573 H         1 TRP         0.0540
     25 H10       363.1692  -80.2245  193.2742 H         1 TRP         0.0541
     26 H11       365.1013  -84.0217  193.6233 H         1 TRP         0.0510
     27 H12       363.3075  -82.6109  192.7192 H         1 TRP         0.0530
@<TRIPOS>BOND
     1    1    2 1  
     2    2    3 1  
     3    2    5 1  
     4    3    4 ar 
     5    3   15 ar 
     6    5    6 1  
     7    6    7 2  
     8    6    8 1  
     9    7    9 1  
    10    8   10 ar 
    11    8   11 ar 
    12    9   10 1  
    13   10   12 ar 
    14   11   13 ar 
    15   12   14 ar 
    16   13   14 ar 
    17    1   16 1  
    18    1   17 1  
    19    1   18 1  
    20    2   19 1  
    21    5   20 1  
    22    5   21 1  
    23    7   22 1  
    24    9   23 1  
    25   11   24 1  
    26   12   25 1  
    27   13   26 1  
    28   14   27 1  
@<TRIPOS>SUBSTRUCTURE
     1 TRP         1

