### 
### Created by X-TOOL on Mon Aug  2 16:11:43 2021
### 

@<TRIPOS>MOLECULE
6gg8_ligand
   45    48     1     0     0
SMALL
GAST_HUCK


@<TRIPOS>ATOM
      1 O4         -9.0800   18.3710  -14.1590 O.2       1 EY8        -0.1556
      2 C7         -6.7370   14.6420  -15.5060 C.3       1 EY8         0.0964
      3 C9         -9.0210   14.2570  -16.0570 C.ar      1 EY8         0.1117
      4 C10       -10.0540   13.3520  -16.2340 C.ar      1 EY8        -0.0125
      5 C11       -11.2390   13.8020  -16.7810 C.ar      1 EY8         0.1074
      6 C13       -11.4090   15.1220  -17.1420 C.ar      1 EY8        -0.0531
      7 C14       -10.3820   16.0230  -16.9600 C.ar      1 EY8        -0.0504
      8 C15        -9.1820   15.5890  -16.4230 C.ar      1 EY8         0.0955
      9 C19        -8.0840   17.5850  -18.5350 C.ar      1 EY8         0.0303
     10 C20        -8.1560   16.4790  -19.3750 C.ar      1 EY8        -0.0654
     11 C21        -8.5220   16.6350  -20.7030 C.ar      1 EY8        -0.0392
     12 C22        -8.8000   17.9130  -21.1770 C.ar      1 EY8         0.1214
     13 C24       -10.0880   19.2090  -22.6590 C.3       1 EY8         0.1624
     14 N1         -6.5610   18.7110  -13.7030 N.am      1 EY8        -0.2653
     15 S2         -8.0030   17.8990  -13.3180 S.o2      1 EY8         0.0394
     16 O3         -8.1040   17.8820  -11.8640 O.2       1 EY8        -0.1556
     17 C5         -7.6100   16.2250  -13.7760 C.3       1 EY8         0.1142
     18 C6         -7.1440   16.0780  -15.2140 C.3       1 EY8         0.1110
     19 O8         -7.8580   13.7460  -15.4670 O.3       1 EY8        -0.3222
     20 F12       -12.2560   12.9300  -16.9570 F         1 EY8        -0.1990
     21 N16        -8.0970   16.4830  -16.2320 N.am      1 EY8        -0.2185
     22 C17        -7.6660   17.5000  -17.1090 C.2       1 EY8         0.2198
     23 O18        -6.8490   18.3530  -16.7650 O.2       1 EY8        -0.3800
     24 O23        -9.1580   18.0980  -22.5070 O.3       1 EY8        -0.2997
     25 C25        -9.5270   20.4840  -22.0820 C.2       1 EY8         0.2315
     26 O26        -9.6040   21.5720  -22.6450 O.2       1 EY8        -0.3833
     27 N27        -8.9630   20.2990  -20.8510 N.am      1 EY8        -0.2335
     28 C28        -8.7140   19.0080  -20.3390 C.ar      1 EY8         0.1026
     29 C29        -8.3640   18.8530  -19.0110 C.ar      1 EY8        -0.0291
     30 H1         -6.0005   14.3219  -14.7543 H         1 EY8         0.0637
     31 H2         -6.2824   14.5983  -16.5067 H         1 EY8         0.0637
     32 H3         -9.9348   12.3129  -15.9493 H         1 EY8         0.0484
     33 H4        -12.3497   15.4508  -17.5686 H         1 EY8         0.0473
     34 H5        -10.5128   17.0633  -17.2352 H         1 EY8         0.0459
     35 H6         -7.9253   15.4922  -18.9903 H         1 EY8         0.0516
     36 H7         -8.5904   15.7760  -21.3607 H         1 EY8         0.0510
     37 H8        -11.0256   18.9637  -22.1386 H         1 EY8         0.0861
     38 H9        -10.2915   19.3606  -23.7293 H         1 EY8         0.0861
     39 H10        -6.2970   18.8349  -14.6595 H         1 EY8         0.1631
     40 H11        -5.9763   19.0650  -12.9731 H         1 EY8         0.1631
     41 H12        -8.5094   15.6070  -13.6377 H         1 EY8         0.0547
     42 H13        -6.8105   15.8624  -13.1133 H         1 EY8         0.0547
     43 H14        -6.2561   16.7177  -15.3251 H         1 EY8         0.0659
     44 H15        -8.7210   21.0976  -20.3000 H         1 EY8         0.2223
     45 H16        -8.3098   19.7123  -18.3524 H         1 EY8         0.0514
@<TRIPOS>BOND
     1   15    1 2  
     2   18    2 1  
     3    2   19 1  
     4    3    4 ar 
     5    8    3 ar 
     6    3   19 1  
     7    4    5 ar 
     8    6    5 ar 
     9    5   20 1  
    10    7    6 ar 
    11    8    7 ar 
    12   21    8 1  
    13    9   10 ar 
    14   22    9 1  
    15    9   29 ar 
    16   10   11 ar 
    17   11   12 ar 
    18   12   24 1  
    19   12   28 ar 
    20   24   13 1  
    21   13   25 1  
    22   15   14 am 
    23   15   16 2  
    24   17   15 1  
    25   18   17 1  
    26   21   18 1  
    27   21   22 am 
    28   22   23 2  
    29   25   26 2  
    30   25   27 am 
    31   27   28 1  
    32   28   29 ar 
    33    2   30 1  
    34    2   31 1  
    35    4   32 1  
    36    6   33 1  
    37    7   34 1  
    38   10   35 1  
    39   11   36 1  
    40   13   37 1  
    41   13   38 1  
    42   14   39 1  
    43   14   40 1  
    44   17   41 1  
    45   17   42 1  
    46   18   43 1  
    47   27   44 1  
    48   29   45 1  
@<TRIPOS>SUBSTRUCTURE
     1 EY8         1

