### 
### Created by X-TOOL on Mon Aug  2 16:13:31 2021
### 

@<TRIPOS>MOLECULE
6gga_ligand
   37    39     1     0     0
SMALL
GAST_HUCK


@<TRIPOS>ATOM
      1 C01        90.7020   95.5470  -45.5570 C.ar      1 EY2        -0.0658
      2 C02        90.6630   94.4170  -46.4140 C.ar      1 EY2        -0.0657
      3 C03        90.9460   93.1170  -45.9260 C.ar      1 EY2         0.0017
      4 C04        91.2670   92.9390  -44.5720 C.ar      1 EY2        -0.0303
      5 C05        91.2980   94.0550  -43.7200 C.ar      1 EY2         0.0699
      6 C06        91.0200   95.3400  -44.1970 C.ar      1 EY2        -0.0025
      7 N01        91.5850   94.1050  -42.3990 N.pl3     1 EY2        -0.2623
      8 C07        91.1440   96.2020  -43.1070 C.ar      1 EY2        -0.0078
      9 C08        91.4890   95.4030  -42.0030 C.ar      1 EY2         0.0632
     10 C09        90.9920   97.5980  -42.9770 C.ar      1 EY2        -0.0611
     11 C10        91.6880   95.9950  -40.7410 C.ar      1 EY2        -0.0443
     12 C11        91.5400   97.3960  -40.6040 C.ar      1 EY2        -0.0647
     13 C12        91.1800   98.2060  -41.7150 C.ar      1 EY2        -0.0109
     14 C13        91.9130   92.9630  -41.5850 C.3       1 EY2         0.0440
     15 C14        93.4360   92.7050  -41.5650 C.3       1 EY2        -0.0403
     16 C15        91.0290   99.6780  -41.5770 C.3       1 EY2        -0.0054
     17 N02        89.7230  100.0560  -41.0030 N.4       1 EY2         0.2354
     18 C16        89.5710  101.5110  -40.7890 C.3       1 EY2        -0.0437
     19 BR1        90.9050   91.6120  -47.0310 Br        1 EY2        -0.0548
     20 H1         90.4936   96.5411  -45.9356 H         1 EY2         0.0582
     21 H2         90.4124   94.5503  -47.4602 H         1 EY2         0.0539
     22 H3         91.4888   91.9501  -44.1873 H         1 EY2         0.0569
     23 H4         90.7326   98.2010  -43.8396 H         1 EY2         0.0512
     24 H5         91.9514   95.3850  -39.8845 H         1 EY2         0.0529
     25 H6         91.7037   97.8581  -39.6372 H         1 EY2         0.0526
     26 H7         91.4049   92.0760  -41.9912 H         1 EY2         0.0575
     27 H8         91.5672   93.1450  -40.5568 H         1 EY2         0.0575
     28 H9         93.6512   91.8285  -40.9361 H         1 EY2         0.0254
     29 H10        93.9518   93.5859  -41.1551 H         1 EY2         0.0254
     30 H11        93.7895   92.5168  -42.5895 H         1 EY2         0.0254
     31 H12        91.1247  100.1382  -42.5715 H         1 EY2         0.0957
     32 H13        91.8265  100.0553  -40.9201 H         1 EY2         0.0957
     33 H14        89.6180   99.5904  -40.1152 H         1 EY2         0.2023
     34 H15        88.9974   99.7486  -41.6315 H         1 EY2         0.2023
     35 H16        88.5787  101.7170  -40.3613 H         1 EY2         0.0777
     36 H17        89.6719  102.0356  -41.7506 H         1 EY2         0.0777
     37 H18        90.3492  101.8630  -40.0958 H         1 EY2         0.0777
@<TRIPOS>BOND
     1    1    2 ar 
     2    1    6 ar 
     3    2    3 ar 
     4    3    4 ar 
     5    3   19 1  
     6    4    5 ar 
     7    5    6 ar 
     8    5    7 1  
     9    6    8 1  
    10    7    9 1  
    11    7   14 1  
    12    8    9 ar 
    13    8   10 ar 
    14    9   11 ar 
    15   10   13 ar 
    16   11   12 ar 
    17   12   13 ar 
    18   13   16 1  
    19   14   15 1  
    20   16   17 1  
    21   17   18 1  
    22    1   20 1  
    23    2   21 1  
    24    4   22 1  
    25   10   23 1  
    26   11   24 1  
    27   12   25 1  
    28   14   26 1  
    29   14   27 1  
    30   15   28 1  
    31   15   29 1  
    32   15   30 1  
    33   16   31 1  
    34   16   32 1  
    35   17   33 1  
    36   17   34 1  
    37   18   35 1  
    38   18   36 1  
    39   18   37 1  
@<TRIPOS>SUBSTRUCTURE
     1 EY2         1

