### 
### Created by X-TOOL on Mon Aug  2 16:13:31 2021
### 

@<TRIPOS>MOLECULE
6ggb_ligand
   44    47     1     0     0
SMALL
GAST_HUCK


@<TRIPOS>ATOM
      1 N1         91.3870   94.2720  -42.3980 N.pl3     1 EXQ        -0.2635
      2 C1         91.2850   95.5810  -41.9540 C.ar      1 EXQ         0.0622
      3 C2         90.9660   96.4120  -43.0370 C.ar      1 EXQ        -0.0100
      4 C3         90.8650   97.7830  -42.8320 C.ar      1 EXQ        -0.0620
      5 C4         91.0750   98.3260  -41.5680 C.ar      1 EXQ        -0.0115
      6 C5         91.3680   97.4740  -40.5040 C.ar      1 EXQ        -0.0653
      7 C6         91.4760   96.1030  -40.6800 C.ar      1 EXQ        -0.0449
      8 C7         91.0170   99.8190  -41.3590 C.3       1 EXQ        -0.0055
      9 C8         91.1230   94.2500  -43.7600 C.ar      1 EXQ         0.0654
     10 C9         90.8480   95.5520  -44.1980 C.ar      1 EXQ        -0.0061
     11 C10        90.5540   95.7650  -45.5410 C.ar      1 EXQ        -0.0686
     12 C11        90.5520   94.6920  -46.4170 C.ar      1 EXQ        -0.0682
     13 C12        90.8470   93.3960  -45.9790 C.ar      1 EXQ        -0.0229
     14 C13        91.1310   93.1700  -44.6330 C.ar      1 EXQ        -0.0348
     15 C14        91.7790   93.1220  -41.5860 C.3       1 EXQ         0.0437
     16 C15        90.8940   92.2830  -46.9400 C.2       1 EXQ         0.0309
     17 C16        90.8020   92.3440  -48.3180 C.2       1 EXQ        -0.0686
     18 C17        90.9150   91.0560  -48.9340 C.2       1 EXQ        -0.0740
     19 C18        91.0810   90.0700  -48.0350 C.2       1 EXQ        -0.0055
     20 S1         91.1090   90.6600  -46.4360 S.3       1 EXQ        -0.0393
     21 C20        93.2700   92.9100  -41.5790 C.3       1 EXQ        -0.0404
     22 N2         89.6720  100.2930  -41.0240 N.4       1 EXQ         0.2354
     23 C21        89.6780  101.7050  -40.6310 C.3       1 EXQ        -0.0437
     24 H1         90.6207   98.4344  -43.6633 H         1 EXQ         0.0507
     25 H2         91.5149   97.8936  -39.5153 H         1 EXQ         0.0521
     26 H3         91.7042   95.4530  -39.8431 H         1 EXQ         0.0527
     27 H4         91.3448  100.3164  -42.2837 H         1 EXQ         0.0956
     28 H5         91.6984  100.0858  -40.5377 H         1 EXQ         0.0956
     29 H6         90.3282   96.7629  -45.8991 H         1 EXQ         0.0576
     30 H7         90.3174   94.8594  -47.4620 H         1 EXQ         0.0511
     31 H8         91.3536   92.1713  -44.2750 H         1 EXQ         0.0521
     32 H9         91.2954   92.2211  -41.9915 H         1 EXQ         0.0574
     33 H10        91.4401   93.2865  -40.5525 H         1 EXQ         0.0574
     34 H11        90.6593   93.2695  -48.8739 H         1 EXQ         0.0441
     35 H12        90.8714   90.8934  -50.0099 H         1 EXQ         0.0425
     36 H13        91.1853   89.0183  -48.2975 H         1 EXQ         0.0745
     37 H14        93.5132   92.0363  -40.9566 H         1 EXQ         0.0254
     38 H15        93.7653   93.8021  -41.1681 H         1 EXQ         0.0254
     39 H16        93.6206   92.7367  -42.6071 H         1 EXQ         0.0254
     40 H17        89.3124   99.7427  -40.2599 H         1 EXQ         0.2023
     41 H18        89.0758  100.1804  -41.8290 H         1 EXQ         0.2023
     42 H19        88.6532  102.0223  -40.3880 H         1 EXQ         0.0777
     43 H20        90.0635  102.3151  -41.4612 H         1 EXQ         0.0777
     44 H21        90.3217  101.8374  -39.7489 H         1 EXQ         0.0777
@<TRIPOS>BOND
     1    1    2 1  
     2    1    9 1  
     3    1   15 1  
     4    2    3 ar 
     5    2    7 ar 
     6    3    4 ar 
     7    3   10 1  
     8    4    5 ar 
     9    5    6 ar 
    10    5    8 1  
    11    6    7 ar 
    12    8   22 1  
    13    9   10 ar 
    14    9   14 ar 
    15   10   11 ar 
    16   11   12 ar 
    17   12   13 ar 
    18   13   14 ar 
    19   13   16 1  
    20   15   21 1  
    21   16   17 2  
    22   16   20 1  
    23   17   18 1  
    24   18   19 2  
    25   19   20 1  
    26   22   23 1  
    27    4   24 1  
    28    6   25 1  
    29    7   26 1  
    30    8   27 1  
    31    8   28 1  
    32   11   29 1  
    33   12   30 1  
    34   14   31 1  
    35   15   32 1  
    36   15   33 1  
    37   17   34 1  
    38   18   35 1  
    39   19   36 1  
    40   21   37 1  
    41   21   38 1  
    42   21   39 1  
    43   22   40 1  
    44   22   41 1  
    45   23   42 1  
    46   23   43 1  
    47   23   44 1  
@<TRIPOS>SUBSTRUCTURE
     1 EXQ         1

