### 
### Created by X-TOOL on Mon Aug  2 16:13:31 2021
### 

@<TRIPOS>MOLECULE
6ggd_ligand
   43    46     1     0     0
SMALL
GAST_HUCK


@<TRIPOS>ATOM
      1 N1         91.4650   94.3150  -42.5340 N.pl3     1 EYB        -0.2642
      2 N3         89.6380  100.2700  -40.9930 N.4       1 EYB         0.2354
      3 C4         91.1810   93.2470  -44.7930 C.ar      1 EYB        -0.0399
      4 C5         91.2120   94.3130  -43.8880 C.ar      1 EYB         0.0628
      5 C6         90.9700   95.6330  -44.2630 C.ar      1 EYB        -0.0082
      6 C7         91.4000   95.6020  -42.0250 C.ar      1 EYB         0.0616
      7 C8         91.0880   96.4440  -43.0960 C.ar      1 EYB        -0.0114
      8 C10        91.1380   98.3380  -41.5740 C.ar      1 EYB        -0.0118
      9 C13        91.7740   93.1090  -41.7820 C.3       1 EYB         0.0437
     10 C15        90.8560   92.4250  -47.0810 C.2       1 EYB         0.0135
     11 C17        90.4480   92.3570  -48.4280 C.2       1 EYB         0.0242
     12 C1         90.6800   95.9110  -45.6100 C.ar      1 EYB        -0.0708
     13 C2         90.6380   94.8470  -46.5280 C.ar      1 EYB        -0.0730
     14 C3         90.8780   93.5210  -46.1340 C.ar      1 EYB        -0.0425
     15 C9         90.9620   97.8260  -42.8680 C.ar      1 EYB        -0.0625
     16 C11        91.4610   97.4690  -40.5190 C.ar      1 EYB        -0.0656
     17 C12        91.5900   96.0910  -40.7210 C.ar      1 EYB        -0.0453
     18 C14        93.2760   92.9050  -41.6730 C.3       1 EYB        -0.0404
     19 C16        91.3080   91.1520  -46.8170 C.2       1 EYB         0.1337
     20 O1         91.1650   90.3750  -47.9230 O.3       1 EYB        -0.1644
     21 N2         90.6210   91.1400  -48.9490 N.2       1 EYB        -0.1424
     22 C18        91.0100   99.8170  -41.3540 C.3       1 EYB        -0.0056
     23 C19        89.5870  101.7090  -40.6270 C.3       1 EYB        -0.0437
     24 H1         89.3148   99.7261  -40.2083 H         1 EYB         0.2023
     25 H2         89.0296  100.1162  -41.7818 H         1 EYB         0.2023
     26 H3         91.3862   92.2342  -44.4656 H         1 EYB         0.0495
     27 H4         91.3295   92.2424  -42.2933 H         1 EYB         0.0574
     28 H5         91.3486   93.1963  -40.7714 H         1 EYB         0.0574
     29 H6         90.0383   93.2009  -48.9810 H         1 EYB         0.0694
     30 H7         90.4921   96.9278  -45.9352 H         1 EYB         0.0571
     31 H8         90.4143   95.0560  -47.5679 H         1 EYB         0.0490
     32 H9         90.7296   98.4936  -43.6898 H         1 EYB         0.0505
     33 H10        91.6138   97.8754  -39.5258 H         1 EYB         0.0519
     34 H11        91.8281   95.4236  -39.9007 H         1 EYB         0.0526
     35 H12        93.4809   91.9881  -41.1009 H         1 EYB         0.0254
     36 H13        93.7267   93.7665  -41.1586 H         1 EYB         0.0254
     37 H14        93.7076   92.8126  -42.6806 H         1 EYB         0.0254
     38 H15        91.7184   90.8177  -45.8653 H         1 EYB         0.1172
     39 H16        91.6921  100.1038  -40.5400 H         1 EYB         0.0956
     40 H17        91.3087  100.3295  -42.2804 H         1 EYB         0.0956
     41 H18        88.5536  101.9858  -40.3711 H         1 EYB         0.0777
     42 H19        89.9291  102.3162  -41.4780 H         1 EYB         0.0777
     43 H20        90.2404  101.8905  -39.7609 H         1 EYB         0.0777
@<TRIPOS>BOND
     1    4    1 1  
     2    1    6 1  
     3    1    9 1  
     4   22    2 1  
     5    2   23 1  
     6    3    4 ar 
     7   14    3 ar 
     8    4    5 ar 
     9    5    7 1  
    10    5   12 ar 
    11    7    6 ar 
    12    6   17 ar 
    13    7   15 ar 
    14   15    8 ar 
    15    8   16 ar 
    16    8   22 1  
    17    9   18 1  
    18   10   11 1  
    19   10   14 1  
    20   10   19 2  
    21   11   21 2  
    22   12   13 ar 
    23   13   14 ar 
    24   16   17 ar 
    25   19   20 1  
    26   20   21 1  
    27    2   24 1  
    28    2   25 1  
    29    3   26 1  
    30    9   27 1  
    31    9   28 1  
    32   11   29 1  
    33   12   30 1  
    34   13   31 1  
    35   15   32 1  
    36   16   33 1  
    37   17   34 1  
    38   18   35 1  
    39   18   36 1  
    40   18   37 1  
    41   19   38 1  
    42   22   39 1  
    43   22   40 1  
    44   23   41 1  
    45   23   42 1  
    46   23   43 1  
@<TRIPOS>SUBSTRUCTURE
     1 EYB         1

