### 
### Created by X-TOOL on Mon Aug  2 16:13:31 2021
### 

@<TRIPOS>MOLECULE
6gge_ligand
   47    50     1     0     0
SMALL
GAST_HUCK


@<TRIPOS>ATOM
      1 N1         91.6150   94.2960  -42.4500 N.pl3     1 EYE        -0.2643
      2 C1         91.5550   95.6170  -41.9930 C.ar      1 EYE         0.0615
      3 C2         91.2220   96.4770  -43.0800 C.ar      1 EYE        -0.0114
      4 C3         91.1110   97.8660  -42.8680 C.ar      1 EYE        -0.0625
      5 C4         91.3220   98.4030  -41.5830 C.ar      1 EYE        -0.0119
      6 C5         91.6680   97.5380  -40.5150 C.ar      1 EYE        -0.0657
      7 C6         91.7770   96.1520  -40.7100 C.ar      1 EYE        -0.0453
      8 C7         91.2020   99.8980  -41.3670 C.3       1 EYE        -0.0056
      9 C8         91.3170   94.3100  -43.8110 C.ar      1 EYE         0.0626
     10 C9         91.0710   95.6460  -44.2280 C.ar      1 EYE        -0.0082
     11 C10        90.7510   95.8840  -45.5760 C.ar      1 EYE        -0.0707
     12 C11        90.6760   94.8140  -46.4790 C.ar      1 EYE        -0.0715
     13 C12        90.9120   93.4810  -46.0760 C.ar      1 EYE        -0.0312
     14 C13        91.2510   93.2450  -44.7270 C.ar      1 EYE        -0.0388
     15 C14        91.9240   93.1030  -41.6830 C.3       1 EYE         0.0436
     16 C15        90.8510   92.3790  -47.0420 C.2       1 EYE         0.0222
     17 C16        90.4480   92.3930  -48.3560 C.2       1 EYE        -0.0794
     18 C17        90.5570   91.1230  -48.9900 C.2       1 EYE        -0.0735
     19 C18        91.0520   90.1450  -48.1670 C.2       1 EYE         0.0152
     20 S1         91.3920   90.7860  -46.5790 S.3       1 EYE        -0.0342
     21 C19        91.2870   88.7140  -48.5270 C.3       1 EYE        -0.0162
     22 C20        93.4290   92.8220  -41.6510 C.3       1 EYE        -0.0404
     23 N2         89.8350  100.2520  -40.9400 N.4       1 EYE         0.2354
     24 C21        89.6330  101.7000  -40.6930 C.3       1 EYE        -0.0437
     25 H1         90.8630   98.5217  -43.6948 H         1 EYE         0.0504
     26 H2         91.8516   97.9536  -39.5308 H         1 EYE         0.0518
     27 H3         92.0295   95.5006  -39.8812 H         1 EYE         0.0525
     28 H4         91.4333  100.4191  -42.3077 H         1 EYE         0.0956
     29 H5         91.9156  100.2096  -40.5901 H         1 EYE         0.0956
     30 H6         90.5621   96.8953  -45.9175 H         1 EYE         0.0571
     31 H7         90.4300   95.0154  -47.5153 H         1 EYE         0.0493
     32 H8         91.4622   92.2352  -44.3941 H         1 EYE         0.0495
     33 H9         91.4109   92.2435  -42.1391 H         1 EYE         0.0574
     34 H10        91.5652   93.2395  -40.6522 H         1 EYE         0.0574
     35 H11        90.0822   93.2857  -48.8612 H         1 EYE         0.0424
     36 H12        90.2749   90.9459  -50.0268 H         1 EYE         0.0313
     37 H13        91.6900   88.1780  -47.6550 H         1 EYE         0.0433
     38 H14        92.0071   88.6581  -49.3566 H         1 EYE         0.0433
     39 H15        90.3370   88.2524  -48.8342 H         1 EYE         0.0433
     40 H16        93.6198   91.9129  -41.0619 H         1 EYE         0.0253
     41 H17        93.9513   93.6736  -41.1906 H         1 EYE         0.0253
     42 H18        93.7970   92.6776  -42.6775 H         1 EYE         0.0253
     43 H19        89.6308   99.7542  -40.0876 H         1 EYE         0.2023
     44 H20        89.1931   99.9615  -41.6608 H         1 EYE         0.2023
     45 H21        88.5933  101.8771  -40.3804 H         1 EYE         0.0777
     46 H22        89.8390  102.2617  -41.6161 H         1 EYE         0.0777
     47 H23        90.3167  102.0355  -39.8993 H         1 EYE         0.0777
@<TRIPOS>BOND
     1    1    2 1  
     2    1    9 1  
     3    1   15 1  
     4    2    3 ar 
     5    2    7 ar 
     6    3    4 ar 
     7    3   10 1  
     8    4    5 ar 
     9    5    6 ar 
    10    5    8 1  
    11    6    7 ar 
    12    8   23 1  
    13    9   10 ar 
    14    9   14 ar 
    15   10   11 ar 
    16   11   12 ar 
    17   12   13 ar 
    18   13   14 ar 
    19   13   16 1  
    20   15   22 1  
    21   16   17 2  
    22   16   20 1  
    23   17   18 1  
    24   18   19 2  
    25   19   20 1  
    26   19   21 1  
    27   23   24 1  
    28    4   25 1  
    29    6   26 1  
    30    7   27 1  
    31    8   28 1  
    32    8   29 1  
    33   11   30 1  
    34   12   31 1  
    35   14   32 1  
    36   15   33 1  
    37   15   34 1  
    38   17   35 1  
    39   18   36 1  
    40   21   37 1  
    41   21   38 1  
    42   21   39 1  
    43   22   40 1  
    44   22   41 1  
    45   22   42 1  
    46   23   43 1  
    47   23   44 1  
    48   24   45 1  
    49   24   46 1  
    50   24   47 1  
@<TRIPOS>SUBSTRUCTURE
     1 EYE         1

