### 
### Created by X-TOOL on Mon Aug  2 16:13:31 2021
### 

@<TRIPOS>MOLECULE
6ggf_ligand
   47    50     1     0     0
SMALL
GAST_HUCK


@<TRIPOS>ATOM
      1 N1         91.7420   94.2170  -42.5510 N.pl3     1 EXQ        -0.2635
      2 C1         91.6890   95.5270  -42.0670 C.ar      1 EXQ         0.0622
      3 C2         91.3320   96.4110  -43.1280 C.ar      1 EXQ        -0.0100
      4 C3         91.2240   97.7910  -42.8740 C.ar      1 EXQ        -0.0619
      5 C4         91.4630   98.2820  -41.5760 C.ar      1 EXQ        -0.0115
      6 C5         91.8380   97.4020  -40.5300 C.ar      1 EXQ        -0.0653
      7 C6         91.9380   96.0220  -40.7700 C.ar      1 EXQ        -0.0449
      8 C7         91.3490   99.7690  -41.3330 C.3       1 EXQ        -0.0055
      9 C8         91.4200   94.2540  -43.9010 C.ar      1 EXQ         0.0654
     10 C9         91.1590   95.5970  -44.2920 C.ar      1 EXQ        -0.0061
     11 C10        90.8140   95.8500  -45.6300 C.ar      1 EXQ        -0.0685
     12 C11        90.7270   94.7790  -46.5400 C.ar      1 EXQ        -0.0681
     13 C12        90.9850   93.4430  -46.1590 C.ar      1 EXQ        -0.0231
     14 C13        91.3470   93.1930  -44.8180 C.ar      1 EXQ        -0.0347
     15 C14        92.0690   93.0080  -41.8240 C.3       1 EXQ         0.0437
     16 C15        90.8930   92.3670  -47.1530 C.2       1 EXQ         0.0277
     17 C16        90.4170   92.4120  -48.4420 C.2       1 EXQ        -0.0639
     18 C17        90.5010   91.1570  -49.1150 C.2       1 EXQ        -0.0608
     19 C18        91.0520   90.1760  -48.3290 C.2       1 EXQ        -0.0112
     20 S1         91.4710   90.7740  -46.7540 S.3       1 EXQ        -0.0513
     21 C19        90.0430   90.9440  -50.5240 C.3       1 EXQ        -0.0429
     22 C20        93.5850   92.8100  -41.7300 C.3       1 EXQ        -0.0404
     23 N2         89.9550  100.1580  -41.0500 N.4       1 EXQ         0.2354
     24 C21        89.7910  101.5980  -40.7520 C.3       1 EXQ        -0.0437
     25 H1         90.9581   98.4728  -43.6737 H         1 EXQ         0.0507
     26 H2         92.0482   97.7954  -39.5420 H         1 EXQ         0.0521
     27 H3         92.2038   95.3443  -39.9668 H         1 EXQ         0.0527
     28 H4         91.6968  100.3064  -42.2275 H         1 EXQ         0.0956
     29 H5         91.9790  100.0414  -40.4734 H         1 EXQ         0.0956
     30 H6         90.6160   96.8634  -45.9599 H         1 EXQ         0.0576
     31 H7         90.4527   94.9865  -47.5680 H         1 EXQ         0.0512
     32 H8         91.5687   92.1820  -44.4959 H         1 EXQ         0.0521
     33 H9         91.6263   92.1458  -42.3443 H         1 EXQ         0.0574
     34 H10        91.6527   93.0766  -40.8082 H         1 EXQ         0.0574
     35 H11        90.0166   93.3140  -48.9024 H         1 EXQ         0.0424
     36 H12        91.2074   89.1482  -48.6536 H         1 EXQ         0.0609
     37 H13        89.6428   91.8865  -50.9259 H         1 EXQ         0.0344
     38 H14        89.2569   90.1748  -50.5417 H         1 EXQ         0.0344
     39 H15        90.8927   90.6143  -51.1399 H         1 EXQ         0.0344
     40 H16        93.8002   91.8858  -41.1737 H         1 EXQ         0.0254
     41 H17        94.0349   93.6664  -41.2063 H         1 EXQ         0.0254
     42 H18        94.0086   92.7356  -42.7424 H         1 EXQ         0.0254
     43 H19        89.6316   99.6292  -40.2551 H         1 EXQ         0.2023
     44 H20        89.3916   99.9330  -41.8550 H         1 EXQ         0.2023
     45 H21        88.7308  101.8126  -40.5522 H         1 EXQ         0.0777
     46 H22        90.1291  102.1917  -41.6141 H         1 EXQ         0.0777
     47 H23        90.3910  101.8602  -39.8682 H         1 EXQ         0.0777
@<TRIPOS>BOND
     1    1    2 1  
     2    1    9 1  
     3    1   15 1  
     4    2    3 ar 
     5    2    7 ar 
     6    3    4 ar 
     7    3   10 1  
     8    4    5 ar 
     9    5    6 ar 
    10    5    8 1  
    11    6    7 ar 
    12    8   23 1  
    13    9   10 ar 
    14    9   14 ar 
    15   10   11 ar 
    16   11   12 ar 
    17   12   13 ar 
    18   13   14 ar 
    19   13   16 1  
    20   15   22 1  
    21   16   17 2  
    22   16   20 1  
    23   17   18 1  
    24   18   19 2  
    25   18   21 1  
    26   19   20 1  
    27   23   24 1  
    28    4   25 1  
    29    6   26 1  
    30    7   27 1  
    31    8   28 1  
    32    8   29 1  
    33   11   30 1  
    34   12   31 1  
    35   14   32 1  
    36   15   33 1  
    37   15   34 1  
    38   17   35 1  
    39   19   36 1  
    40   21   37 1  
    41   21   38 1  
    42   21   39 1  
    43   22   40 1  
    44   22   41 1  
    45   22   42 1  
    46   23   43 1  
    47   23   44 1  
    48   24   45 1  
    49   24   46 1  
    50   24   47 1  
@<TRIPOS>SUBSTRUCTURE
     1 EXQ         1

