### 
### Created by X-TOOL on Mon Aug  2 16:11:43 2021
### 

@<TRIPOS>MOLECULE
6ggg_ligand
   59    62     1     0     0
SMALL
GAST_HUCK


@<TRIPOS>ATOM
      1 C1        -29.2690    0.6380    7.5720 C.3       1 EYN        -0.0611
      2 C2        -30.3690    0.7290    6.5700 C.3       1 EYN        -0.0392
      3 C3        -31.4300   -0.3010    6.9350 C.3       1 EYN        -0.0611
      4 C7        -28.7160    4.5170    4.7300 C.ar      1 EYN         0.0892
      5 C8        -28.4110    5.4040    5.7570 C.ar      1 EYN         0.1046
      6 C9        -28.8900    5.2030    7.0370 C.ar      1 EYN        -0.0187
      7 C10       -29.7170    4.1280    7.2790 C.ar      1 EYN         0.1084
      8 C13       -26.9740    6.6130    4.2810 C.3       1 EYN         0.0955
      9 C14       -27.8980    6.1810    3.1430 C.3       1 EYN         0.1064
     10 C19       -27.3140    2.4610    2.9500 C.ar      1 EYN         0.0303
     11 C20       -26.6250    2.2470    4.1360 C.ar      1 EYN        -0.0653
     12 C21       -26.1530    0.9900    4.4920 C.ar      1 EYN        -0.0392
     13 C22       -26.3380   -0.0580    3.6030 C.ar      1 EYN         0.1214
     14 C24       -27.5080    1.4050    2.0700 C.ar      1 EYN        -0.0291
     15 N25       -27.1780   -0.8990    1.5010 N.am      1 EYN        -0.2335
     16 C30       -29.1130    7.1080    3.0900 C.3       1 EYN         0.0674
     17 C31       -29.9720    7.0970    1.8600 C.2       1 EYN         0.1785
     18 C34       -30.5690    5.9580   -0.2070 C.3       1 EYN         0.0196
     19 C4        -30.9980    2.1070    6.5510 C.3       1 EYN        -0.0244
     20 C5        -30.0560    3.2420    6.2630 C.ar      1 EYN        -0.0333
     21 C6        -29.5590    3.4470    4.9880 C.ar      1 EYN        -0.0487
     22 F11       -30.2120    3.9830    8.5270 F         1 EYN        -0.2044
     23 O12       -27.5940    6.5280    5.5820 O.3       1 EYN        -0.3265
     24 N16       -28.2130    4.7750    3.4220 N.am      1 EYN        -0.2192
     25 C17       -27.7920    3.8120    2.5010 C.2       1 EYN         0.2199
     26 O18       -27.7400    4.0420    1.2860 O.2       1 EYN        -0.3800
     27 C23       -27.0120    0.1610    2.4170 C.ar      1 EYN         0.1026
     28 C26       -26.8930   -2.1960    1.8600 C.2       1 EYN         0.2315
     29 O27       -26.9570   -3.1320    1.0700 O.2       1 EYN        -0.3833
     30 C28       -26.5960   -2.3810    3.3320 C.3       1 EYN         0.1624
     31 O29       -25.8130   -1.3210    3.9300 O.3       1 EYN        -0.2997
     32 O32       -30.8350    7.9480    1.7150 O.2       1 EYN        -0.3970
     33 N33       -29.7350    6.0820    0.9690 N.am      1 EYN        -0.2899
     34 H1        -28.8400   -0.3747    7.5545 H         1 EYN         0.0234
     35 H2        -29.6681    0.8498    8.5749 H         1 EYN         0.0234
     36 H3        -28.4872    1.3716    7.3259 H         1 EYN         0.0234
     37 H4        -29.9660    0.5069    5.5709 H         1 EYN         0.0314
     38 H5        -32.2538   -0.2523    6.2077 H         1 EYN         0.0234
     39 H6        -31.8171   -0.0876    7.9423 H         1 EYN         0.0234
     40 H7        -30.9854   -1.3070    6.9185 H         1 EYN         0.0234
     41 H8        -28.6194    5.8806    7.8387 H         1 EYN         0.0469
     42 H9        -26.6690    7.6554    4.1068 H         1 EYN         0.0635
     43 H10       -26.0852    5.9649    4.2746 H         1 EYN         0.0635
     44 H11       -27.3709    6.2481    2.1798 H         1 EYN         0.0668
     45 H12       -26.4505    3.0838    4.8026 H         1 EYN         0.0516
     46 H13       -25.6528    0.8323    5.4407 H         1 EYN         0.0510
     47 H14       -28.0351    1.5515    1.1342 H         1 EYN         0.0514
     48 H15       -27.5077   -0.7047    0.5771 H         1 EYN         0.2223
     49 H16       -28.7424    8.1358    3.2173 H         1 EYN         0.0531
     50 H17       -29.7599    6.8435    3.9395 H         1 EYN         0.0531
     51 H18       -30.2367    5.0951   -0.8028 H         1 EYN         0.0484
     52 H19       -30.4890    6.8735   -0.8115 H         1 EYN         0.0484
     53 H20       -31.6152    5.8111    0.0993 H         1 EYN         0.0484
     54 H21       -31.4534    2.2858    7.5362 H         1 EYN         0.0398
     55 H22       -31.7812    2.1119    5.7787 H         1 EYN         0.0398
     56 H23       -29.8299    2.7681    4.1875 H         1 EYN         0.0400
     57 H24       -26.0443   -3.3248    3.4540 H         1 EYN         0.0861
     58 H25       -27.5538   -2.4440    3.8693 H         1 EYN         0.0861
     59 H26       -28.9918    5.4327    1.1306 H         1 EYN         0.1847
@<TRIPOS>BOND
     1    2    1 1  
     2    2    3 1  
     3   19    2 1  
     4    4    5 ar 
     5    4   21 ar 
     6   24    4 1  
     7    5    6 ar 
     8    5   23 1  
     9    6    7 ar 
    10   20    7 ar 
    11    7   22 1  
    12    9    8 1  
    13    8   23 1  
    14    9   16 1  
    15   24    9 1  
    16   10   11 ar 
    17   10   14 ar 
    18   25   10 1  
    19   11   12 ar 
    20   12   13 ar 
    21   27   13 ar 
    22   13   31 1  
    23   14   27 ar 
    24   27   15 1  
    25   15   28 am 
    26   16   17 1  
    27   17   32 2  
    28   17   33 am 
    29   33   18 1  
    30   20   19 1  
    31   21   20 ar 
    32   24   25 am 
    33   25   26 2  
    34   28   29 2  
    35   28   30 1  
    36   30   31 1  
    37    1   34 1  
    38    1   35 1  
    39    1   36 1  
    40    2   37 1  
    41    3   38 1  
    42    3   39 1  
    43    3   40 1  
    44    6   41 1  
    45    8   42 1  
    46    8   43 1  
    47    9   44 1  
    48   11   45 1  
    49   12   46 1  
    50   14   47 1  
    51   15   48 1  
    52   16   49 1  
    53   16   50 1  
    54   18   51 1  
    55   18   52 1  
    56   18   53 1  
    57   19   54 1  
    58   19   55 1  
    59   21   56 1  
    60   30   57 1  
    61   30   58 1  
    62   33   59 1  
@<TRIPOS>SUBSTRUCTURE
     1 EYN         1

