### 
### Created by X-TOOL on Wed Jan  1 15:39:35 2020
### 

@<TRIPOS>MOLECULE
6ggv_ligand
   27    26     1     0     0
SMALL
GAST_HUCK


@<TRIPOS>ATOM
      1 N           8.5950   -7.8050   38.0030 N.4       1 ARG         0.2327
      2 CA          9.2370   -6.5030   38.1630 C.3       1 ARG         0.0284
      3 C          10.7350   -6.6340   37.8950 C.2       1 ARG         0.0844
      4 O          11.2350   -7.7420   37.6670 O.co2     1 ARG        -0.5643
      5 CB          8.9630   -5.9240   39.5690 C.3       1 ARG         0.0055
      6 CG          9.9900   -6.2670   40.6160 C.3       1 ARG        -0.0131
      7 CD          9.3780   -6.9570   41.7810 C.3       1 ARG         0.0628
      8 NE          9.8470   -6.3660   43.0290 N.pl3     1 ARG        -0.2723
      9 CZ          9.8940   -6.9730   44.2040 C.cat     1 ARG         0.2882
     10 NH1        10.3440   -6.2940   45.2330 N.pl3     1 ARG        -0.2849
     11 NH2         9.5120   -8.2360   44.3560 N.pl3     1 ARG        -0.2849
     12 OXT        11.4770   -5.6530   37.8920 O.co2     1 ARG        -0.5643
     13 H1          7.6067   -7.7163   38.1803 H         1 ARG         0.2010
     14 H2          8.9960   -8.4599   38.6560 H         1 ARG         0.2010
     15 H3          8.7391   -8.1374   37.0624 H         1 ARG         0.2010
     16 H4          8.8120   -5.8117   37.4204 H         1 ARG         0.1024
     17 H5          7.9892   -6.3053   39.9100 H         1 ARG         0.0340
     18 H6          8.9180   -4.8283   39.4828 H         1 ARG         0.0340
     19 H7         10.4693   -5.3395   40.9625 H         1 ARG         0.0302
     20 H8         10.7482   -6.9267   40.1690 H         1 ARG         0.0302
     21 H9          9.6551   -8.0213   41.7579 H         1 ARG         0.0689
     22 H10         8.2836   -6.8617   41.7242 H         1 ARG         0.0689
     23 H11        10.1706   -5.3888   42.9927 H         1 ARG         0.2642
     24 H12        10.3932   -6.7378   46.1612 H         1 ARG         0.2615
     25 H13        10.6480   -5.3173   45.1124 H         1 ARG         0.2615
     26 H14         9.1590   -8.7681   43.5478 H         1 ARG         0.2615
     27 H15         9.5688   -8.6833   45.2821 H         1 ARG         0.2615
@<TRIPOS>BOND
     1    1    2 1  
     2    2    3 1  
     3    2    5 1  
     4    3    4 ar 
     5    3   12 ar 
     6    5    6 1  
     7    6    7 1  
     8    7    8 1  
     9    8    9 ar 
    10    9   10 ar 
    11    9   11 ar 
    12    1   13 1  
    13    1   14 1  
    14    1   15 1  
    15    2   16 1  
    16    5   17 1  
    17    5   18 1  
    18    6   19 1  
    19    6   20 1  
    20    7   21 1  
    21    7   22 1  
    22    8   23 1  
    23   10   24 1  
    24   10   25 1  
    25   11   26 1  
    26   11   27 1  
@<TRIPOS>SUBSTRUCTURE
     1 ARG         1

