### 
### Created by X-TOOL on Wed Jan  1 15:39:37 2020
### 

@<TRIPOS>MOLECULE
6gh9_ligand
   62    64     1     0     0
SMALL
GAST_HUCK


@<TRIPOS>ATOM
      1 OAC       -99.0020   34.4560   45.6650 O.3       1 MIX        -0.3898
      2 CAK      -100.3390   34.0490   45.3470 C.3       1 MIX         0.0840
      3 CAM      -101.1350   35.2440   44.8340 C.3       1 MIX        -0.0099
      4 NAS      -100.5710   35.8140   43.6240 N.4       1 MIX         0.2300
      5 CAO      -101.2570   36.9000   42.9480 C.3       1 MIX        -0.0138
      6 CAQ      -100.4950   38.2180   43.0460 C.3       1 MIX         0.0631
      7 NAU       -99.3000   38.1880   42.2220 N.pl3     1 MIX        -0.3187
      8 CAY       -98.7560   39.3250   41.7320 C.ar      1 MIX         0.0509
      9 CAI       -97.9470   40.1470   42.5160 C.ar      1 MIX        -0.0429
     10 CAJ       -97.3770   41.3180   42.0100 C.ar      1 MIX        -0.0429
     11 CBE       -99.0120   39.6780   40.3150 C.ar      1 MIX         0.0551
     12 CBA       -99.8650   38.8220   39.4480 C.2       1 MIX         0.1476
     13 OAA      -100.3790   37.7740   39.8990 O.2       1 MIX        -0.3783
     14 CBC      -100.0960   39.2300   38.0340 C.ar      1 MIX         0.0684
     15 CAW      -100.9310   38.4180   37.1170 C.ar      1 MIX         0.1017
     16 OAE      -101.5060   37.2680   37.5620 O.3       1 MIX        -0.3332
     17 CAG      -101.1210   38.8400   35.8030 C.ar      1 MIX        -0.0297
     18 CAH      -100.5490   40.0130   35.3040 C.ar      1 MIX        -0.0297
     19 CAX       -99.7470   40.8420   36.0900 C.ar      1 MIX         0.1017
     20 OAF       -99.1990   41.9820   35.5800 O.3       1 MIX        -0.3332
     21 CBD       -99.4890   40.4740   37.5040 C.ar      1 MIX         0.0684
     22 CBB       -98.6410   41.3320   38.3710 C.2       1 MIX         0.1476
     23 OAB       -98.1350   42.3800   37.9130 O.2       1 MIX        -0.3783
     24 CBF       -98.4100   40.9210   39.7840 C.ar      1 MIX         0.0551
     25 CAZ       -97.5730   41.7410   40.6910 C.ar      1 MIX         0.0509
     26 NAV       -97.0280   42.8740   40.1870 N.pl3     1 MIX        -0.3187
     27 CAR       -96.2920   43.8250   40.9940 C.3       1 MIX         0.0631
     28 CAP       -97.1560   44.6010   41.9770 C.3       1 MIX        -0.0138
     29 NAT       -96.4710   44.7010   43.2460 N.4       1 MIX         0.2300
     30 CAN       -95.0550   45.0060   43.2470 C.3       1 MIX        -0.0099
     31 CAL       -94.6730   45.9770   44.3550 C.3       1 MIX         0.0840
     32 OAD       -94.4870   45.2600   45.5770 O.3       1 MIX        -0.3898
     33 H1        -98.5117   33.7074   45.9838 H         1 MIX         0.2096
     34 H2       -100.8231   33.6483   46.2498 H         1 MIX         0.0610
     35 H3       -100.3087   33.2702   44.5708 H         1 MIX         0.0610
     36 H4       -101.1493   36.0188   45.6146 H         1 MIX         0.0836
     37 H5       -102.1639   34.9172   44.6228 H         1 MIX         0.0836
     38 H6       -100.4891   35.0617   42.9581 H         1 MIX         0.2015
     39 H7        -99.6522   36.1532   43.8624 H         1 MIX         0.2015
     40 H8       -102.2490   37.0304   43.4051 H         1 MIX         0.0833
     41 H9       -101.3741   36.6376   41.8862 H         1 MIX         0.0833
     42 H10      -100.2060   38.3899   44.0933 H         1 MIX         0.0563
     43 H11      -101.1463   39.0367   42.7061 H         1 MIX         0.0563
     44 H12       -98.8579   37.2830   42.0064 H         1 MIX         0.1750
     45 H13       -97.7551   39.8698   43.5463 H         1 MIX         0.0543
     46 H14       -96.7591   41.9220   42.6646 H         1 MIX         0.0543
     47 H15      -102.0856   37.4655   38.2883 H         1 MIX         0.2477
     48 H16      -101.7347   38.2366   35.1440 H         1 MIX         0.0571
     49 H17      -100.7342   40.2884   34.2721 H         1 MIX         0.0571
     50 H18       -98.6882   42.4153   36.2536 H         1 MIX         0.2477
     51 H19       -97.1425   43.0684   39.1820 H         1 MIX         0.1750
     52 H20       -95.8025   44.5443   40.3209 H         1 MIX         0.0563
     53 H21       -95.5272   43.2767   41.5636 H         1 MIX         0.0563
     54 H22       -98.1129   44.0769   42.1172 H         1 MIX         0.0833
     55 H23       -97.3450   45.6100   41.5819 H         1 MIX         0.0833
     56 H24       -96.5848   43.8164   43.7157 H         1 MIX         0.2015
     57 H25       -96.9312   45.4245   43.7760 H         1 MIX         0.2015
     58 H26       -94.7890   45.4531   42.2778 H         1 MIX         0.0836
     59 H27       -94.4921   44.0713   43.3865 H         1 MIX         0.0836
     60 H28       -95.4747   46.7189   44.4842 H         1 MIX         0.0610
     61 H29       -93.7382   46.4904   44.0858 H         1 MIX         0.0610
     62 H30       -94.2487   45.8683   46.2667 H         1 MIX         0.2096
@<TRIPOS>BOND
     1    1    2 1  
     2    2    3 1  
     3    3    4 1  
     4    4    5 1  
     5    5    6 1  
     6    6    7 1  
     7    7    8 1  
     8    8    9 ar 
     9    8   11 ar 
    10    9   10 ar 
    11   10   25 ar 
    12   11   12 1  
    13   11   24 ar 
    14   12   13 2  
    15   12   14 1  
    16   14   15 ar 
    17   14   21 ar 
    18   15   16 1  
    19   15   17 ar 
    20   17   18 ar 
    21   18   19 ar 
    22   19   20 1  
    23   19   21 ar 
    24   21   22 1  
    25   22   23 2  
    26   22   24 1  
    27   24   25 ar 
    28   25   26 1  
    29   26   27 1  
    30   27   28 1  
    31   28   29 1  
    32   29   30 1  
    33   30   31 1  
    34   31   32 1  
    35    1   33 1  
    36    2   34 1  
    37    2   35 1  
    38    3   36 1  
    39    3   37 1  
    40    4   38 1  
    41    4   39 1  
    42    5   40 1  
    43    5   41 1  
    44    6   42 1  
    45    6   43 1  
    46    7   44 1  
    47    9   45 1  
    48   10   46 1  
    49   16   47 1  
    50   17   48 1  
    51   18   49 1  
    52   20   50 1  
    53   26   51 1  
    54   27   52 1  
    55   27   53 1  
    56   28   54 1  
    57   28   55 1  
    58   29   56 1  
    59   29   57 1  
    60   30   58 1  
    61   30   59 1  
    62   31   60 1  
    63   31   61 1  
    64   32   62 1  
@<TRIPOS>SUBSTRUCTURE
     1 MIX         1

