### 
### Created by X-TOOL on Wed Jan  1 15:39:37 2020
### 

@<TRIPOS>MOLECULE
6ghh_ligand
   36    35     1     0     0
SMALL
GAST_HUCK


@<TRIPOS>ATOM
      1 O21        29.7480  -47.2550  113.2660 O.co2     1 TDA        -0.5690
      2 O22        30.7870  -48.7350  112.0920 O.co2     1 TDA        -0.5690
      3 C21        30.8360  -47.7210  112.8410 C.2       1 TDA         0.0348
      4 C22        32.1290  -47.0850  113.2630 C.3       1 TDA         0.0003
      5 C23        33.3130  -47.0480  112.3460 C.3       1 TDA        -0.0399
      6 C24        34.6700  -47.2510  112.9400 C.3       1 TDA        -0.0449
      7 C25        35.8290  -47.5070  112.0430 C.3       1 TDA        -0.0364
      8 C26        36.7160  -48.6770  112.2630 C.2       1 TDA        -0.0987
      9 C27        38.0390  -48.7210  111.5800 C.2       1 TDA        -0.0985
     10 C28        38.9800  -49.8400  111.8510 C.3       1 TDA        -0.0349
     11 C29        40.2970  -49.7760  111.1800 C.3       1 TDA        -0.0398
     12 C30        41.2220  -50.9210  111.2060 C.3       1 TDA        -0.0349
     13 C31        42.4230  -50.7490  110.3780 C.2       1 TDA        -0.0988
     14 C32        43.5160  -51.7270  110.4980 C.2       1 TDA        -0.1017
     15 C33        44.6620  -51.5480  109.5740 C.3       1 TDA        -0.0486
     16 H1         32.4546  -47.6140  114.1708 H         1 TDA         0.0430
     17 H2         31.8951  -46.0394  113.5119 H         1 TDA         0.0430
     18 H3         33.3153  -46.0637  111.8550 H         1 TDA         0.0284
     19 H4         33.1661  -47.8342  111.5908 H         1 TDA         0.0284
     20 H5         34.5961  -48.1113  113.6214 H         1 TDA         0.0286
     21 H6         34.9058  -46.3450  113.5175 H         1 TDA         0.0286
     22 H7         36.4691  -46.6139  112.0946 H         1 TDA         0.0388
     23 H8         35.4223  -47.6084  111.0260 H         1 TDA         0.0388
     24 H9         36.4037  -49.4917  112.9146 H         1 TDA         0.0450
     25 H10        38.3173  -47.9331  110.8817 H         1 TDA         0.0450
     26 H11        38.4895  -50.7724  111.5348 H         1 TDA         0.0390
     27 H12        39.1595  -49.8697  112.9358 H         1 TDA         0.0390
     28 H13        40.8358  -48.9295  111.6306 H         1 TDA         0.0304
     29 H14        40.0969  -49.5608  110.1200 H         1 TDA         0.0304
     30 H15        40.6808  -51.8088  110.8470 H         1 TDA         0.0389
     31 H16        41.5414  -51.0819  112.2462 H         1 TDA         0.0389
     32 H17        42.5032  -49.9114  109.6866 H         1 TDA         0.0450
     33 H18        43.4850  -52.5372  111.2250 H         1 TDA         0.0447
     34 H19        45.4085  -52.3344  109.7591 H         1 TDA         0.0353
     35 H20        45.1188  -50.5617  109.7431 H         1 TDA         0.0353
     36 H21        44.3088  -51.6152  108.5344 H         1 TDA         0.0353
@<TRIPOS>BOND
     1    1    3 ar 
     2    3    2 ar 
     3    3    4 1  
     4    4    5 1  
     5    5    6 1  
     6    6    7 1  
     7    7    8 1  
     8    8    9 2  
     9    9   10 1  
    10   10   11 1  
    11   11   12 1  
    12   12   13 1  
    13   13   14 2  
    14   14   15 1  
    15    4   16 1  
    16    4   17 1  
    17    5   18 1  
    18    5   19 1  
    19    6   20 1  
    20    6   21 1  
    21    7   22 1  
    22    7   23 1  
    23    8   24 1  
    24    9   25 1  
    25   10   26 1  
    26   10   27 1  
    27   11   28 1  
    28   11   29 1  
    29   12   30 1  
    30   12   31 1  
    31   13   32 1  
    32   14   33 1  
    33   15   34 1  
    34   15   35 1  
    35   15   36 1  
@<TRIPOS>SUBSTRUCTURE
     1 TDA         1

