### 
### Created by X-TOOL on Wed Jan  1 15:39:36 2020
### 

@<TRIPOS>MOLECULE
6ghj_ligand
   50    50     1     0     0
SMALL
GAST_HUCK


@<TRIPOS>ATOM
      1 N          19.9010   17.0190   -2.5830 N.4       1 PHE         0.2394
      2 CA         21.0880   17.8800   -2.5680 C.3       1 PHE         0.0744
      3 C          21.2390   18.5690   -3.9050 C.2       1 PHE         0.2288
      4 O          20.8750   18.0030   -4.9390 O.2       1 PHE        -0.3905
      5 CB         22.3700   17.0820   -2.2690 C.3       1 PHE         0.0416
      6 CG         22.4120   16.4800   -0.8860 C.ar      1 PHE        -0.0353
      7 CD1        22.2300   17.2790    0.2400 C.ar      1 PHE        -0.0600
      8 CD2        22.6320   15.1060   -0.7100 C.ar      1 PHE        -0.0600
      9 CE1        22.2600   16.7100    1.5210 C.ar      1 PHE        -0.0686
     10 CE2        22.6790   14.5370    0.5630 C.ar      1 PHE        -0.0686
     11 CZ         22.4840   15.3390    1.6780 C.ar      1 PHE        -0.0687
     12 N          21.8070   19.7760   -3.8780 N.am      1 ALA        -0.2611
     13 CA         22.0620   20.5130   -5.1120 C.3       1 ALA         0.1283
     14 C          22.8890   19.6910   -6.0940 C.2       1 ALA         0.2031
     15 O          22.5210   19.5520   -7.2650 O.2       1 ALA        -0.3944
     16 CB         22.7550   21.8430   -4.8000 C.3       1 ALA        -0.0244
     17 N          24.0010   19.1240   -5.6420 N.am      1 GLN        -0.2693
     18 CA         24.7190   18.2150   -6.5350 C.3       1 GLN         0.0964
     19 C          25.1740   16.9080   -5.8620 C.2       1 GLN         0.0602
     20 O          24.8290   16.5860   -4.7160 O.co2     1 GLN        -0.5666
     21 CB         25.9120   18.9430   -7.1630 C.3       1 GLN        -0.0010
     22 CG         26.9710   19.3990   -6.1810 C.3       1 GLN         0.0407
     23 CD         28.1670   20.0040   -6.8910 C.2       1 GLN         0.1737
     24 OE1        28.0230   20.5750   -7.9870 O.2       1 GLN        -0.3973
     25 NE2        29.3570   19.8830   -6.2810 N.am      1 GLN        -0.3009
     26 OXT        25.8840   16.1040   -6.4770 O.co2     1 GLN        -0.5666
     27 H1         19.8057   16.5626   -1.6893 H         1 PHE         0.2017
     28 H2         19.9991   16.3240   -3.3064 H         1 PHE         0.2017
     29 H3         19.0822   17.5786   -2.7635 H         1 PHE         0.2017
     30 H4         20.9568   18.6411   -1.7847 H         1 PHE         0.1122
     31 H5         23.2310   17.7579   -2.3779 H         1 PHE         0.0507
     32 H6         22.4487   16.2667   -3.0032 H         1 PHE         0.0507
     33 H7         22.0646   18.3442    0.1257 H         1 PHE         0.0557
     34 H8         22.7682   14.4739   -1.5800 H         1 PHE         0.0557
     35 H9         22.1089   17.3356    2.3932 H         1 PHE         0.0599
     36 H10        22.8666   13.4758    0.6800 H         1 PHE         0.0599
     37 H11        22.5053   14.9030    2.6702 H         1 PHE         0.0559
     38 H12        22.0616   20.1815   -3.0001 H         1 ALA         0.1884
     39 H13        21.0933   20.7324   -5.5848 H         1 ALA         0.0797
     40 H14        22.9413   22.3880   -5.7371 H         1 ALA         0.0277
     41 H15        23.7115   21.6480   -4.2929 H         1 ALA         0.0277
     42 H16        22.1099   22.4481   -4.1460 H         1 ALA         0.0277
     43 H17        24.3374   19.3126   -4.7194 H         1 GLN         0.1875
     44 H18        24.0272   17.9381   -7.3442 H         1 GLN         0.0727
     45 H19        25.5315   19.8298   -7.6911 H         1 GLN         0.0330
     46 H20        26.3863   18.2618   -7.8848 H         1 GLN         0.0330
     47 H21        27.3066   18.5338   -5.5904 H         1 GLN         0.0504
     48 H22        26.5347   20.1538   -5.5103 H         1 GLN         0.0504
     49 H23        30.1779   20.2642   -6.7062 H         1 GLN         0.1814
     50 H24        29.4224   19.4117   -5.4014 H         1 GLN         0.1814
@<TRIPOS>BOND
     1    1    2 1  
     2    2    3 1  
     3    2    5 1  
     4    3    4 2  
     5    3   12 am 
     6    5    6 1  
     7    6    7 ar 
     8    6    8 ar 
     9    7    9 ar 
    10    8   10 ar 
    11    9   11 ar 
    12   10   11 ar 
    13   12   13 1  
    14   13   14 1  
    15   13   16 1  
    16   14   15 2  
    17   14   17 am 
    18   17   18 1  
    19   18   19 1  
    20   18   21 1  
    21   19   20 ar 
    22   19   26 ar 
    23   21   22 1  
    24   22   23 1  
    25   23   24 2  
    26   23   25 am 
    27    1   27 1  
    28    1   28 1  
    29    1   29 1  
    30    2   30 1  
    31    5   31 1  
    32    5   32 1  
    33    7   33 1  
    34    8   34 1  
    35    9   35 1  
    36   10   36 1  
    37   11   37 1  
    38   12   38 1  
    39   13   39 1  
    40   16   40 1  
    41   16   41 1  
    42   16   42 1  
    43   17   43 1  
    44   18   44 1  
    45   21   45 1  
    46   21   46 1  
    47   22   47 1  
    48   22   48 1  
    49   25   49 1  
    50   25   50 1  
@<TRIPOS>SUBSTRUCTURE
     1 PHE         1

