### 
### Created by X-TOOL on Wed Jan  1 15:39:36 2020
### 

@<TRIPOS>MOLECULE
6ghp_ligand
  100   103     1     0     0
SMALL
GAST_HUCK


@<TRIPOS>ATOM
      1 C01       -23.4350  -21.0990    4.1060 C.3       1 EZ5         0.0368
      2 C03       -21.5000  -20.5890    2.9020 C.3       1 EZ5         0.0707
      3 C04       -20.0060  -20.3100    3.0960 C.3       1 EZ5         0.0460
      4 C05       -19.3150  -21.5730    3.6070 C.3       1 EZ5        -0.0232
      5 C06       -17.9220  -21.4860    3.0390 C.3       1 EZ5        -0.0249
      6 C07       -18.1030  -20.9240    1.6200 C.3       1 EZ5         0.0279
      7 C08       -18.0720  -21.9020    0.4290 C.3       1 EZ5         0.0096
      8 C09       -19.4660  -22.3530    0.0680 C.3       1 EZ5        -0.0560
      9 C10       -17.2610  -21.5260   -0.8200 C.3       1 EZ5         0.0922
     10 C12       -17.8260  -20.3180   -1.6610 C.3       1 EZ5         0.0962
     11 C14       -17.6400  -20.3390   -4.0600 C.3       1 EZ5         0.1899
     12 C16       -17.7590  -17.9180   -4.3350 C.3       1 EZ5         0.1120
     13 C17       -18.9500  -16.9570   -4.7010 C.3       1 EZ5         0.0638
     14 C19       -20.2630  -16.5380   -6.6950 C.3       1 EZ5         0.0427
     15 C20       -19.3270  -15.5280   -7.3660 C.3       1 EZ5        -0.0664
     16 C21       -21.2140  -15.7730   -5.7680 C.3       1 EZ5        -0.0664
     17 C22       -21.0940  -17.2250   -7.7400 C.2       1 EZ5        -0.0499
     18 C23       -22.1510  -17.9620   -7.4190 C.2       1 EZ5        -0.0390
     19 C24       -16.7310  -17.9550   -5.4930 C.3       1 EZ5         0.1119
     20 C26       -15.7990  -19.1810   -5.3460 C.3       1 EZ5         0.1141
     21 C28       -16.6720  -20.4400   -5.2640 C.3       1 EZ5         0.1343
     22 C30       -17.7480  -19.0760   -0.8230 C.2       1 EZ5        -0.0865
     23 C31       -16.6930  -18.3120   -0.4970 C.2       1 EZ5        -0.0183
     24 C32       -17.1550  -16.9990    0.0720 C.3       1 EZ5         0.0177
     25 C33       -18.6700  -16.9540   -0.2750 C.3       1 EZ5         0.0139
     26 C34       -19.0550  -18.4660   -0.2700 C.3       1 EZ5        -0.0798
     27 C35       -20.2070  -18.5450   -1.2650 C.3       1 EZ5        -0.1270
     28 C36       -19.6010  -18.9570    1.0460 C.2       1 EZ5        -0.1431
     29 C37       -19.3230  -20.0540    1.7610 C.2       1 EZ5        -0.0244
     30 C39       -15.2240  -18.5990   -0.6000 C.3       1 EZ5         0.0385
     31 C40       -14.5530  -18.5800    0.7650 C.3       1 EZ5        -0.0400
     32 C41       -14.5560  -17.5410   -1.5100 C.3       1 EZ5         0.0533
     33 C43       -12.2440  -17.0580   -2.2030 C.2       1 EZ5         0.1731
     34 C44       -10.9060  -17.5540   -2.7540 C.3       1 EZ5         0.0257
     35 N42       -13.2630  -17.9860   -2.0340 N.am      1 EZ5        -0.2831
     36 O02       -22.0590  -20.8390    4.1800 O.3       1 EZ5        -0.3786
     37 O11       -17.1670  -22.5860   -1.7120 O.3       1 EZ5        -0.3872
     38 O13       -17.0080  -20.3120   -2.8090 O.3       1 EZ5        -0.3360
     39 O15       -18.3970  -19.1730   -4.1560 O.3       1 EZ5        -0.3404
     40 O18       -19.5390  -17.4520   -5.8830 O.3       1 EZ5        -0.4140
     41 O25       -15.9250  -16.8270   -5.3330 O.3       1 EZ5        -0.3865
     42 O27       -15.0620  -19.3040   -6.5260 O.3       1 EZ5        -0.3864
     43 O29       -15.8650  -21.5510   -5.0860 O.3       1 EZ5        -0.3841
     44 O38       -19.4130  -16.2250    0.6560 O.3       1 EZ5        -0.4088
     45 O45       -12.4250  -15.8720   -1.9280 O.2       1 EZ5        -0.3974
     46 H1        -23.8275  -21.2870    5.1163 H         1 EZ5         0.0524
     47 H2        -23.6077  -21.9834    3.4752 H         1 EZ5         0.0524
     48 H3        -23.9493  -20.2306    3.6686 H         1 EZ5         0.0524
     49 H4        -21.6365  -21.4678    2.2546 H         1 EZ5         0.0607
     50 H5        -21.9880  -19.7164    2.4434 H         1 EZ5         0.0607
     51 H6        -19.8659  -19.4643    3.7853 H         1 EZ5         0.0657
     52 H7        -19.8296  -22.4743    3.2424 H         1 EZ5         0.0315
     53 H8        -19.2881  -21.5856    4.7066 H         1 EZ5         0.0315
     54 H9        -17.4565  -22.4820    3.0034 H         1 EZ5         0.0314
     55 H10       -17.2992  -20.8115    3.6450 H         1 EZ5         0.0314
     56 H11       -17.2505  -20.2539    1.4352 H         1 EZ5         0.0638
     57 H12       -17.5621  -22.7935    0.8228 H         1 EZ5         0.0371
     58 H13       -19.4175  -23.0487   -0.7827 H         1 EZ5         0.0236
     59 H14       -20.0744  -21.4789   -0.2074 H         1 EZ5         0.0236
     60 H15       -19.9223  -22.8602    0.9308 H         1 EZ5         0.0236
     61 H16       -16.2506  -21.2598   -0.4763 H         1 EZ5         0.0642
     62 H17       -18.8739  -20.4884   -1.9488 H         1 EZ5         0.0718
     63 H18       -18.3095  -21.2112   -4.0922 H         1 EZ5         0.0939
     64 H19       -17.2586  -17.5975   -3.4093 H         1 EZ5         0.0646
     65 H20       -18.5735  -15.9368   -4.8665 H         1 EZ5         0.0573
     66 H21       -19.6899  -16.9473   -3.8871 H         1 EZ5         0.0573
     67 H22       -19.9171  -14.8368   -7.9856 H         1 EZ5         0.0140
     68 H23       -18.6043  -16.0627   -7.9999 H         1 EZ5         0.0140
     69 H24       -18.7875  -14.9592   -6.5944 H         1 EZ5         0.0140
     70 H25       -21.8956  -16.4823   -5.2758 H         1 EZ5         0.0140
     71 H26       -21.7988  -15.0513   -6.3572 H         1 EZ5         0.0140
     72 H27       -20.6302  -15.2364   -5.0056 H         1 EZ5         0.0140
     73 H28       -20.8227  -17.1160   -8.7890 H         1 EZ5         0.0615
     74 H29       -22.7337  -18.4477   -8.2003 H         1 EZ5         0.1385
     75 H30       -22.4351  -18.0806   -6.3744 H         1 EZ5         0.1385
     76 H31       -17.2373  -17.9604   -6.4695 H         1 EZ5         0.0647
     77 H32       -15.1458  -19.0819   -4.4665 H         1 EZ5         0.0648
     78 H33       -17.2495  -20.5456   -6.1942 H         1 EZ5         0.0671
     79 H34       -16.6209  -16.1595   -0.3970 H         1 EZ5         0.0596
     80 H35       -17.0018  -16.9686    1.1608 H         1 EZ5         0.0596
     81 H36       -18.8257  -16.5155   -1.2717 H         1 EZ5         0.0401
     82 H37       -20.5582  -19.5849   -1.3375 H         1 EZ5        -0.0001
     83 H38       -19.8625  -18.2047   -2.2527 H         1 EZ5        -0.0001
     84 H39       -21.0317  -17.9025   -0.9229 H         1 EZ5        -0.0001
     85 H40       -20.3517  -18.3068    1.4927 H         1 EZ5         0.0149
     86 H41       -15.0898  -19.5956   -1.0459 H         1 EZ5         0.0642
     87 H42       -13.4802  -18.7939    0.6492 H         1 EZ5         0.0275
     88 H43       -15.0117  -19.3441    1.4098 H         1 EZ5         0.0275
     89 H44       -14.6817  -17.5883    1.2231 H         1 EZ5         0.0275
     90 H45       -14.4022  -16.6210   -0.9269 H         1 EZ5         0.0566
     91 H46       -15.2260  -17.3308   -2.3567 H         1 EZ5         0.0566
     92 H47       -10.2053  -16.7095   -2.8306 H         1 EZ5         0.0467
     93 H48       -11.0602  -17.9940   -3.7503 H         1 EZ5         0.0467
     94 H49       -10.4903  -18.3151   -2.0773 H         1 EZ5         0.0467
     95 H50       -13.1156  -18.9471   -2.2674 H         1 EZ5         0.1854
     96 H51       -16.5797  -22.3509   -2.4208 H         1 EZ5         0.2101
     97 H52       -16.4573  -16.0445   -5.4157 H         1 EZ5         0.2100
     98 H53       -14.5303  -20.0903   -6.4855 H         1 EZ5         0.2100
     99 H54       -15.3697  -21.4556   -4.2809 H         1 EZ5         0.2101
    100 H55       -20.3373  -16.2981    0.4490 H         1 EZ5         0.2076
@<TRIPOS>BOND
     1   36    1 1  
     2    3    2 1  
     3    2   36 1  
     4    3    4 1  
     5   29    3 1  
     6    5    4 1  
     7    6    5 1  
     8    7    6 1  
     9   29    6 1  
    10    7    8 1  
    11    9    7 1  
    12   10    9 1  
    13    9   37 1  
    14   22   10 1  
    15   10   38 1  
    16   11   21 1  
    17   38   11 1  
    18   11   39 1  
    19   12   13 1  
    20   12   19 1  
    21   39   12 1  
    22   13   40 1  
    23   14   15 1  
    24   14   16 1  
    25   14   17 1  
    26   40   14 1  
    27   17   18 2  
    28   20   19 1  
    29   19   41 1  
    30   21   20 1  
    31   20   42 1  
    32   21   43 1  
    33   23   22 2  
    34   22   26 1  
    35   23   24 1  
    36   30   23 1  
    37   24   25 1  
    38   25   26 1  
    39   25   44 1  
    40   26   27 1  
    41   26   28 1  
    42   28   29 2  
    43   30   31 1  
    44   32   30 1  
    45   35   32 1  
    46   33   34 1  
    47   33   35 am 
    48   33   45 2  
    49    1   46 1  
    50    1   47 1  
    51    1   48 1  
    52    2   49 1  
    53    2   50 1  
    54    3   51 1  
    55    4   52 1  
    56    4   53 1  
    57    5   54 1  
    58    5   55 1  
    59    6   56 1  
    60    7   57 1  
    61    8   58 1  
    62    8   59 1  
    63    8   60 1  
    64    9   61 1  
    65   10   62 1  
    66   11   63 1  
    67   12   64 1  
    68   13   65 1  
    69   13   66 1  
    70   15   67 1  
    71   15   68 1  
    72   15   69 1  
    73   16   70 1  
    74   16   71 1  
    75   16   72 1  
    76   17   73 1  
    77   18   74 1  
    78   18   75 1  
    79   19   76 1  
    80   20   77 1  
    81   21   78 1  
    82   24   79 1  
    83   24   80 1  
    84   25   81 1  
    85   27   82 1  
    86   27   83 1  
    87   27   84 1  
    88   28   85 1  
    89   30   86 1  
    90   31   87 1  
    91   31   88 1  
    92   31   89 1  
    93   32   90 1  
    94   32   91 1  
    95   34   92 1  
    96   34   93 1  
    97   34   94 1  
    98   35   95 1  
    99   37   96 1  
   100   41   97 1  
   101   42   98 1  
   102   43   99 1  
   103   44  100 1  
@<TRIPOS>SUBSTRUCTURE
     1 EZ5         1

