### 
### Created by X-TOOL on Mon Aug  2 16:13:31 2021
### 

@<TRIPOS>MOLECULE
6ghv_ligand
  100   104     1     0     0
SMALL
GAST_HUCK


@<TRIPOS>ATOM
      1 C4         11.4820   -6.7100   15.9630 C.3       1 EZ8         0.1126
      2 C5         12.5630   -7.7870   15.8360 C.3       1 EZ8         0.1131
      3 C6         13.2200   -7.8910   17.1570 C.3       1 EZ8         0.0730
      4 N2          9.2190   -8.5590   15.6040 N.pl3     1 EZ8        -0.1705
      5 C3         10.5880   -6.7520   14.7220 C.3       1 EZ8         0.1212
      6 CAP         8.6740  -14.3110    9.1070 C.ar      1 EZ8        -0.0648
      7 CAL         8.3100  -15.4570    9.8090 C.ar      1 EZ8        -0.0646
      8 CBM         9.2350  -16.3920   10.2060 C.ar      1 EZ8        -0.0245
      9 CAV         8.7800  -17.4910   10.9270 C.3       1 EZ8         0.0751
     10 OAE         9.3270  -18.6960   10.4140 O.3       1 EZ8        -0.3836
     11 CAM        10.5770  -16.1520    9.9060 C.ar      1 EZ8        -0.0646
     12 CAQ        10.9570  -15.0000    9.1950 C.ar      1 EZ8        -0.0648
     13 CBO        10.0090  -14.0480    8.8040 C.ar      1 EZ8        -0.0277
     14 CAZ        10.3310  -12.8900    8.1140 C.3       1 EZ8         0.0614
     15 NBF        11.0140  -11.9370    9.0310 N.am      1 EZ8        -0.2763
     16 CBK        10.4300  -10.9210    9.7360 C.2       1 EZ8         0.1834
     17 OAC         9.2130  -10.6670    9.7030 O.2       1 EZ8        -0.3965
     18 CBW        11.3980  -10.0730   10.6010 C.3       1 EZ8         0.0708
     19 CBB        11.8250  -10.8430   11.7670 C.3       1 EZ8        -0.0019
     20 CBV        12.6470   -9.5630    9.8360 C.3       1 EZ8         0.0708
     21 CBJ        12.1970   -8.6890    8.6660 C.2       1 EZ8         0.1834
     22 OAB        11.4540   -7.7420    8.8980 O.2       1 EZ8        -0.3965
     23 NBE        12.7070   -8.9120    7.4200 N.am      1 EZ8        -0.2763
     24 CAY        12.2370   -8.0920    6.2600 C.3       1 EZ8         0.0614
     25 CBN        13.0790   -7.0150    5.8860 C.ar      1 EZ8        -0.0277
     26 CAN        13.9050   -6.3660    6.8040 C.ar      1 EZ8        -0.0648
     27 CAJ        14.7570   -5.3240    6.4190 C.ar      1 EZ8        -0.0646
     28 CBL        14.7970   -4.9050    5.0990 C.ar      1 EZ8        -0.0245
     29 CAU        15.6850   -3.8800    4.7250 C.3       1 EZ8         0.0751
     30 OAD        14.9490   -2.7060    4.4530 O.3       1 EZ8        -0.3836
     31 CAK        13.9740   -5.5590    4.1580 C.ar      1 EZ8        -0.0646
     32 CAO        13.1270   -6.5930    4.5510 C.ar      1 EZ8        -0.0648
     33 CBA        13.4270   -8.6610   10.6770 C.3       1 EZ8        -0.0020
     34 CBT        13.8750   -9.3340   11.9180 C.3       1 EZ8         0.0875
     35 OBG        14.9170  -10.3600   11.6640 O.3       1 EZ8        -0.3727
     36 CAX        15.8010  -10.4280   12.7700 C.3       1 EZ8         0.0615
     37 CAT        16.4980  -11.7920   12.7230 C.3       1 EZ8         0.0460
     38 CL1        15.3460  -13.1170   12.2620 Cl        1 EZ8        -0.1231
     39 CBU        12.6430   -9.9420   12.6790 C.3       1 EZ8         0.0905
     40 O1         11.8370   -8.8730   13.1520 O.3       1 EZ8        -0.3421
     41 C1         11.1330   -9.1320   14.4210 C.3       1 EZ8         0.1956
     42 O5         11.9720   -9.0640   15.5830 O.3       1 EZ8        -0.3399
     43 O6         14.4420   -8.5160   16.8530 O.3       1 EZ8        -0.3924
     44 O4         12.0710   -5.4250   16.0840 O.3       1 EZ8        -0.3865
     45 O3          9.5950   -5.8180   14.9150 O.3       1 EZ8        -0.3857
     46 C2         10.0070   -8.1570   14.5240 C.3       1 EZ8         0.1647
     47 CAR         8.0010   -8.9750   15.3200 C.2       1 EZ8         0.0751
     48 NBD         9.3810   -8.6440   16.9170 N.2       1 EZ8        -0.1013
     49 NBC         8.2720   -9.1180   17.4550 N.2       1 EZ8        -0.2212
     50 CBP         7.4110   -9.3160   16.4560 C.2       1 EZ8         0.0809
     51 CAS         5.9860   -9.8620   16.4980 C.3       1 EZ8        -0.0002
     52 NAA         5.3060   -9.3620   17.6900 N.4       1 EZ8         0.2277
     53 H1         10.8741   -6.9119   16.8572 H         1 EZ8         0.0647
     54 H2         13.2819   -7.5253   15.0457 H         1 EZ8         0.0647
     55 H3         12.6234   -8.5042   17.8483 H         1 EZ8         0.0584
     56 H4         13.3833   -6.8961   17.5970 H         1 EZ8         0.0584
     57 H5         11.1764   -6.4839   13.8321 H         1 EZ8         0.0655
     58 H6          7.9075  -13.6126    8.7912 H         1 EZ8         0.0540
     59 H7          7.2651  -15.6163   10.0496 H         1 EZ8         0.0540
     60 H8          7.6830  -17.5365   10.8599 H         1 EZ8         0.0708
     61 H9          9.0787  -17.3796   11.9798 H         1 EZ8         0.0708
     62 H10         9.0686  -18.7982    9.5055 H         1 EZ8         0.2124
     63 H11        11.3333  -16.8604   10.2242 H         1 EZ8         0.0540
     64 H12        12.0008  -14.8470    8.9458 H         1 EZ8         0.0540
     65 H13         9.4118  -12.4282    7.7243 H         1 EZ8         0.0670
     66 H14        11.0008  -13.1366    7.2770 H         1 EZ8         0.0670
     67 H15        12.0011  -12.0514    9.1431 H         1 EZ8         0.1876
     68 H16        10.8412   -9.1917   10.9519 H         1 EZ8         0.0567
     69 H17        12.4397  -11.6953   11.4419 H         1 EZ8         0.0320
     70 H18        10.9421  -11.2131   12.3088 H         1 EZ8         0.0320
     71 H19        13.2556  -10.4126    9.4929 H         1 EZ8         0.0567
     72 H20        13.3954   -9.6241    7.2821 H         1 EZ8         0.1876
     73 H21        11.2515   -7.6766    6.5173 H         1 EZ8         0.0670
     74 H22        12.1380   -8.7604    5.3920 H         1 EZ8         0.0670
     75 H23        13.8866   -6.6766    7.8424 H         1 EZ8         0.0540
     76 H24        15.3884   -4.8427    7.1571 H         1 EZ8         0.0540
     77 H25        16.2396   -4.1836    3.8249 H         1 EZ8         0.0708
     78 H26        16.3930   -3.6889    5.5449 H         1 EZ8         0.0708
     79 H27        14.4704   -2.4462    5.2314 H         1 EZ8         0.2124
     80 H28        14.0010   -5.2537    3.1182 H         1 EZ8         0.0540
     81 H29        12.4967   -7.0774    3.8140 H         1 EZ8         0.0540
     82 H30        12.8058   -7.7935   10.9443 H         1 EZ8         0.0320
     83 H31        14.3095   -8.3210   10.1153 H         1 EZ8         0.0320
     84 H32        14.3237   -8.5672   12.5666 H         1 EZ8         0.0623
     85 H33        15.2360  -10.3277   13.7085 H         1 EZ8         0.0572
     86 H34        16.5475   -9.6229   12.7035 H         1 EZ8         0.0572
     87 H35        16.9170  -12.0130   13.7158 H         1 EZ8         0.0452
     88 H36        17.3106  -11.7521   11.9826 H         1 EZ8         0.0452
     89 H37        13.0029  -10.5339   13.5335 H         1 EZ8         0.0624
     90 H38        10.7153  -10.1486   14.3761 H         1 EZ8         0.0945
     91 H39        14.2734   -9.3645   16.4604 H         1 EZ8         0.2095
     92 H40        12.6250   -5.4032   16.8554 H         1 EZ8         0.2100
     93 H41         9.0156   -5.8132   14.1621 H         1 EZ8         0.2100
     94 H42         9.4050   -8.1726   13.6035 H         1 EZ8         0.0763
     95 H43         7.5578   -9.0289   14.3267 H         1 EZ8         0.0901
     96 H44         6.0156  -10.9612   16.5272 H         1 EZ8         0.0930
     97 H45         5.4412   -9.5335   15.6006 H         1 EZ8         0.0930
     98 H46         4.3653   -9.7232   17.7165 H         1 EZ8         0.2003
     99 H47         5.2785   -8.3547   17.6635 H         1 EZ8         0.2003
    100 H48         5.8048   -9.6630   18.5126 H         1 EZ8         0.2003
@<TRIPOS>BOND
     1    2    1 1  
     2    1    5 1  
     3    1   44 1  
     4    2    3 1  
     5   42    2 1  
     6    3   43 1  
     7   46    4 1  
     8    4   47 1  
     9    4   48 1  
    10    5   45 1  
    11    5   46 1  
    12    6    7 ar 
    13   13    6 ar 
    14    7    8 ar 
    15    8    9 1  
    16   11    8 ar 
    17    9   10 1  
    18   12   11 ar 
    19   13   12 ar 
    20   14   13 1  
    21   15   14 1  
    22   16   15 am 
    23   16   17 2  
    24   18   16 1  
    25   19   18 1  
    26   18   20 1  
    27   39   19 1  
    28   20   21 1  
    29   33   20 1  
    30   21   22 2  
    31   21   23 am 
    32   23   24 1  
    33   24   25 1  
    34   25   26 ar 
    35   25   32 ar 
    36   26   27 ar 
    37   27   28 ar 
    38   28   29 1  
    39   31   28 ar 
    40   29   30 1  
    41   32   31 ar 
    42   34   33 1  
    43   34   35 1  
    44   39   34 1  
    45   35   36 1  
    46   36   37 1  
    47   37   38 1  
    48   40   39 1  
    49   41   40 1  
    50   41   42 1  
    51   41   46 1  
    52   47   50 2  
    53   48   49 2  
    54   49   50 1  
    55   50   51 1  
    56   51   52 1  
    57    1   53 1  
    58    2   54 1  
    59    3   55 1  
    60    3   56 1  
    61    5   57 1  
    62    6   58 1  
    63    7   59 1  
    64    9   60 1  
    65    9   61 1  
    66   10   62 1  
    67   11   63 1  
    68   12   64 1  
    69   14   65 1  
    70   14   66 1  
    71   15   67 1  
    72   18   68 1  
    73   19   69 1  
    74   19   70 1  
    75   20   71 1  
    76   23   72 1  
    77   24   73 1  
    78   24   74 1  
    79   26   75 1  
    80   27   76 1  
    81   29   77 1  
    82   29   78 1  
    83   30   79 1  
    84   31   80 1  
    85   32   81 1  
    86   33   82 1  
    87   33   83 1  
    88   34   84 1  
    89   36   85 1  
    90   36   86 1  
    91   37   87 1  
    92   37   88 1  
    93   39   89 1  
    94   41   90 1  
    95   43   91 1  
    96   44   92 1  
    97   45   93 1  
    98   46   94 1  
    99   47   95 1  
   100   51   96 1  
   101   51   97 1  
   102   52   98 1  
   103   52   99 1  
   104   52  100 1  
@<TRIPOS>SUBSTRUCTURE
     1 EZ8         1

