### 
### Created by X-TOOL on Wed Jan  1 15:39:38 2020
### 

@<TRIPOS>MOLECULE
6gi6_ligand
   37    40     1     0     0
SMALL
GAST_HUCK


@<TRIPOS>ATOM
      1 C01       -12.9490  156.1410  161.3520 C.3       1 EZB        -0.0279
      2 C02       -13.6810  154.8200  161.1930 C.ar      1 EZB        -0.0243
      3 C03       -13.0340  153.5940  161.4530 C.ar      1 EZB        -0.0170
      4 C04       -13.7250  152.3980  161.2780 C.ar      1 EZB        -0.0642
      5 C05       -15.0520  152.3980  160.8870 C.ar      1 EZB        -0.0415
      6 C06       -15.7130  153.6270  160.6420 C.ar      1 EZB         0.0576
      7 C07       -15.0590  154.8220  160.7870 C.ar      1 EZB         0.0717
      8 C08       -15.8320  156.1000  160.5110 C.2       1 EZB         0.1941
      9 C10       -17.8240  154.7810  159.9740 C.3       1 EZB         0.1102
     10 C13       -11.6910  153.4410  161.8070 C.ar      1 EZB        -0.0117
     11 C14       -10.9190  152.6930  160.9170 C.ar      1 EZB        -0.0541
     12 C15        -9.5630  152.4620  161.1530 C.ar      1 EZB        -0.0604
     13 C16        -8.9690  152.9700  162.2990 C.ar      1 EZB        -0.0435
     14 C17        -9.7450  153.7340  163.2140 C.ar      1 EZB         0.0434
     15 C18       -11.0760  153.9650  162.9860 C.ar      1 EZB         0.0112
     16 C19       -11.8050  154.7280  163.9440 C.ar      1 EZB        -0.0351
     17 C20       -11.1430  155.2150  165.0690 C.ar      1 EZB        -0.0326
     18 C21        -9.7850  154.9490  165.2530 C.ar      1 EZB         0.0092
     19 N09       -17.1720  156.0340  160.1210 N.am      1 EZB        -0.2692
     20 N11       -17.1040  153.5690  160.2320 N.pl3     1 EZB        -0.2980
     21 N22        -9.1150  154.2270  164.3380 N.ar      1 EZB        -0.2974
     22 O12       -15.3360  157.2030  160.6120 O.2       1 EZB        -0.3958
     23 H1        -11.9121  155.9501  161.6656 H         1 EZB         0.0412
     24 H2        -13.4559  156.7517  162.1136 H         1 EZB         0.0412
     25 H3        -12.9487  156.6779  160.3920 H         1 EZB         0.0412
     26 H4        -13.2173  151.4559  161.4501 H         1 EZB         0.0620
     27 H5        -15.5842  151.4611  160.7685 H         1 EZB         0.0486
     28 H6        -18.1777  154.7260  158.9339 H         1 EZB         0.0786
     29 H7        -18.6877  154.7895  160.6551 H         1 EZB         0.0786
     30 H8        -11.3811  152.2838  160.0259 H         1 EZB         0.0604
     31 H9         -8.9768  151.8884  160.4442 H         1 EZB         0.0640
     32 H10        -7.9191  152.7857  162.4961 H         1 EZB         0.0604
     33 H11       -12.8607  154.9268  163.7992 H         1 EZB         0.0770
     34 H12       -11.6835  155.8017  165.8030 H         1 EZB         0.0685
     35 H13        -9.2720  155.3236  166.1314 H         1 EZB         0.0862
     36 H14       -17.6775  156.8784  159.9434 H         1 EZB         0.1857
     37 H15       -17.5731  152.6581  160.1266 H         1 EZB         0.1815
@<TRIPOS>BOND
     1    1    2 1  
     2    2    3 ar 
     3    2    7 ar 
     4    3    4 ar 
     5    3   10 1  
     6    4    5 ar 
     7    5    6 ar 
     8    6    7 ar 
     9    6   20 1  
    10    7    8 1  
    11    8   19 am 
    12    8   22 2  
    13   19    9 1  
    14    9   20 1  
    15   10   11 ar 
    16   10   15 ar 
    17   11   12 ar 
    18   12   13 ar 
    19   13   14 ar 
    20   14   15 ar 
    21   14   21 ar 
    22   15   16 ar 
    23   16   17 ar 
    24   17   18 ar 
    25   18   21 ar 
    26    1   23 1  
    27    1   24 1  
    28    1   25 1  
    29    4   26 1  
    30    5   27 1  
    31    9   28 1  
    32    9   29 1  
    33   11   30 1  
    34   12   31 1  
    35   13   32 1  
    36   16   33 1  
    37   17   34 1  
    38   18   35 1  
    39   19   36 1  
    40   20   37 1  
@<TRIPOS>SUBSTRUCTURE
     1 EZB         1

