### 
### Created by X-TOOL on Wed Jan  1 15:39:36 2020
### 

@<TRIPOS>MOLECULE
6gih_ligand
   32    34     1     0     0
SMALL
GAST_HUCK


@<TRIPOS>ATOM
      1 N1       -131.6530 -190.5420  303.8320 N.pl3     1 EZN        -0.2795
      2 C2       -134.1610 -186.5110  309.4000 C.ar      1 EZN        -0.0423
      3 C4       -132.6510 -187.5730  307.8500 C.ar      1 EZN        -0.0488
      4 C5       -133.5490 -187.3570  306.8040 C.ar      1 EZN        -0.0308
      5 C6       -134.7660 -186.7300  307.0890 C.ar      1 EZN        -0.0497
      6 C8       -133.4290 -186.8740  304.3460 C.ar      1 EZN        -0.0706
      7 C9       -133.1100 -187.2200  303.0390 C.ar      1 EZN        -0.0748
      8 C10      -132.5260 -188.4460  302.7550 C.ar      1 EZN        -0.0425
      9 C11      -132.2640 -189.3120  303.8140 C.ar      1 EZN         0.0646
     10 C12      -131.6120 -191.0050  305.1240 C.2       1 EZN         0.0221
     11 C13      -132.1810 -190.1020  305.9600 C.2       1 EZN        -0.0627
     12 CL       -131.8500 -187.4610  310.4190 Cl        1 EZN        -0.0727
     13 C3       -132.9690 -187.1500  309.1220 C.ar      1 EZN         0.0337
     14 C1       -135.0800 -186.3020  308.3740 C.ar      1 EZN         0.0010
     15 C        -136.3890 -185.6270  308.6370 C.3       1 EZN        -0.0019
     16 N        -137.0570 -186.0710  309.8350 N.4       1 EZN         0.2307
     17 C7       -133.1870 -187.7490  305.4120 C.ar      1 EZN        -0.0326
     18 C14      -132.5990 -188.9980  305.1440 C.ar      1 EZN        -0.0199
     19 H1       -131.2844 -191.0379  303.0079 H         1 EZN         0.2272
     20 H2       -134.3797 -186.1751  310.4072 H         1 EZN         0.0557
     21 H3       -131.7069 -188.0716  307.6625 H         1 EZN         0.0564
     22 H4       -135.4812 -186.5740  306.2895 H         1 EZN         0.0553
     23 H5       -133.8747 -185.9061  304.5448 H         1 EZN         0.0526
     24 H6       -133.3193 -186.5255  302.2334 H         1 EZN         0.0534
     25 H7       -132.2802 -188.7226  301.7361 H         1 EZN         0.0551
     26 H8       -131.1849 -191.9582  305.4321 H         1 EZN         0.0937
     27 H9       -132.2979 -190.1960  307.0386 H         1 EZN         0.0291
     28 H10      -137.0532 -185.8188  307.7814 H         1 EZN         0.0978
     29 H11      -136.2072 -184.5457  308.7250 H         1 EZN         0.0978
     30 H12      -137.9261 -185.5712  309.9400 H         1 EZN         0.2008
     31 H13      -136.4684 -185.8928  310.6336 H         1 EZN         0.2008
     32 H14      -137.2437 -187.0594  309.7690 H         1 EZN         0.2008
@<TRIPOS>BOND
     1    9    1 1  
     2    1   10 1  
     3   13    2 ar 
     4   14    2 ar 
     5    4    3 ar 
     6    3   13 ar 
     7    4    5 ar 
     8   17    4 1  
     9    5   14 ar 
    10    7    6 ar 
    11    6   17 ar 
    12    8    7 ar 
    13    8    9 ar 
    14    9   18 ar 
    15   10   11 2  
    16   11   18 1  
    17   13   12 1  
    18   14   15 1  
    19   15   16 1  
    20   17   18 ar 
    21    1   19 1  
    22    2   20 1  
    23    3   21 1  
    24    5   22 1  
    25    6   23 1  
    26    7   24 1  
    27    8   25 1  
    28   10   26 1  
    29   11   27 1  
    30   15   28 1  
    31   15   29 1  
    32   16   30 1  
    33   16   31 1  
    34   16   32 1  
@<TRIPOS>SUBSTRUCTURE
     1 EZN         1

