### 
### Created by X-TOOL on Wed Jan  1 15:39:35 2020
### 

@<TRIPOS>MOLECULE
6gin_ligand
   56    61     1     0     0
SMALL
GAST_HUCK


@<TRIPOS>ATOM
      1 C01       -68.0320  197.4380  140.8320 C.3       1 IR2         0.0606
      2 C02       -66.6880  197.4770  140.1180 C.3       1 IR2         0.0697
      3 C04       -67.2580  199.6860  139.4860 C.3       1 IR2         0.0697
      4 C05       -68.4170  199.7760  140.4580 C.3       1 IR2         0.0606
      5 C07       -68.3810  198.9300  142.7290 C.ar      1 IR2         0.0814
      6 C08       -68.6850  200.2040  143.2120 C.ar      1 IR2        -0.0100
      7 C09       -68.5400  200.4980  144.5600 C.ar      1 IR2        -0.0223
      8 C10       -68.1040  199.5160  145.4350 C.ar      1 IR2         0.0645
      9 C11       -67.7360  198.2620  144.9490 C.ar      1 IR2        -0.0223
     10 C12       -67.8970  197.9590  143.6030 C.ar      1 IR2        -0.0100
     11 C14       -67.4300  201.1890  146.9770 C.2       1 IR2         0.1761
     12 C16       -67.1630  200.8390  149.3760 C.ar      1 IR2         0.1387
     13 C17       -66.8140  201.3970  150.6470 C.ar      1 IR2        -0.0010
     14 C18       -66.8870  200.5740  151.7600 C.ar      1 IR2        -0.0332
     15 C19       -67.3080  199.2380  151.6260 C.ar      1 IR2         0.0129
     16 C20       -67.6330  198.7290  150.3600 C.ar      1 IR2        -0.0167
     17 C21       -67.5700  199.5450  149.2140 C.ar      1 IR2         0.1016
     18 C22       -67.9360  198.9960  147.8600 C.2       1 IR2         0.2240
     19 C24       -67.3520  198.4170  152.7640 C.ar      1 IR2         0.0228
     20 C25       -68.0290  198.8760  153.8830 C.ar      1 IR2        -0.0144
     21 C26       -68.0920  198.0970  155.0570 C.ar      1 IR2         0.0207
     22 C28       -66.7520  196.4000  153.9790 C.ar      1 IR2         0.0564
     23 C29       -66.0950  195.1240  154.0610 C.ar      1 IR2        -0.0335
     24 C30       -65.3870  194.5900  152.9810 C.ar      1 IR2        -0.0507
     25 C31       -65.2680  195.3200  151.7970 C.ar      1 IR2        -0.0509
     26 C32       -65.9050  196.5760  151.7460 C.ar      1 IR2        -0.0403
     27 C33       -66.6710  197.1290  152.8280 C.ar      1 IR2         0.0225
     28 N06       -68.5350  198.6660  141.3220 N.pl3     1 IR2        -0.2820
     29 N13       -67.8640  199.8650  146.7820 N.2       1 IR2        -0.2219
     30 N15       -67.0900  201.7070  148.2570 N.pl3     1 IR2        -0.1978
     31 N27       -67.4670  196.9020  155.0670 N.ar      1 IR2        -0.2853
     32 O03       -66.2300  198.7870  139.8830 O.3       1 IR2        -0.3754
     33 O23       -68.2890  197.8400  147.6720 O.2       1 IR2        -0.3542
     34 H1        -67.9331  196.7547  141.6883 H         1 IR2         0.0567
     35 H2        -68.7719  197.0350  140.1248 H         1 IR2         0.0567
     36 H3        -66.7891  196.9620  139.1513 H         1 IR2         0.0582
     37 H4        -65.9461  196.9518  140.7375 H         1 IR2         0.0582
     38 H5        -66.8175  200.6885  139.3813 H         1 IR2         0.0582
     39 H6        -67.6493  199.3539  138.5131 H         1 IR2         0.0582
     40 H7        -69.3477  199.8622  139.8781 H         1 IR2         0.0567
     41 H8        -68.2828  200.6785  141.0723 H         1 IR2         0.0567
     42 H9        -69.0368  200.9688  142.5291 H         1 IR2         0.0655
     43 H10       -68.7669  201.4923  144.9274 H         1 IR2         0.0730
     44 H11       -67.3229  197.5211  145.6238 H         1 IR2         0.0730
     45 H12       -67.6470  196.9708  143.2340 H         1 IR2         0.0655
     46 H13       -67.3511  201.8448  146.1112 H         1 IR2         0.1799
     47 H14       -66.5022  202.4313  150.7365 H         1 IR2         0.0691
     48 H15       -66.6190  200.9607  152.7366 H         1 IR2         0.0719
     49 H16       -67.9369  197.6931  150.2624 H         1 IR2         0.0754
     50 H17       -68.5154  199.8444  153.8555 H         1 IR2         0.0769
     51 H18       -68.6295  198.4500  155.9297 H         1 IR2         0.0886
     52 H19       -66.1503  194.5608  154.9856 H         1 IR2         0.0686
     53 H20       -64.9307  193.6101  153.0625 H         1 IR2         0.0669
     54 H21       -64.7085  194.9364  150.9515 H         1 IR2         0.0674
     55 H22       -65.8114  197.1590  150.8369 H         1 IR2         0.0685
     56 H23       -66.7979  202.6884  148.3686 H         1 IR2         0.2701
@<TRIPOS>BOND
     1    1    2 1  
     2   28    1 1  
     3    2   32 1  
     4    4    3 1  
     5    3   32 1  
     6   28    4 1  
     7    6    5 ar 
     8   10    5 ar 
     9    5   28 1  
    10    7    6 ar 
    11    8    7 ar 
    12    8    9 ar 
    13   29    8 1  
    14    9   10 ar 
    15   29   11 2  
    16   30   11 1  
    17   13   12 ar 
    18   17   12 ar 
    19   12   30 1  
    20   14   13 ar 
    21   15   14 ar 
    22   15   16 ar 
    23   19   15 1  
    24   16   17 ar 
    25   17   18 1  
    26   18   29 1  
    27   18   33 2  
    28   19   20 ar 
    29   27   19 ar 
    30   20   21 ar 
    31   21   31 ar 
    32   22   23 ar 
    33   22   27 ar 
    34   22   31 ar 
    35   23   24 ar 
    36   24   25 ar 
    37   25   26 ar 
    38   26   27 ar 
    39    1   34 1  
    40    1   35 1  
    41    2   36 1  
    42    2   37 1  
    43    3   38 1  
    44    3   39 1  
    45    4   40 1  
    46    4   41 1  
    47    6   42 1  
    48    7   43 1  
    49    9   44 1  
    50   10   45 1  
    51   11   46 1  
    52   13   47 1  
    53   14   48 1  
    54   16   49 1  
    55   20   50 1  
    56   21   51 1  
    57   23   52 1  
    58   24   53 1  
    59   25   54 1  
    60   26   55 1  
    61   30   56 1  
@<TRIPOS>SUBSTRUCTURE
     1 IR2         1

