### 
### Created by X-TOOL on Wed Jan  1 15:39:37 2020
### 

@<TRIPOS>MOLECULE
6gip_ligand
   40    43     1     0     0
SMALL
GAST_HUCK


@<TRIPOS>ATOM
      1 C21       -42.7620    7.1160  -12.4470 C.3       1 EUN        -0.0268
      2 C20       -41.9440    5.8440  -12.4650 C.ar      1 EUN        -0.0210
      3 C10       -40.1000    6.9610  -11.2870 C.ar      1 EUN        -0.0018
      4 C11       -38.9790    7.5150  -11.8830 C.ar      1 EUN        -0.0321
      5 C12       -38.3820    8.6640  -11.3480 C.ar      1 EUN         0.0027
      6 C14       -40.0370    8.7180   -9.6370 C.ar      1 EUN         0.0406
      7 C15       -40.5520    9.3690   -8.4830 C.ar      1 EUN        -0.0416
      8 C16       -41.6730    8.8680   -7.8350 C.ar      1 EUN        -0.0573
      9 C19       -40.6350    7.5940  -10.1170 C.ar      1 EUN         0.0093
     10 C17       -42.2890    7.7210   -8.3250 C.ar      1 EUN        -0.0572
     11 C18       -41.7820    7.0840   -9.4590 C.ar      1 EUN        -0.0472
     12 C01       -43.8540    0.9190  -14.9180 C.3       1 EUN        -0.0206
     13 C02       -43.4290    2.2250  -14.3030 C.3       1 EUN         0.1189
     14 C04       -43.8410    4.5890  -13.7370 C.2       1 EUN         0.1948
     15 C05       -42.4740    4.6590  -13.0830 C.ar      1 EUN         0.0739
     16 C06       -41.7050    3.5350  -13.0850 C.ar      1 EUN         0.0599
     17 C07       -40.4170    3.5370  -12.4930 C.ar      1 EUN        -0.0392
     18 C08       -39.9020    4.6730  -11.9110 C.ar      1 EUN        -0.0608
     19 C09       -40.6590    5.8280  -11.8780 C.ar      1 EUN        -0.0088
     20 N03       -44.2680    3.3800  -14.3230 N.am      1 EUN        -0.2666
     21 N13       -38.9110    9.2400  -10.2520 N.ar      1 EUN        -0.3044
     22 N22       -42.1500    2.2900  -13.6870 N.pl3     1 EUN        -0.2945
     23 O23       -44.5770    5.5600  -13.7590 O.2       1 EUN        -0.3957
     24 H1        -43.7261    6.9390  -12.9461 H         1 EUN         0.0417
     25 H2        -42.2158    7.9108  -12.9761 H         1 EUN         0.0417
     26 H3        -42.9391    7.4234  -11.4058 H         1 EUN         0.0417
     27 H4        -38.5601    7.0556  -12.7710 H         1 EUN         0.0648
     28 H5        -37.4992    9.0869  -11.8138 H         1 EUN         0.0839
     29 H6        -40.0665   10.2621   -8.1066 H         1 EUN         0.0632
     30 H7        -42.0646    9.3660   -6.9554 H         1 EUN         0.0648
     31 H8        -43.1641    7.3212   -7.8255 H         1 EUN         0.0631
     32 H9        -42.2689    6.1931   -9.8389 H         1 EUN         0.0651
     33 H10       -44.8593    1.0277  -15.3511 H         1 EUN         0.0272
     34 H11       -43.8708    0.1375  -14.1441 H         1 EUN         0.0272
     35 H12       -43.1427    0.6372  -15.7084 H         1 EUN         0.0272
     36 H13       -42.9915    2.5348  -15.2635 H         1 EUN         0.0822
     37 H14       -39.8271    2.6276  -12.4988 H         1 EUN         0.0492
     38 H15       -38.9072    4.6614  -11.4806 H         1 EUN         0.0638
     39 H16       -45.1676    3.3309  -14.7570 H         1 EUN         0.1860
     40 H17       -41.5418    1.4589  -13.6675 H         1 EUN         0.1825
@<TRIPOS>BOND
     1    2    1 1  
     2   15    2 ar 
     3    2   19 ar 
     4    3    4 ar 
     5    3    9 ar 
     6   19    3 1  
     7    4    5 ar 
     8    5   21 ar 
     9    6    7 ar 
    10    9    6 ar 
    11    6   21 ar 
    12    7    8 ar 
    13   10    8 ar 
    14    9   11 ar 
    15   11   10 ar 
    16   13   12 1  
    17   20   13 1  
    18   13   22 1  
    19   14   15 1  
    20   14   20 am 
    21   14   23 2  
    22   15   16 ar 
    23   16   17 ar 
    24   16   22 1  
    25   17   18 ar 
    26   18   19 ar 
    27    1   24 1  
    28    1   25 1  
    29    1   26 1  
    30    4   27 1  
    31    5   28 1  
    32    7   29 1  
    33    8   30 1  
    34   10   31 1  
    35   11   32 1  
    36   12   33 1  
    37   12   34 1  
    38   12   35 1  
    39   13   36 1  
    40   17   37 1  
    41   18   38 1  
    42   20   39 1  
    43   22   40 1  
@<TRIPOS>SUBSTRUCTURE
     1 EUN         1

