### 
### Created by X-TOOL on Mon Aug  2 16:10:46 2021
### 

@<TRIPOS>MOLECULE
6gj5_ligand
   44    48     1     0     0
SMALL
GAST_HUCK


@<TRIPOS>ATOM
      1 N1        -21.7010  -26.0070  -14.2440 N.pl3     1 F0N        -0.2763
      2 C4        -20.5180  -26.0190  -21.0690 C.ar      1 F0N        -0.0486
      3 C5        -19.1370  -26.0550  -20.8850 C.ar      1 F0N        -0.0632
      4 C6        -18.5500  -26.4950  -19.6920 C.ar      1 F0N        -0.0643
      5 C7        -19.3180  -26.9220  -18.6060 C.ar      1 F0N        -0.0517
      6 C8        -21.6830  -26.5800  -16.4700 C.2       1 F0N        -0.0053
      7 C10       -21.5450  -24.8390  -14.9120 C.ar      1 F0N         0.0565
      8 C13       -21.2570  -22.7770  -16.8070 C.ar      1 F0N        -0.0830
      9 C15       -21.5290  -25.1090  -16.3690 C.ar      1 F0N        -0.0274
     10 C17       -20.9130  -28.9320  -13.6820 C.3       1 F0N         0.0068
     11 N         -23.0110  -27.0460  -18.4690 N.am      1 F0N        -0.2690
     12 C         -22.7290  -26.5770  -19.7060 C.2       1 F0N         0.2031
     13 O         -23.6400  -26.2770  -20.5610 O.2       1 F0N        -0.3884
     14 C1        -21.7220  -27.2840  -17.7850 C.3       1 F0N         0.0899
     15 C11       -21.4130  -23.5190  -14.4870 C.ar      1 F0N        -0.0481
     16 C12       -21.2740  -22.5050  -15.4360 C.ar      1 F0N        -0.0802
     17 C14       -21.3850  -24.0800  -17.2910 C.ar      1 F0N        -0.0796
     18 C16       -21.9630  -28.4840  -14.6780 C.3       1 F0N         0.0306
     19 C18       -21.6290  -29.9600  -12.8160 C.3       1 F0N        -0.0055
     20 C19       -23.1170  -29.6580  -12.9410 C.3       1 F0N        -0.0316
     21 C2        -20.6910  -26.8890  -18.7460 C.ar      1 F0N         0.0051
     22 C3        -21.2860  -26.4360  -20.0010 C.ar      1 F0N         0.0541
     23 C9        -21.7790  -27.0720  -15.0780 C.2       1 F0N         0.0913
     24 N2        -23.2670  -28.6320  -13.9960 N.4       1 F0N         0.2427
     25 H1        -21.7543  -26.0776  -13.2178 H         1 F0N         0.2221
     26 H2        -20.9635  -25.6826  -21.9982 H         1 F0N         0.0650
     27 H3        -18.4937  -25.7306  -21.6949 H         1 F0N         0.0570
     28 H4        -17.4692  -26.5045  -19.6090 H         1 F0N         0.0634
     29 H5        -18.8538  -27.2660  -17.6888 H         1 F0N         0.0569
     30 H6        -21.1420  -21.9590  -17.5090 H         1 F0N         0.0500
     31 H7        -20.5663  -28.0838  -13.0734 H         1 F0N         0.0345
     32 H8        -20.0553  -29.3875  -14.1986 H         1 F0N         0.0345
     33 H9        -23.9222  -27.2027  -18.0879 H         1 F0N         0.1888
     34 H10       -21.6112  -28.3596  -17.5829 H         1 F0N         0.0789
     35 H11       -21.4182  -23.2816  -13.4293 H         1 F0N         0.0531
     36 H12       -21.1766  -21.4788  -15.1008 H         1 F0N         0.0502
     37 H13       -21.3724  -24.2831  -18.3557 H         1 F0N         0.0510
     38 H14       -21.9244  -29.1220  -15.5733 H         1 F0N         0.1035
     39 H15       -21.3076  -29.8663  -11.7682 H         1 F0N         0.0320
     40 H16       -21.4148  -30.9772  -13.1757 H         1 F0N         0.0320
     41 H17       -23.5058  -29.2759  -11.9856 H         1 F0N         0.0814
     42 H18       -23.6646  -30.5699  -13.2214 H         1 F0N         0.0814
     43 H19       -23.9686  -28.9228  -14.6587 H         1 F0N         0.2031
     44 H20       -23.5386  -27.7536  -13.5828 H         1 F0N         0.2031
@<TRIPOS>BOND
     1    1    7 1  
     2   23    1 1  
     3    3    2 ar 
     4   22    2 ar 
     5    4    3 ar 
     6    5    4 ar 
     7   21    5 ar 
     8    6    9 1  
     9    6   14 1  
    10   23    6 2  
    11    9    7 ar 
    12    7   15 ar 
    13    8   16 ar 
    14   17    8 ar 
    15    9   17 ar 
    16   18   10 1  
    17   10   19 1  
    18   11   12 am 
    19   14   11 1  
    20   12   13 2  
    21   12   22 1  
    22   14   21 1  
    23   15   16 ar 
    24   18   23 1  
    25   18   24 1  
    26   19   20 1  
    27   20   24 1  
    28   21   22 ar 
    29    1   25 1  
    30    2   26 1  
    31    3   27 1  
    32    4   28 1  
    33    5   29 1  
    34    8   30 1  
    35   10   31 1  
    36   10   32 1  
    37   11   33 1  
    38   14   34 1  
    39   15   35 1  
    40   16   36 1  
    41   17   37 1  
    42   18   38 1  
    43   19   39 1  
    44   19   40 1  
    45   20   41 1  
    46   20   42 1  
    47   24   43 1  
    48   24   44 1  
@<TRIPOS>SUBSTRUCTURE
     1 F0N         1

