### 
### Created by X-TOOL on Mon Aug  2 16:10:46 2021
### 

@<TRIPOS>MOLECULE
6gj6_ligand
   44    47     1     0     0
SMALL
GAST_HUCK


@<TRIPOS>ATOM
      1 C4         20.5990   31.9840   11.6360 C.ar      1 EZZ        -0.0234
      2 C5         19.9470   31.1740   12.5600 C.ar      1 EZZ        -0.0036
      3 C6         20.1440   29.8050   12.5350 C.ar      1 EZZ         0.0429
      4 C7         18.9880   31.5250   13.6560 C.3       1 EZZ         0.0873
      5 C15        16.7010   31.6650   12.3390 C.ar      1 EZZ        -0.0274
      6 C17        14.5540   32.4410   11.4490 C.ar      1 EZZ        -0.0481
      7 C20        17.9740   34.4650   14.4520 C.3       1 EZZ         0.0209
      8 C24        17.2300   33.4110   16.4970 C.3       1 EZZ        -0.0419
      9 C1         20.9540   29.2180   11.5640 C.ar      1 EZZ        -0.0567
     10 C11        17.7330   32.2300   13.1760 C.2       1 EZZ        -0.0058
     11 C12        17.3250   33.4890   13.5160 C.2       1 EZZ         0.0882
     12 C14        15.6990   32.6490   12.2150 C.ar      1 EZZ         0.0565
     13 C16        16.5330   30.4530   11.6690 C.ar      1 EZZ        -0.0796
     14 C18        14.4130   31.2220   10.7940 C.ar      1 EZZ        -0.0802
     15 C19        15.3800   30.2310   10.9200 C.ar      1 EZZ        -0.0830
     16 C2         21.5860   30.0220   10.6300 C.ar      1 EZZ        -0.0341
     17 C23        17.8050   35.7400   16.4900 C.3       1 EZZ        -0.0419
     18 C3         21.4080   31.4020   10.6690 C.ar      1 EZZ         0.0864
     19 C9         19.3520   29.2020   13.6250 C.2       1 EZZ         0.1952
     20 N13        16.0980   33.7520   12.9480 N.pl3     1 EZZ        -0.2765
     21 N21        17.2360   34.6460   15.7070 N.4       1 EZZ         0.2443
     22 N8         18.7120   30.2150   14.2340 N.am      1 EZZ        -0.2707
     23 O10        19.2560   28.0130   13.9090 O.2       1 EZZ        -0.3934
     24 O22        22.0560   32.2080    9.7940 O.3       1 EZZ        -0.3315
     25 H1         20.4766   33.0605   11.6705 H         1 EZZ         0.0491
     26 H2         19.4798   32.1741   14.3955 H         1 EZZ         0.0786
     27 H3         13.7932   33.2087   11.3657 H         1 EZZ         0.0531
     28 H4         18.0456   35.4390   13.9459 H         1 EZZ         0.0999
     29 H5         18.9841   34.1006   14.6907 H         1 EZZ         0.0999
     30 H6         16.6712   33.5754   17.4301 H         1 EZZ         0.0778
     31 H7         18.2646   33.1230   16.7351 H         1 EZZ         0.0778
     32 H8         16.7497   32.6080   15.9186 H         1 EZZ         0.0778
     33 H9         21.0879   28.1426   11.5402 H         1 EZZ         0.0625
     34 H10        17.2972   29.6867   11.7311 H         1 EZZ         0.0510
     35 H11        13.5391   31.0426   10.1782 H         1 EZZ         0.0502
     36 H12        15.2349   29.2751   10.4299 H         1 EZZ         0.0500
     37 H13        22.2182   29.5774    9.8699 H         1 EZZ         0.0501
     38 H14        17.8045   36.6607   15.8880 H         1 EZZ         0.0778
     39 H15        18.8373   35.4888   16.7749 H         1 EZZ         0.0778
     40 H16        17.2016   35.8945   17.3967 H         1 EZZ         0.0778
     41 H17        15.5648   34.6271   13.0521 H         1 EZZ         0.2221
     42 H18        16.2825   34.8810   15.4797 H         1 EZZ         0.2043
     43 H19        18.1008   30.0821   15.0142 H         1 EZZ         0.1884
     44 H20        21.8191   33.1124    9.9631 H         1 EZZ         0.2499
@<TRIPOS>BOND
     1    2    1 ar 
     2    1   18 ar 
     3    2    3 ar 
     4    4    2 1  
     5    3    9 ar 
     6    3   19 1  
     7   10    4 1  
     8    4   22 1  
     9   10    5 1  
    10    5   12 ar 
    11    5   13 ar 
    12   12    6 ar 
    13    6   14 ar 
    14   11    7 1  
    15    7   21 1  
    16   21    8 1  
    17    9   16 ar 
    18   10   11 2  
    19   11   20 1  
    20   12   20 1  
    21   13   15 ar 
    22   14   15 ar 
    23   16   18 ar 
    24   21   17 1  
    25   18   24 1  
    26   19   22 am 
    27   19   23 2  
    28    1   25 1  
    29    4   26 1  
    30    6   27 1  
    31    7   28 1  
    32    7   29 1  
    33    8   30 1  
    34    8   31 1  
    35    8   32 1  
    36    9   33 1  
    37   13   34 1  
    38   14   35 1  
    39   15   36 1  
    40   16   37 1  
    41   17   38 1  
    42   17   39 1  
    43   17   40 1  
    44   20   41 1  
    45   21   42 1  
    46   22   43 1  
    47   24   44 1  
@<TRIPOS>SUBSTRUCTURE
     1 EZZ         1

