### 
### Created by X-TOOL on Mon Aug  2 16:10:46 2021
### 

@<TRIPOS>MOLECULE
6gj7_ligand
   68    74     1     0     0
SMALL
GAST_HUCK


@<TRIPOS>ATOM
      1 C4         10.1490   12.8600  -19.7900 C.ar      1 F0B        -0.0341
      2 C5         10.4290   14.1050  -19.2160 C.ar      1 F0B         0.0864
      3 C6         11.6490   14.7390  -19.4600 C.ar      1 F0B        -0.0234
      4 C8         13.4550   12.4680  -21.6670 C.2       1 F0B         0.1952
      5 C10        12.5920   14.1230  -20.2610 C.ar      1 F0B        -0.0036
      6 C15        15.0050   14.7720  -19.6750 C.2       1 F0B        -0.0058
      7 C17        15.1800   14.0740  -18.3910 C.ar      1 F0B        -0.0274
      8 C20        16.0630   13.1740  -15.8980 C.ar      1 F0B        -0.0802
      9 C21        16.7440   14.2060  -16.5170 C.ar      1 F0B        -0.0481
     10 C24        16.1680   18.6370  -25.6570 C.ar      1 F0B        -0.0329
     11 C26        17.7940   17.1980  -24.6450 C.ar      1 F0B        -0.0704
     12 C28        16.6320   18.8140  -23.2840 C.ar      1 F0B        -0.0374
     13 C11        13.9660   14.5120  -20.7550 C.3       1 F0B         0.0873
     14 C12        16.2540   16.6290  -20.8940 C.3       1 F0B         0.0210
     15 C14        15.9890   15.6900  -19.7420 C.2       1 F0B         0.0882
     16 C16        16.3070   14.6670  -17.7660 C.ar      1 F0B         0.0565
     17 C18        14.5120   13.0290  -17.7410 C.ar      1 F0B        -0.0796
     18 C19        14.9410   12.5970  -16.5080 C.ar      1 F0B        -0.0830
     19 C23        15.9310   19.2460  -24.4030 C.ar      1 F0B         0.0612
     20 C25        17.1140   17.6030  -25.7660 C.ar      1 F0B        -0.0791
     21 C27        17.5630   17.8040  -23.4060 C.ar      1 F0B        -0.0124
     22 C29        18.2760   17.3350  -22.1630 C.3       1 F0B        -0.0035
     23 C3         11.0820   12.2350  -20.5920 C.ar      1 F0B        -0.0567
     24 C30        15.2770   19.3230  -26.5960 C.2       1 F0B        -0.0676
     25 C31        14.6000   20.2540  -25.8970 C.2       1 F0B         0.0230
     26 C33        14.3910   21.0180  -23.4910 C.3       1 F0B         0.0846
     27 C34        13.5950   20.1910  -22.4940 C.ar      1 F0B        -0.0143
     28 C35        13.4970   20.6140  -21.1710 C.ar      1 F0B        -0.0578
     29 C36        12.7570   19.8830  -20.2440 C.ar      1 F0B        -0.0685
     30 C37        12.0930   18.7250  -20.6320 C.ar      1 F0B        -0.0687
     31 C38        12.1670   18.3070  -21.9540 C.ar      1 F0B        -0.0685
     32 C39        12.9110   19.0400  -22.8790 C.ar      1 F0B        -0.0578
     33 C9         12.3040   12.8730  -20.8490 C.ar      1 F0B         0.0429
     34 N13        16.7730   15.6290  -18.6230 N.pl3     1 F0B        -0.2765
     35 N22        17.5230   16.2300  -21.5340 N.4       1 F0B         0.2515
     36 N32        14.9620   20.2040  -24.5770 N.pl3     1 F0B        -0.2576
     37 N7         14.4080   13.4130  -21.6130 N.am      1 F0B        -0.2707
     38 O1          9.5070   14.6770  -18.4030 O.3       1 F0B        -0.3315
     39 O2         13.5290   11.4280  -22.2990 O.2       1 F0B        -0.3934
     40 H1          9.1933   12.3835  -19.6035 H         1 F0B         0.0501
     41 H2         11.8555   15.7095  -19.0234 H         1 F0B         0.0491
     42 H3         16.3993   12.8088  -14.9344 H         1 F0B         0.0502
     43 H4         17.6082   14.6544  -16.0403 H         1 F0B         0.0531
     44 H5         18.5205   16.3970  -24.7209 H         1 F0B         0.0474
     45 H6         16.4477   19.2695  -22.3178 H         1 F0B         0.0472
     46 H7         13.8715   15.4304  -21.3530 H         1 F0B         0.0786
     47 H8         16.3334   17.6611  -20.5220 H         1 F0B         0.0999
     48 H9         15.4331   16.5642  -21.6233 H         1 F0B         0.0999
     49 H10        13.6551   12.5597  -18.2106 H         1 F0B         0.0510
     50 H11        14.4055   11.8016  -16.0024 H         1 F0B         0.0500
     51 H12        17.3039   17.1315  -26.7234 H         1 F0B         0.0528
     52 H13        18.3573   18.1708  -21.4526 H         1 F0B         0.0965
     53 H14        19.2828   16.9828  -22.4317 H         1 F0B         0.0965
     54 H15        10.8724   11.2609  -21.0189 H         1 F0B         0.0625
     55 H16        15.1801   19.1182  -27.6612 H         1 F0B         0.0276
     56 H17        13.8718   20.9450  -26.3192 H         1 F0B         0.0909
     57 H18        15.2124   21.5182  -22.9570 H         1 F0B         0.0765
     58 H19        13.7253   21.7749  -23.9313 H         1 F0B         0.0765
     59 H20        14.0016   21.5213  -20.8591 H         1 F0B         0.0557
     60 H21        12.6988   20.2190  -19.2150 H         1 F0B         0.0599
     61 H22        11.5225   18.1534  -19.9089 H         1 F0B         0.0559
     62 H23        11.6459   17.4098  -22.2679 H         1 F0B         0.0599
     63 H24        12.9574   18.7097  -23.9104 H         1 F0B         0.0557
     64 H25        17.5969   16.2222  -18.4492 H         1 F0B         0.2221
     65 H26        17.3138   15.5482  -22.2463 H         1 F0B         0.2042
     66 H27        18.1107   15.8112  -20.8302 H         1 F0B         0.2042
     67 H28        15.2871   13.3714  -22.0878 H         1 F0B         0.1884
     68 H29         8.7427   14.1154  -18.3484 H         1 F0B         0.2499
@<TRIPOS>BOND
     1    2    1 ar 
     2   23    1 ar 
     3    3    2 ar 
     4    2   38 1  
     5    5    3 ar 
     6    4   33 1  
     7   37    4 am 
     8    4   39 2  
     9   13    5 1  
    10    5   33 ar 
    11    6    7 1  
    12    6   13 1  
    13   15    6 2  
    14   16    7 ar 
    15    7   17 ar 
    16    9    8 ar 
    17    8   18 ar 
    18   16    9 ar 
    19   19   10 ar 
    20   10   20 ar 
    21   24   10 1  
    22   20   11 ar 
    23   21   11 ar 
    24   19   12 ar 
    25   12   21 ar 
    26   13   37 1  
    27   14   15 1  
    28   35   14 1  
    29   15   34 1  
    30   34   16 1  
    31   17   18 ar 
    32   36   19 1  
    33   21   22 1  
    34   22   35 1  
    35   33   23 ar 
    36   25   24 2  
    37   36   25 1  
    38   26   27 1  
    39   26   36 1  
    40   27   28 ar 
    41   27   32 ar 
    42   28   29 ar 
    43   29   30 ar 
    44   30   31 ar 
    45   31   32 ar 
    46    1   40 1  
    47    3   41 1  
    48    8   42 1  
    49    9   43 1  
    50   11   44 1  
    51   12   45 1  
    52   13   46 1  
    53   14   47 1  
    54   14   48 1  
    55   17   49 1  
    56   18   50 1  
    57   20   51 1  
    58   22   52 1  
    59   22   53 1  
    60   23   54 1  
    61   24   55 1  
    62   25   56 1  
    63   26   57 1  
    64   26   58 1  
    65   28   59 1  
    66   29   60 1  
    67   30   61 1  
    68   31   62 1  
    69   32   63 1  
    70   34   64 1  
    71   35   65 1  
    72   35   66 1  
    73   37   67 1  
    74   38   68 1  
@<TRIPOS>SUBSTRUCTURE
     1 F0B         1

