### 
### Created by X-TOOL on Mon Aug  2 16:13:31 2021
### 

@<TRIPOS>MOLECULE
6gjb_ligand
   81    85     1     0     0
SMALL
GAST_HUCK


@<TRIPOS>ATOM
      1 C2          3.8450    9.2350   43.0490 C.3       1 F0H         0.0865
      2 C3          4.2130    8.5230   44.3590 C.3       1 F0H         0.1359
      3 C5          2.7160    9.0860   46.2950 C.ar      1 F0H        -0.0605
      4 C6          2.3500    9.8560   47.3850 C.ar      1 F0H        -0.0562
      5 C7          3.1260   10.9400   47.7470 C.ar      1 F0H         0.0659
      6 C11         4.6280   10.4940   45.9310 C.ar      1 F0H        -0.0231
      7 C13         6.6250    8.7620   43.6810 C.2       1 F0H         0.0676
      8 C14         7.9210    8.3230   43.6590 C.2       1 F0H        -0.0325
      9 C15         8.2880    7.1660   44.3420 C.2       1 F0H        -0.0118
     10 C16         7.2990    6.4530   44.9940 C.2       1 F0H         0.0021
     11 C19         9.6880    6.6710   44.2860 C.ar      1 F0H         0.0555
     12 C21        11.3930    5.0920   44.7390 C.ar      1 F0H         0.0169
     13 C23        11.8150    6.9380   43.4730 C.ar      1 F0H         0.2153
     14 C25        12.5650    8.8260   41.9360 C.ar      1 F0H         0.0858
     15 C26        11.4310    9.2030   41.2190 C.ar      1 F0H        -0.0113
     16 C27        11.4740   10.3400   40.4290 C.ar      1 F0H        -0.0015
     17 C31        15.8300   12.2190   40.7590 C.1       1 F0H        -0.0884
     18 C35        20.6600   12.1250   40.6220 C.2       1 F0H         0.3198
     19 C38        22.9860   12.3480   41.2750 C.3       1 F0H         0.0898
     20 C39        23.6000   13.0540   42.4990 C.3       1 F0H        -0.0206
     21 C40        25.0960   13.3820   42.4630 C.3       1 F0H        -0.0438
     22 C42        25.9530   14.8140   40.5360 C.2       1 F0H        -0.0987
     23 C43        25.2480   14.4920   39.4660 C.2       1 F0H        -0.0986
     24 O1          4.3410    8.5380   41.9120 O.3       1 F0H        -0.3897
     25 C4          3.8660    9.3840   45.5630 C.ar      1 F0H        -0.0070
     26 CL8         2.6430   11.8980   49.1100 Cl        1 F0H        -0.0785
     27 C9          4.2560   11.2490   47.0190 C.ar      1 F0H         0.1401
     28 F10         4.9970   12.3210   47.3930 F         1 F0H        -0.1844
     29 N12         5.6430    8.0680   44.3530 N.am      1 F0H        -0.1919
     30 C17         5.9350    6.8690   45.0340 C.2       1 F0H         0.2049
     31 O18         5.0230    6.2750   45.6390 O.2       1 F0H        -0.4197
     32 C20        10.0870    5.4830   44.8740 C.ar      1 F0H        -0.0138
     33 N22        12.2880    5.8090   44.0430 N.ar      1 F0H        -0.2488
     34 N24        12.6930    7.6780   42.7510 N.pl3     1 F0H        -0.2331
     35 N28        12.5720   11.1070   40.3040 N.ar      1 F0H        -0.3002
     36 C29        13.6710   10.7310   40.9920 C.ar      1 F0H         0.0831
     37 C30        14.8480   11.5470   40.8630 C.1       1 F0H        -0.0494
     38 C32        17.0360   13.0420   40.6320 C.3       1 F0H         0.0319
     39 C33        18.2460   12.2310   40.1790 C.3       1 F0H         0.0441
     40 N34        19.4960   12.7910   40.6690 N.am      1 F0H        -0.2616
     41 O36        20.8110   11.0110   40.1580 O.2       1 F0H        -0.3775
     42 O37        21.6310   12.8850   41.1650 O.3       1 F0H        -0.2605
     43 C41        25.4810   14.7750   41.9580 C.3       1 F0H        -0.0364
     44 C44        23.8290   14.0100   39.4510 C.3       1 F0H        -0.0338
     45 C45        23.6570   12.5600   39.9080 C.3       1 F0H        -0.0157
     46 C46        13.7050    9.6070   41.8040 C.ar      1 F0H         0.0036
     47 N47        10.5540    7.4020   43.5710 N.ar      1 F0H        -0.2436
     48 H1          4.2744   10.2476   43.0612 H         1 F0H         0.0613
     49 H2          2.7495    9.3021   42.9756 H         1 F0H         0.0613
     50 H3          3.5915    7.6177   44.4235 H         1 F0H         0.0867
     51 H4          2.1017    8.2408   46.0062 H         1 F0H         0.0524
     52 H5          1.4593    9.6099   47.9517 H         1 F0H         0.0596
     53 H6          5.5107   10.7604   45.3609 H         1 F0H         0.0543
     54 H7          6.3644    9.6798   43.1559 H         1 F0H         0.1222
     55 H8          8.6715    8.8829   43.1029 H         1 F0H         0.0362
     56 H9          7.5744    5.5296   45.5013 H         1 F0H         0.0482
     57 H10        11.7145    4.1708   45.2112 H         1 F0H         0.0898
     58 H11        10.5241    8.6122   41.2789 H         1 F0H         0.0626
     59 H12        10.5804   10.6253   39.8857 H         1 F0H         0.0786
     60 H13        22.9595   11.2670   41.4769 H         1 F0H         0.0649
     61 H14        23.4279   12.4061   43.3711 H         1 F0H         0.0295
     62 H15        23.0601   14.0027   42.6347 H         1 F0H         0.0295
     63 H16        25.5838   12.6437   41.8096 H         1 F0H         0.0286
     64 H17        25.4848   13.2791   43.4868 H         1 F0H         0.0286
     65 H18        26.9784   15.1400   40.3681 H         1 F0H         0.0450
     66 H19        25.7460   14.5859   38.5021 H         1 F0H         0.0450
     67 H20         4.0950    9.0061   41.1228 H         1 F0H         0.2098
     68 H21         9.3815    4.8754   45.4291 H         1 F0H         0.0695
     69 H22        13.6602    7.3287   42.8089 H         1 F0H         0.2215
     70 H23        17.2596   13.4949   41.6092 H         1 F0H         0.0423
     71 H24        16.8463   13.8359   39.8947 H         1 F0H         0.0423
     72 H25        18.2713   12.2161   39.0794 H         1 F0H         0.0529
     73 H26        18.1457   11.2031   40.5575 H         1 F0H         0.0529
     74 H27        19.4875   13.7123   41.0578 H         1 F0H         0.1867
     75 H28        26.2878   15.1613   42.5981 H         1 F0H         0.0388
     76 H29        24.5996   15.4274   42.0451 H         1 F0H         0.0388
     77 H30        23.4457   14.0961   38.4235 H         1 F0H         0.0389
     78 H31        23.2380   14.6548   40.1181 H         1 F0H         0.0389
     79 H32        23.0485   12.0413   39.1526 H         1 F0H         0.0313
     80 H33        24.6563   12.1023   39.9513 H         1 F0H         0.0313
     81 H34        14.6141    9.3407   42.3310 H         1 F0H         0.0636
@<TRIPOS>BOND
     1    2    1 1  
     2    1   24 1  
     3    2   25 1  
     4   29    2 1  
     5    3    4 ar 
     6   25    3 ar 
     7    4    5 ar 
     8    5   26 1  
     9   27    5 ar 
    10   25    6 ar 
    11    6   27 ar 
    12    8    7 2  
    13    7   29 1  
    14    9    8 1  
    15    9   10 2  
    16   11    9 1  
    17   10   30 1  
    18   11   32 ar 
    19   47   11 ar 
    20   12   32 ar 
    21   33   12 ar 
    22   13   33 ar 
    23   34   13 1  
    24   13   47 ar 
    25   14   15 ar 
    26   14   34 1  
    27   46   14 ar 
    28   16   15 ar 
    29   35   16 ar 
    30   17   37 3  
    31   38   17 1  
    32   40   18 am 
    33   18   41 2  
    34   18   42 1  
    35   19   20 1  
    36   42   19 1  
    37   19   45 1  
    38   20   21 1  
    39   21   43 1  
    40   22   23 2  
    41   43   22 1  
    42   23   44 1  
    43   27   28 1  
    44   30   29 am 
    45   30   31 2  
    46   36   35 ar 
    47   37   36 1  
    48   36   46 ar 
    49   39   38 1  
    50   39   40 1  
    51   44   45 1  
    52    1   48 1  
    53    1   49 1  
    54    2   50 1  
    55    3   51 1  
    56    4   52 1  
    57    6   53 1  
    58    7   54 1  
    59    8   55 1  
    60   10   56 1  
    61   12   57 1  
    62   15   58 1  
    63   16   59 1  
    64   19   60 1  
    65   20   61 1  
    66   20   62 1  
    67   21   63 1  
    68   21   64 1  
    69   22   65 1  
    70   23   66 1  
    71   24   67 1  
    72   32   68 1  
    73   34   69 1  
    74   38   70 1  
    75   38   71 1  
    76   39   72 1  
    77   39   73 1  
    78   40   74 1  
    79   43   75 1  
    80   43   76 1  
    81   44   77 1  
    82   44   78 1  
    83   45   79 1  
    84   45   80 1  
    85   46   81 1  
@<TRIPOS>SUBSTRUCTURE
     1 F0H         1

