### 
### Created by X-TOOL on Mon Aug  2 16:13:31 2021
### 

@<TRIPOS>MOLECULE
6gjd_ligand
  118   125     1     0     0
SMALL
GAST_HUCK


@<TRIPOS>ATOM
      1 C10        22.0340    6.7130   44.8070 C.3       1 F0E        -0.0223
      2 C11        23.5230    6.4070   45.0000 C.3       1 F0E        -0.0504
      3 C12        23.9570    4.9610   44.7620 C.3       1 F0E        -0.0530
      4 C13        23.7340    4.4930   43.3560 C.3       1 F0E        -0.0531
      5 C14        22.5620    4.3700   42.7600 C.3       1 F0E        -0.0530
      6 C15        21.8920    5.3900   41.8880 C.3       1 F0E        -0.0504
      7 C16        22.2150    6.8530   42.2040 C.3       1 F0E        -0.0223
      8 O01         2.4970    6.9540   49.1750 O.2       1 F0E        -0.3910
      9 C02         1.5140    6.8060   48.4540 C.2       1 F0E         0.2241
     10 C03         1.6940    6.8400   46.9500 C.3       1 F0E         0.0582
     11 N04         3.0390    7.2210   46.5290 N.4       1 F0E         0.2540
     12 C05         3.3550    8.6390   46.6860 C.3       1 F0E        -0.0273
     13 C06         4.6120    8.8400   45.8380 C.3       1 F0E         0.0126
     14 C07         4.5740    7.6960   44.8180 C.3       1 F0E         0.0985
     15 C08         3.2630    6.9730   45.1000 C.3       1 F0E        -0.0095
     16 C09         5.7950    6.7950   44.9500 C.2       1 F0E         0.2094
     17 O0A         5.6970    5.6690   45.4150 O.2       1 F0E        -0.3857
     18 N0B         6.9460    7.3410   44.5260 N.am      1 F0E        -0.2393
     19 C0C         8.2340    6.7680   44.5270 C.ar      1 F0E         0.0559
     20 C0D         8.5210    5.6550   45.3110 C.ar      1 F0E        -0.0452
     21 C0E         9.7820    5.0970   45.2750 C.ar      1 F0E        -0.0423
     22 C0F        10.7730    5.7120   44.5150 C.ar      1 F0E         0.0798
     23 N0G        12.0850    5.4000   44.3380 N.pl3     1 F0E        -0.2143
     24 N0H        12.6770    6.2730   43.4970 N.2       1 F0E        -0.1929
     25 C0I        11.7410    7.1600   43.1310 C.2       1 F0E         0.0711
     26 C0J        12.0610    8.2680   42.2150 C.ar      1 F0E         0.0133
     27 C0K        11.0990    8.7920   41.3550 C.ar      1 F0E        -0.0251
     28 C0L        11.4180    9.8370   40.5160 C.ar      1 F0E         0.0131
     29 N0M        12.6400   10.3860   40.4730 N.ar      1 F0E        -0.2811
     30 C0N        13.5770    9.8710   41.2850 C.ar      1 F0E         0.1190
     31 C0O        13.3340    8.8290   42.1640 C.ar      1 F0E        -0.0089
     32 C0P        14.9260   10.5360   41.2410 C.2       1 F0E         0.2229
     33 O0Q        15.0170   11.7000   40.8470 O.2       1 F0E        -0.3791
     34 N0R        15.9760    9.8090   41.6430 N.am      1 F0E        -0.2841
     35 C0S        17.3370   10.3300   41.6230 C.3       1 F0E         0.0324
     36 C0T        18.3560    9.3080   42.1000 C.3       1 F0E        -0.0125
     37 C0U        19.7980    9.8120   42.0420 C.3       1 F0E         0.0346
     38 N0V        20.2310   10.3430   43.3260 N.am      1 F0E        -0.2625
     39 C0W        21.0760    9.6950   44.1770 C.2       1 F0E         0.3197
     40 O0X        21.0250    9.8950   45.3850 O.2       1 F0E        -0.3775
     41 O0Y        21.9780    8.8060   43.6030 O.3       1 F0E        -0.2606
     42 C0Z        21.6180    7.4120   43.5050 C.3       1 F0E         0.0882
     43 C17        10.5310    6.8380   43.7670 C.ar      1 F0E         0.0060
     44 C18         9.2380    7.3770   43.7840 C.ar      1 F0E        -0.0452
     45 N19         0.2700    6.6180   48.9470 N.am      1 F0E        -0.2650
     46 C1A        -0.0220    6.7550   50.3670 C.3       1 F0E         0.0540
     47 C1B        -0.5030    8.1630   50.6380 C.3       1 F0E         0.0485
     48 N1C        -1.6780    8.5200   49.8150 N.pl3     1 F0E        -0.3018
     49 C1D        -1.5040    8.1990   48.3810 C.3       1 F0E         0.0485
     50 C1E        -0.9680    6.7880   48.1860 C.3       1 F0E         0.0540
     51 C1F        -2.0520    9.8990   50.1070 C.ar      1 F0E         0.0463
     52 C1G        -2.5570   10.7520   49.1200 C.ar      1 F0E        -0.0380
     53 C1H        -2.8980   12.0640   49.4310 C.ar      1 F0E        -0.0567
     54 C1I        -2.7360   12.5600   50.7270 C.ar      1 F0E         0.0095
     55 C1J        -2.2030   11.7150   51.6980 C.ar      1 F0E        -0.0567
     56 C1K        -1.8820   10.4090   51.4020 C.ar      1 F0E        -0.0380
     57 C1L        -3.0400   13.9740   51.0610 C.ar      1 F0E         0.1191
     58 N1M        -3.8300   14.6520   50.2170 N.ar      1 F0E        -0.2633
     59 C1N        -4.0620   15.9370   50.5250 C.ar      1 F0E         0.0252
     60 C1O        -3.5170   16.5220   51.6420 C.ar      1 F0E        -0.0118
     61 C1P        -2.7100   15.7590   52.4480 C.ar      1 F0E         0.0252
     62 N1Q        -2.4570   14.4750   52.1640 N.ar      1 F0E        -0.2633
     63 H1         21.7187    7.3562   45.6417 H         1 F0E         0.0293
     64 H2         21.4920    5.7571   44.8557 H         1 F0E         0.0293
     65 H3         23.7870    6.6693   46.0351 H         1 F0E         0.0266
     66 H4         24.0884    7.0446   44.3045 H         1 F0E         0.0266
     67 H5         23.3858    4.3100   45.4402 H         1 F0E         0.0265
     68 H6         25.0297    4.8774   44.9906 H         1 F0E         0.0265
     69 H7         24.1893    3.4928   43.3082 H         1 F0E         0.0265
     70 H8         24.3079    5.1878   42.7252 H         1 F0E         0.0265
     71 H9         21.8471    4.1756   43.5731 H         1 F0E         0.0265
     72 H10        22.6544    3.4727   42.1305 H         1 F0E         0.0265
     73 H11        20.8046    5.2558   41.9861 H         1 F0E         0.0266
     74 H12        22.1932    5.1950   40.8482 H         1 F0E         0.0266
     75 H13        21.8407    7.4671   41.3716 H         1 F0E         0.0293
     76 H14        23.3089    6.9493   42.2678 H         1 F0E         0.0293
     77 H15         0.9805    7.5648   46.5310 H         1 F0E         0.1063
     78 H16         1.4759    5.8383   46.5513 H         1 F0E         0.1063
     79 H17         3.6904    6.6769   47.0728 H         1 F0E         0.2054
     80 H18         3.5535    8.8799   47.7408 H         1 F0E         0.0816
     81 H19         2.5304    9.2657   46.3156 H         1 F0E         0.0816
     82 H20         5.5160    8.7752   46.4613 H         1 F0E         0.0346
     83 H21         4.5862    9.8151   45.3296 H         1 F0E         0.0346
     84 H22         4.5566    8.1047   43.7969 H         1 F0E         0.0598
     85 H23         2.4449    7.3909   44.4949 H         1 F0E         0.0844
     86 H24         3.3559    5.8959   44.8972 H         1 F0E         0.0844
     87 H25         6.8815    8.2710   44.1640 H         1 F0E         0.2223
     88 H26         7.7556    5.2274   45.9485 H         1 F0E         0.0505
     89 H27         9.9983    4.1919   45.8310 H         1 F0E         0.0542
     90 H28        12.5622    4.6045   44.7857 H         1 F0E         0.2466
     91 H29        10.0977    8.3769   41.3458 H         1 F0E         0.0727
     92 H30        10.6482   10.2320   39.8630 H         1 F0E         0.0827
     93 H31        14.1248    8.4550   42.8041 H         1 F0E         0.0752
     94 H32        15.8210    8.8762   41.9683 H         1 F0E         0.1848
     95 H33        17.3874   11.2116   42.2789 H         1 F0E         0.0520
     96 H34        17.5875   10.6243   40.5931 H         1 F0E         0.0520
     97 H35        18.2743    8.4128   41.4660 H         1 F0E         0.0304
     98 H36        18.1216    9.0425   43.1414 H         1 F0E         0.0304
     99 H37        19.8684   10.6068   41.2848 H         1 F0E         0.0520
    100 H38        20.4569    8.9776   41.7601 H         1 F0E         0.0520
    101 H39        19.8866   11.2405   43.6015 H         1 F0E         0.1867
    102 H40        20.5240    7.3299   43.4250 H         1 F0E         0.0647
    103 H41         9.0197    8.2734   43.2149 H         1 F0E         0.0437
    104 H42         0.8888    6.5577   50.9514 H         1 F0E         0.0542
    105 H43        -0.8043    6.0367   50.6535 H         1 F0E         0.0542
    106 H44         0.3132    8.8655   50.4136 H         1 F0E         0.0537
    107 H45        -0.7763    8.2457   51.7003 H         1 F0E         0.0537
    108 H46        -0.7958    8.9147   47.9379 H         1 F0E         0.0537
    109 H47        -2.4769    8.2848   47.8749 H         1 F0E         0.0537
    110 H48        -1.7155    6.0617   48.5378 H         1 F0E         0.0542
    111 H49        -0.7663    6.6185   47.1180 H         1 F0E         0.0542
    112 H50        -2.6833   10.3882   48.1067 H         1 F0E         0.0532
    113 H51        -3.2950   12.7108   48.6570 H         1 F0E         0.0629
    114 H52        -2.0386   12.0911   52.7013 H         1 F0E         0.0629
    115 H53        -1.4919    9.7653   52.1821 H         1 F0E         0.0532
    116 H54        -4.6962   16.5292   49.8753 H         1 F0E         0.0932
    117 H55        -3.7192   17.5599   51.8807 H         1 F0E         0.0752
    118 H56        -2.2685   16.2045   53.3322 H         1 F0E         0.0932
@<TRIPOS>BOND
     1    1    2 1  
     2   42    1 1  
     3    2    3 1  
     4    3    4 1  
     5    5    4 1  
     6    6    5 1  
     7    7    6 1  
     8   42    7 1  
     9    9    8 2  
    10   10    9 1  
    11    9   45 am 
    12   11   10 1  
    13   11   12 1  
    14   15   11 1  
    15   13   12 1  
    16   14   13 1  
    17   14   15 1  
    18   16   14 1  
    19   16   17 2  
    20   18   16 am 
    21   19   18 1  
    22   20   19 ar 
    23   19   44 ar 
    24   21   20 ar 
    25   22   21 ar 
    26   22   23 1  
    27   43   22 ar 
    28   24   23 1  
    29   25   24 2  
    30   26   25 1  
    31   25   43 1  
    32   26   27 ar 
    33   31   26 ar 
    34   28   27 ar 
    35   29   28 ar 
    36   30   29 ar 
    37   30   31 ar 
    38   32   30 1  
    39   32   33 2  
    40   34   32 am 
    41   35   34 1  
    42   36   35 1  
    43   37   36 1  
    44   38   37 1  
    45   39   38 am 
    46   39   40 2  
    47   41   39 1  
    48   41   42 1  
    49   43   44 ar 
    50   45   46 1  
    51   45   50 1  
    52   46   47 1  
    53   47   48 1  
    54   48   49 1  
    55   48   51 1  
    56   49   50 1  
    57   51   52 ar 
    58   51   56 ar 
    59   52   53 ar 
    60   53   54 ar 
    61   54   55 ar 
    62   54   57 1  
    63   55   56 ar 
    64   57   58 ar 
    65   57   62 ar 
    66   58   59 ar 
    67   59   60 ar 
    68   60   61 ar 
    69   61   62 ar 
    70    1   63 1  
    71    1   64 1  
    72    2   65 1  
    73    2   66 1  
    74    3   67 1  
    75    3   68 1  
    76    4   69 1  
    77    4   70 1  
    78    5   71 1  
    79    5   72 1  
    80    6   73 1  
    81    6   74 1  
    82    7   75 1  
    83    7   76 1  
    84   10   77 1  
    85   10   78 1  
    86   11   79 1  
    87   12   80 1  
    88   12   81 1  
    89   13   82 1  
    90   13   83 1  
    91   14   84 1  
    92   15   85 1  
    93   15   86 1  
    94   18   87 1  
    95   20   88 1  
    96   21   89 1  
    97   23   90 1  
    98   27   91 1  
    99   28   92 1  
   100   31   93 1  
   101   34   94 1  
   102   35   95 1  
   103   35   96 1  
   104   36   97 1  
   105   36   98 1  
   106   37   99 1  
   107   37  100 1  
   108   38  101 1  
   109   42  102 1  
   110   44  103 1  
   111   46  104 1  
   112   46  105 1  
   113   47  106 1  
   114   47  107 1  
   115   49  108 1  
   116   49  109 1  
   117   50  110 1  
   118   50  111 1  
   119   52  112 1  
   120   53  113 1  
   121   55  114 1  
   122   56  115 1  
   123   59  116 1  
   124   60  117 1  
   125   61  118 1  
@<TRIPOS>SUBSTRUCTURE
     1 F0E         1

