### 
### Created by X-TOOL on Wed Jan  1 15:39:35 2020
### 

@<TRIPOS>MOLECULE
6gji_ligand
   47    48     1     0     0
SMALL
GAST_HUCK


@<TRIPOS>ATOM
      1 O1         -2.3130   15.2920   -5.0090 O.2       1 F1E        -0.3682
      2 C2         -1.2530   15.2840   -4.4750 C.2       1 F1E         0.2561
      3 O          -0.5200   14.1890   -4.3400 O.3       1 F1E        -0.2756
      4 C1         -0.9860   12.9460   -4.8030 C.3       1 F1E         0.0740
      5 C           0.0940   11.9410   -4.5290 C.3       1 F1E        -0.0371
      6 C3         -0.5640   16.4640   -3.8530 C.3       1 F1E         0.1317
      7 N          -1.1230   17.7210   -4.2700 N.am      1 F1E        -0.2528
      8 C4         -0.9320   18.1870   -5.4800 C.2       1 F1E         0.2651
      9 O2         -0.2920   17.5770   -6.2910 O.2       1 F1E        -0.4003
     10 N1         -1.4880   19.3700   -5.7320 N.am      1 F1E        -0.2422
     11 C12        -2.0540   20.2140   -4.6980 C.3       1 F1E         0.0706
     12 C13        -0.9600   21.1460   -4.2800 C.2       1 F1E         0.0591
     13 C14         0.4240   21.0900   -4.4900 C.2       1 F1E         0.0710
     14 N3          0.9290   22.1720   -3.9410 N.pl3     1 F1E        -0.1843
     15 C15         2.3190   22.5770   -3.8760 C.3       1 F1E         0.0645
     16 N4         -0.0100   22.9890   -3.3570 N.2       1 F1E        -0.1022
     17 N5         -1.1910   22.2980   -3.6000 N.2       1 F1E        -0.2245
     18 C5         -1.6120   19.9420   -7.0150 C.3       1 F1E         0.0636
     19 C6         -3.0190   19.9860   -7.4910 C.ar      1 F1E        -0.0337
     20 C7         -3.5900   21.1800   -7.8690 C.ar      1 F1E        -0.0698
     21 C8         -4.8850   21.2070   -8.3280 C.ar      1 F1E        -0.0509
     22 C9         -5.6000   20.0270   -8.4060 C.ar      1 F1E         0.0284
     23 N2         -6.8600   20.0470   -8.8600 N.pl3     1 F1E        -0.3406
     24 C10        -5.0210   18.8460   -8.0290 C.ar      1 F1E        -0.0509
     25 C11        -3.7260   18.8070   -7.5670 C.ar      1 F1E        -0.0698
     26 H1         -1.1887   12.9973   -5.8829 H         1 F1E         0.0610
     27 H2         -1.9065   12.6656   -4.2700 H         1 F1E         0.0610
     28 H3         -0.2308   10.9495   -4.8775 H         1 F1E         0.0255
     29 H4          0.2934   11.9025   -3.4479 H         1 F1E         0.0255
     30 H5          1.0112   12.2341   -5.0608 H         1 F1E         0.0255
     31 H6          0.4983   16.4405   -4.1376 H         1 F1E         0.0777
     32 H7         -0.6525   16.3860   -2.7594 H         1 F1E         0.0777
     33 H8         -1.6698   18.2517   -3.6224 H         1 F1E         0.1876
     34 H9         -2.3828   19.6036   -3.8441 H         1 F1E         0.0637
     35 H10        -2.9090   20.7817   -5.0938 H         1 F1E         0.0637
     36 H11         0.9734   20.3043   -5.0066 H         1 F1E         0.0899
     37 H12         2.3966   23.5374   -3.3453 H         1 F1E         0.0611
     38 H13         2.7166   22.6883   -4.8956 H         1 F1E         0.0611
     39 H14         2.8988   21.8128   -3.3377 H         1 F1E         0.0611
     40 H15        -1.0192   19.3461   -7.7245 H         1 F1E         0.0659
     41 H16        -1.2198   20.9692   -6.9815 H         1 F1E         0.0659
     42 H17        -3.0183   22.0988   -7.8046 H         1 F1E         0.0525
     43 H18        -5.3410   22.1443   -8.6258 H         1 F1E         0.0499
     44 H19        -7.3994   19.1716   -8.9211 H         1 F1E         0.1698
     45 H20        -7.2895   20.9377   -9.1480 H         1 F1E         0.1698
     46 H21        -5.5917   17.9268   -8.0954 H         1 F1E         0.0499
     47 H22        -3.2721   17.8687   -7.2693 H         1 F1E         0.0525
@<TRIPOS>BOND
     1    1    2 2  
     2    2    3 1  
     3    2    6 1  
     4    3    4 1  
     5    4    5 1  
     6    6    7 1  
     7    7    8 am 
     8    8    9 2  
     9    8   10 am 
    10   10   11 1  
    11   10   18 1  
    12   11   12 1  
    13   12   13 2  
    14   12   17 1  
    15   13   14 1  
    16   14   15 1  
    17   14   16 1  
    18   16   17 2  
    19   18   19 1  
    20   19   20 ar 
    21   19   25 ar 
    22   20   21 ar 
    23   21   22 ar 
    24   22   23 1  
    25   22   24 ar 
    26   24   25 ar 
    27    4   26 1  
    28    4   27 1  
    29    5   28 1  
    30    5   29 1  
    31    5   30 1  
    32    6   31 1  
    33    6   32 1  
    34    7   33 1  
    35   11   34 1  
    36   11   35 1  
    37   13   36 1  
    38   15   37 1  
    39   15   38 1  
    40   15   39 1  
    41   18   40 1  
    42   18   41 1  
    43   20   42 1  
    44   21   43 1  
    45   23   44 1  
    46   23   45 1  
    47   24   46 1  
    48   25   47 1  
@<TRIPOS>SUBSTRUCTURE
     1 F1E         1

