### 
### Created by X-TOOL on Wed Jan  1 15:39:35 2020
### 

@<TRIPOS>MOLECULE
6gjj_ligand
   41    41     1     0     0
SMALL
GAST_HUCK


@<TRIPOS>ATOM
      1 O          -0.5890   17.5410   -6.5460 O.2       1 L36        -0.4004
      2 C10        -1.1520   18.1810   -5.6590 C.2       1 L36         0.2637
      3 N2         -1.2660   17.6910   -4.4280 N.am      1 L36        -0.2529
      4 C11        -0.6660   16.4240   -4.0590 C.3       1 L36         0.1317
      5 C12        -1.3770   15.2620   -4.7100 C.2       1 L36         0.2561
      6 O2         -0.5770   14.2040   -4.8160 O.3       1 L36        -0.2756
      7 C13        -1.1330   12.8910   -4.8510 C.3       1 L36         0.0740
      8 C14        -0.0200   11.8700   -4.7560 C.3       1 L36        -0.0371
      9 O1         -2.5340   15.2740   -5.0960 O.2       1 L36        -0.3682
     10 N          -1.6660   19.3830   -5.9030 N.am      1 L36        -0.2503
     11 C2         -2.1080   20.2640   -4.8330 C.3       1 L36         0.0333
     12 C1         -0.9170   20.9980   -4.2570 C.3       1 L36        -0.0447
     13 C3         -1.8190   19.8980   -7.2550 C.3       1 L36         0.0620
     14 C4         -3.2600   19.9630   -7.7050 C.ar      1 L36        -0.0338
     15 C5         -4.0580   18.8260   -7.6480 C.ar      1 L36        -0.0698
     16 C6         -5.3840   18.8860   -8.0630 C.ar      1 L36        -0.0509
     17 C7         -5.9110   20.0820   -8.5340 C.ar      1 L36         0.0284
     18 N1         -7.2030   20.1400   -8.9380 N.pl3     1 L36        -0.3406
     19 C8         -5.1130   21.2190   -8.5910 C.ar      1 L36        -0.0509
     20 C9         -3.7880   21.1590   -8.1770 C.ar      1 L36        -0.0698
     21 H1         -1.7771   18.2082   -3.7415 H         1 L36         0.1876
     22 H2         -0.7195   16.3084   -2.9664 H         1 L36         0.0777
     23 H3          0.3870   16.4216   -4.3769 H         1 L36         0.0777
     24 H4         -1.6808   12.7496   -5.7943 H         1 L36         0.0610
     25 H5         -1.8224   12.7619   -4.0037 H         1 L36         0.0610
     26 H6         -0.4483   10.8572   -4.7830 H         1 L36         0.0255
     27 H7          0.5278   12.0114   -3.8127 H         1 L36         0.0255
     28 H8          0.6694   11.9992   -5.6033 H         1 L36         0.0255
     29 H9         -2.5883   19.6683   -4.0428 H         1 L36         0.0518
     30 H10        -2.8290   20.9924   -5.2325 H         1 L36         0.0518
     31 H11        -1.2527   21.6637   -3.4482 H         1 L36         0.0249
     32 H12        -0.4366   21.5941   -5.0468 H         1 L36         0.0249
     33 H13        -0.1959   20.2699   -3.8571 H         1 L36         0.0249
     34 H14        -1.2664   19.2424   -7.9440 H         1 L36         0.0657
     35 H15        -1.3942   20.9119   -7.2936 H         1 L36         0.0657
     36 H16        -3.6468   17.8929   -7.2802 H         1 L36         0.0525
     37 H17        -6.0063   17.9995   -8.0190 H         1 L36         0.0499
     38 H18        -7.5941   21.0266   -9.2873 H         1 L36         0.1698
     39 H19        -7.7941   19.2975   -8.8959 H         1 L36         0.1698
     40 H20        -5.5244   22.1522   -8.9584 H         1 L36         0.0499
     41 H21        -3.1657   22.0454   -8.2221 H         1 L36         0.0525
@<TRIPOS>BOND
     1    1    2 2  
     2    2    3 am 
     3    2   10 am 
     4    3    4 1  
     5    4    5 1  
     6    5    6 1  
     7    5    9 2  
     8    6    7 1  
     9    7    8 1  
    10   10   11 1  
    11   10   13 1  
    12   11   12 1  
    13   13   14 1  
    14   14   15 ar 
    15   14   20 ar 
    16   15   16 ar 
    17   16   17 ar 
    18   17   18 1  
    19   17   19 ar 
    20   19   20 ar 
    21    3   21 1  
    22    4   22 1  
    23    4   23 1  
    24    7   24 1  
    25    7   25 1  
    26    8   26 1  
    27    8   27 1  
    28    8   28 1  
    29   11   29 1  
    30   11   30 1  
    31   12   31 1  
    32   12   32 1  
    33   12   33 1  
    34   13   34 1  
    35   13   35 1  
    36   15   36 1  
    37   16   37 1  
    38   18   38 1  
    39   18   39 1  
    40   19   40 1  
    41   20   41 1  
@<TRIPOS>SUBSTRUCTURE
     1 L36         1

