### 
### Created by X-TOOL on Wed Jan  1 15:39:35 2020
### 

@<TRIPOS>MOLECULE
6gjl_ligand
   43    44     1     0     0
SMALL
GAST_HUCK


@<TRIPOS>ATOM
      1 N1         -0.8290   18.8490   -6.3480 N.am      1 F1Q        -0.2369
      2 C5         -1.7390   19.9510   -6.1190 C.3       1 F1Q         0.0642
      3 C4         -0.6060   17.7810   -5.6050 C.2       1 F1Q         0.2656
      4 N3          2.1710   18.7590   -8.6050 N.2       1 F1Q        -0.1795
      5 C2         -1.4700   15.1840   -4.3810 C.2       1 F1Q         0.2561
      6 C10        -4.8940   18.6840   -7.9230 C.ar      1 F1Q        -0.0509
      7 C13         1.3540   19.0740   -7.5910 C.2       1 F1Q         0.1400
      8 C12        -0.1590   18.9990   -7.6510 C.3       1 F1Q         0.0944
      9 C11        -3.6560   18.6720   -7.2570 C.ar      1 F1Q        -0.0698
     10 O2          0.1540   16.8820   -5.9870 O.2       1 F1Q        -0.4003
     11 N          -1.1960   17.6300   -4.4180 N.am      1 F1Q        -0.2528
     12 C3         -0.9700   16.4130   -3.6590 C.3       1 F1Q         0.1317
     13 O1         -2.4780   15.1530   -5.0310 O.2       1 F1Q        -0.3682
     14 O          -0.7340   14.0950   -4.2010 O.3       1 F1Q        -0.2756
     15 C1         -1.0800   12.8780   -4.9040 C.3       1 F1Q         0.0740
     16 C          -0.0710   11.7860   -4.5930 C.3       1 F1Q        -0.0371
     17 N6          2.1020   19.4220   -6.5310 N.2       1 F1Q        -0.1607
     18 N5          3.4140   19.3980   -6.8210 N.pl3     1 F1Q        -0.1152
     19 N4          3.4920   18.9740   -8.1490 N.2       1 F1Q        -0.0595
     20 C6         -3.0530   19.8920   -6.9150 C.ar      1 F1Q        -0.0336
     21 C9         -5.5410   19.8540   -8.2620 C.ar      1 F1Q         0.0284
     22 N2         -6.7410   19.7940   -8.9310 N.pl3     1 F1Q        -0.3406
     23 C8         -4.9260   21.0780   -7.9570 C.ar      1 F1Q        -0.0509
     24 C7         -3.6960   21.0770   -7.2900 C.ar      1 F1Q        -0.0698
     25 H1         -1.2197   20.8826   -6.3883 H         1 F1Q         0.0659
     26 H2         -1.9904   19.9677   -5.0483 H         1 F1Q         0.0659
     27 H3         -5.3575   17.7383   -8.1797 H         1 F1Q         0.0499
     28 H4         -0.5277   19.9235   -8.1194 H         1 F1Q         0.0704
     29 H5         -0.4329   18.1365   -8.2764 H         1 F1Q         0.0704
     30 H6         -3.1737   17.7329   -7.0110 H         1 F1Q         0.0525
     31 H7         -1.7887   18.3486   -4.0542 H         1 F1Q         0.1876
     32 H8          0.1098   16.3032   -3.4805 H         1 F1Q         0.0777
     33 H9         -1.4945   16.4948   -2.6956 H         1 F1Q         0.0777
     34 H10        -1.0826   13.0723   -5.9867 H         1 F1Q         0.0610
     35 H11        -2.0808   12.5482   -4.5882 H         1 F1Q         0.0610
     36 H12        -0.3460   10.8681   -5.1332 H         1 F1Q         0.0255
     37 H13        -0.0673   11.5875   -3.5111 H         1 F1Q         0.0255
     38 H14         0.9309   12.1115   -4.9095 H         1 F1Q         0.0255
     39 H15         4.1960   19.6408   -6.1962 H         1 F1Q         0.2882
     40 H16        -7.2312   20.6626   -9.1882 H         1 F1Q         0.1698
     41 H17        -7.1495   18.8805   -9.1749 H         1 F1Q         0.1698
     42 H18        -5.3983   22.0133   -8.2349 H         1 F1Q         0.0499
     43 H19        -3.2257   22.0253   -7.0561 H         1 F1Q         0.0525
@<TRIPOS>BOND
     1    1    2 1  
     2    3    1 am 
     3    1    8 1  
     4    2   20 1  
     5    3   10 2  
     6   11    3 am 
     7    7    4 1  
     8    4   19 2  
     9   12    5 1  
    10    5   13 2  
    11    5   14 1  
    12    9    6 ar 
    13    6   21 ar 
    14    8    7 1  
    15    7   17 2  
    16   20    9 ar 
    17   11   12 1  
    18   14   15 1  
    19   15   16 1  
    20   17   18 1  
    21   18   19 1  
    22   20   24 ar 
    23   21   22 1  
    24   21   23 ar 
    25   23   24 ar 
    26    2   25 1  
    27    2   26 1  
    28    6   27 1  
    29    8   28 1  
    30    8   29 1  
    31    9   30 1  
    32   11   31 1  
    33   12   32 1  
    34   12   33 1  
    35   15   34 1  
    36   15   35 1  
    37   16   36 1  
    38   16   37 1  
    39   16   38 1  
    40   18   39 1  
    41   22   40 1  
    42   22   41 1  
    43   23   42 1  
    44   24   43 1  
@<TRIPOS>SUBSTRUCTURE
     1 F1Q         1

