### 
### Created by X-TOOL on Wed Jan  1 15:39:35 2020
### 

@<TRIPOS>MOLECULE
6gjn_ligand
   61    64     1     0     0
SMALL
GAST_HUCK


@<TRIPOS>ATOM
      1 O           0.8560   17.2910   -6.0060 O.2       1 F0Q        -0.4003
      2 C11         0.0180   18.0120   -5.5560 C.2       1 F0Q         0.2655
      3 N1         -0.3270   19.0650   -6.2520 N.am      1 F0Q        -0.2369
      4 C4         -1.2380   20.0660   -5.8130 C.3       1 F0Q         0.0642
      5 C5         -2.4980   20.2780   -6.6380 C.ar      1 F0Q        -0.0336
      6 C6         -3.2870   19.2030   -6.9640 C.ar      1 F0Q        -0.0698
      7 C7         -4.4460   19.3800   -7.6660 C.ar      1 F0Q        -0.0509
      8 C8         -4.8690   20.6220   -8.0360 C.ar      1 F0Q         0.0284
      9 N2         -6.0110   20.7540   -8.7070 N.pl3     1 F0Q        -0.3406
     10 C9         -4.0950   21.7190   -7.7350 C.ar      1 F0Q        -0.0509
     11 C10        -2.9310   21.5340   -7.0150 C.ar      1 F0Q        -0.0698
     12 C3          0.1780   19.3450   -7.5890 C.3       1 F0Q         0.0944
     13 C2          1.6900   19.4340   -7.6000 C.2       1 F0Q         0.1402
     14 N5          2.4760   18.7880   -8.4690 N.2       1 F0Q        -0.1793
     15 N6          3.8150   19.0690   -8.2590 N.2       1 F0Q        -0.0572
     16 N           3.7610   19.9340   -7.2100 N.pl3     1 F0Q        -0.1045
     17 C           4.9640   20.5280   -6.5960 C.3       1 F0Q         0.0833
     18 N7          2.4650   20.1590   -6.7710 N.2       1 F0Q        -0.1585
     19 N3         -0.5040   17.7730   -4.4450 N.am      1 F0Q        -0.2542
     20 C12        -0.1900   16.5900   -3.6420 C.3       1 F0Q         0.1207
     21 C13        -0.8040   15.4060   -4.3620 C.2       1 F0Q         0.2029
     22 O1         -1.9100   15.5230   -4.8030 O.2       1 F0Q        -0.3945
     23 N4         -0.1380   14.2330   -4.4900 N.am      1 F0Q        -0.2567
     24 C14        -0.8010   13.0370   -4.9680 C.3       1 F0Q         0.0368
     25 C15         0.2770   11.9720   -5.0200 C.3       1 F0Q        -0.0283
     26 C16         1.5910   12.7040   -5.0280 C.3       1 F0Q        -0.0173
     27 C17         1.2950   13.9650   -4.2650 C.3       1 F0Q         0.0798
     28 C18         1.6050   13.7380   -2.8380 C.ar      1 F0Q        -0.0081
     29 C23         2.8970   13.7640   -2.3990 C.ar      1 F0Q         0.0160
     30 BR          4.3240   14.0400   -3.5740 Br        1 F0Q        -0.0563
     31 C19         0.6070   13.4790   -1.9340 C.ar      1 F0Q        -0.0553
     32 C20         0.9210   13.3040   -0.6020 C.ar      1 F0Q        -0.0657
     33 C21         2.2290   13.3510   -0.1770 C.ar      1 F0Q        -0.0659
     34 C22         3.2120   13.6060   -1.0800 C.ar      1 F0Q        -0.0589
     35 H1         -0.6931   21.0213   -5.7920 H         1 F0Q         0.0659
     36 H2         -1.5527   19.8009   -4.7929 H         1 F0Q         0.0659
     37 H3         -2.9883   18.2057   -6.6621 H         1 F0Q         0.0525
     38 H4         -5.0414   18.5148   -7.9342 H         1 F0Q         0.0499
     39 H5         -6.3370   21.6892   -8.9899 H         1 F0Q         0.1698
     40 H6         -6.5687   19.9209   -8.9433 H         1 F0Q         0.1698
     41 H7         -4.3933   22.7102   -8.0570 H         1 F0Q         0.0499
     42 H8         -2.3403   22.3996   -6.7378 H         1 F0Q         0.0525
     43 H9         -0.2395   20.3015   -7.9365 H         1 F0Q         0.0704
     44 H10        -0.1382   18.5389   -8.2673 H         1 F0Q         0.0704
     45 H11         5.8587   20.1858   -7.1368 H         1 F0Q         0.0631
     46 H12         5.0304   20.2162   -5.5432 H         1 F0Q         0.0631
     47 H13         4.8999   21.6248   -6.6503 H         1 F0Q         0.0631
     48 H14        -1.1718   18.4250   -4.0859 H         1 F0Q         0.1874
     49 H15        -0.6222   16.6884   -2.6353 H         1 F0Q         0.0760
     50 H16         0.8997   16.4629   -3.5625 H         1 F0Q         0.0760
     51 H17        -1.2239   13.2056   -5.9694 H         1 F0Q         0.0524
     52 H18        -1.6030   12.7392   -4.2766 H         1 F0Q         0.0524
     53 H19         0.1719   11.3675   -5.9329 H         1 F0Q         0.0287
     54 H20         0.2101   11.3185   -4.1377 H         1 F0Q         0.0287
     55 H21         1.9078   12.9320   -6.0564 H         1 F0Q         0.0311
     56 H22         2.3724   12.1148   -4.5257 H         1 F0Q         0.0311
     57 H23         1.9001   14.8023   -4.6429 H         1 F0Q         0.0730
     58 H24        -0.4233   13.4121   -2.2642 H         1 F0Q         0.0565
     59 H25         0.1293   13.1277    0.1171 H         1 F0Q         0.0623
     60 H26         2.4725   13.1865    0.8664 H         1 F0Q         0.0566
     61 H27         4.2429   13.6837   -0.7541 H         1 F0Q         0.0626
@<TRIPOS>BOND
     1    1    2 2  
     2    2    3 am 
     3    2   19 am 
     4    3    4 1  
     5    3   12 1  
     6    4    5 1  
     7    5    6 ar 
     8    5   11 ar 
     9    6    7 ar 
    10    7    8 ar 
    11    8    9 1  
    12    8   10 ar 
    13   10   11 ar 
    14   12   13 1  
    15   13   14 1  
    16   13   18 2  
    17   14   15 2  
    18   15   16 1  
    19   16   17 1  
    20   16   18 1  
    21   19   20 1  
    22   20   21 1  
    23   21   22 2  
    24   21   23 am 
    25   23   24 1  
    26   23   27 1  
    27   24   25 1  
    28   25   26 1  
    29   26   27 1  
    30   27   28 1  
    31   28   29 ar 
    32   28   31 ar 
    33   29   30 1  
    34   29   34 ar 
    35   31   32 ar 
    36   32   33 ar 
    37   33   34 ar 
    38    4   35 1  
    39    4   36 1  
    40    6   37 1  
    41    7   38 1  
    42    9   39 1  
    43    9   40 1  
    44   10   41 1  
    45   11   42 1  
    46   12   43 1  
    47   12   44 1  
    48   17   45 1  
    49   17   46 1  
    50   17   47 1  
    51   19   48 1  
    52   20   49 1  
    53   20   50 1  
    54   24   51 1  
    55   24   52 1  
    56   25   53 1  
    57   25   54 1  
    58   26   55 1  
    59   26   56 1  
    60   27   57 1  
    61   31   58 1  
    62   32   59 1  
    63   33   60 1  
    64   34   61 1  
@<TRIPOS>SUBSTRUCTURE
     1 F0Q         1

