### 
### Created by X-TOOL on Wed Jan  1 15:39:37 2020
### 

@<TRIPOS>MOLECULE
6gjr_ligand
   46    47     1     0     0
SMALL
GAST_HUCK


@<TRIPOS>ATOM
      1 O2          0.0400   16.6450   -6.0020 O.2       1 F0W        -0.4003
      2 C4         -0.6200   17.5720   -5.5750 C.2       1 F0W         0.2656
      3 N          -1.0650   17.5400   -4.3320 N.am      1 F0W        -0.2528
      4 C3         -1.0260   16.3110   -3.5550 C.3       1 F0W         0.1317
      5 C2         -1.4510   15.0810   -4.3290 C.2       1 F0W         0.2561
      6 O1         -2.4810   15.0440   -4.9470 O.2       1 F0W        -0.3682
      7 O          -0.6010   13.9170   -4.3060 O.3       1 F0W        -0.2756
      8 C1         -1.0030   12.7040   -4.8860 C.3       1 F0W         0.0740
      9 C          -0.0740   11.6360   -4.3720 C.3       1 F0W        -0.0371
     10 N1         -0.8870   18.6130   -6.3530 N.am      1 F0W        -0.2369
     11 C12        -0.3520   18.6920   -7.6960 C.3       1 F0W         0.0944
     12 C13         1.1560   18.7460   -7.6520 C.2       1 F0W         0.1402
     13 N6          1.8600   19.4260   -6.7330 N.2       1 F0W        -0.1585
     14 N5          3.1740   19.2050   -7.1000 N.pl3     1 F0W        -0.1045
     15 C14         4.3090   19.7710   -6.3510 C.3       1 F0W         0.0833
     16 N4          3.3250   18.4070   -8.2110 N.2       1 F0W        -0.0572
     17 N3          1.9970   18.1360   -8.5320 N.2       1 F0W        -0.1793
     18 C5         -1.6960   19.7640   -6.0020 C.3       1 F0W         0.0642
     19 C6         -3.0000   19.7540   -6.7610 C.ar      1 F0W        -0.0336
     20 C11        -3.5010   18.5470   -7.1480 C.ar      1 F0W        -0.0698
     21 C10        -4.6950   18.4890   -7.8170 C.ar      1 F0W        -0.0509
     22 C9         -5.4100   19.6110   -8.1240 C.ar      1 F0W         0.0284
     23 N2         -6.5740   19.4680   -8.7740 N.pl3     1 F0W        -0.3406
     24 C8         -4.9210   20.8430   -7.7450 C.ar      1 F0W        -0.0509
     25 C7         -3.7130   20.9020   -7.0630 C.ar      1 F0W        -0.0698
     26 H1         -1.4341   18.3726   -3.9191 H         1 F0W         0.1876
     27 H2         -1.6978   16.4258   -2.6916 H         1 F0W         0.0777
     28 H3          0.0040   16.1581   -3.2005 H         1 F0W         0.0777
     29 H4         -0.9333   12.7687   -5.9819 H         1 F0W         0.0610
     30 H5         -2.0391   12.4732   -4.5974 H         1 F0W         0.0610
     31 H6         -0.3565   10.6650   -4.8049 H         1 F0W         0.0255
     32 H7         -0.1464   11.5836   -3.2756 H         1 F0W         0.0255
     33 H8          0.9594   11.8792   -4.6601 H         1 F0W         0.0255
     34 H9         -0.7342   19.5991   -8.1870 H         1 F0W         0.0704
     35 H10        -0.6677   17.8058   -8.2660 H         1 F0W         0.0704
     36 H11         3.9308   20.3696   -5.5092 H         1 F0W         0.0631
     37 H12         4.9054   20.4113   -7.0175 H         1 F0W         0.0631
     38 H13         4.9384   18.9548   -5.9668 H         1 F0W         0.0631
     39 H14        -1.1426   20.6823   -6.2480 H         1 F0W         0.0659
     40 H15        -1.9069   19.7410   -4.9227 H         1 F0W         0.0659
     41 H16        -2.9565   17.6361   -6.9272 H         1 F0W         0.0525
     42 H17        -5.0846   17.5214   -8.1121 H         1 F0W         0.0499
     43 H18        -7.1331   20.2980   -9.0177 H         1 F0W         0.1698
     44 H19        -6.9090   18.5282   -9.0296 H         1 F0W         0.1698
     45 H20        -5.4696   21.7491   -7.9752 H         1 F0W         0.0499
     46 H21        -3.3202   21.8661   -6.7609 H         1 F0W         0.0525
@<TRIPOS>BOND
     1    1    2 2  
     2    2    3 am 
     3    2   10 am 
     4    3    4 1  
     5    4    5 1  
     6    5    6 2  
     7    5    7 1  
     8    7    8 1  
     9    8    9 1  
    10   10   11 1  
    11   10   18 1  
    12   11   12 1  
    13   12   13 2  
    14   12   17 1  
    15   13   14 1  
    16   14   15 1  
    17   14   16 1  
    18   16   17 2  
    19   18   19 1  
    20   19   20 ar 
    21   19   25 ar 
    22   20   21 ar 
    23   21   22 ar 
    24   22   23 1  
    25   22   24 ar 
    26   24   25 ar 
    27    3   26 1  
    28    4   27 1  
    29    4   28 1  
    30    8   29 1  
    31    8   30 1  
    32    9   31 1  
    33    9   32 1  
    34    9   33 1  
    35   11   34 1  
    36   11   35 1  
    37   15   36 1  
    38   15   37 1  
    39   15   38 1  
    40   18   39 1  
    41   18   40 1  
    42   20   41 1  
    43   21   42 1  
    44   23   43 1  
    45   23   44 1  
    46   24   45 1  
    47   25   46 1  
@<TRIPOS>SUBSTRUCTURE
     1 F0W         1

