### 
### Created by X-TOOL on Mon Aug  2 16:13:31 2021
### 

@<TRIPOS>MOLECULE
6gjw_ligand
   80    85     1     0     0
SMALL
GAST_HUCK


@<TRIPOS>ATOM
      1 OAN         3.6070  -13.9650   22.1460 O.co2     1 F2H        -0.4795
      2 SCE         3.9550  -12.4870   22.2940 S.o2      1 F2H        -0.1625
      3 OAH         5.3120  -12.1230   21.6120 O.co2     1 F2H        -0.4795
      4 OAI         3.9920  -12.3770   23.8070 O.co2     1 F2H        -0.4795
      5 CBW         2.6600  -11.4640   21.8750 C.ar      1 F2H         0.0582
      6 CCA         2.6050  -10.0700   22.2200 C.ar      1 F2H         0.0349
      7 CAX         1.5610  -12.1330   21.2740 C.ar      1 F2H        -0.0428
      8 CAR         0.4110  -11.4590   20.9610 C.ar      1 F2H        -0.0637
      9 CBD         0.3260  -10.1140   21.2660 C.ar      1 F2H        -0.0589
     10 CBY         1.4020   -9.4030   21.8940 C.ar      1 F2H        -0.0079
     11 CBU         1.2920   -8.0420   22.1700 C.ar      1 F2H         0.0385
     12 SCC        -0.1440   -7.2090   21.8130 S.o2      1 F2H        -0.1723
     13 OAL        -0.2580   -7.1120   20.2580 O.co2     1 F2H        -0.4823
     14 OAE        -0.1380   -5.8430   22.4870 O.co2     1 F2H        -0.4823
     15 OAD        -1.2780   -8.0200   22.4380 O.co2     1 F2H        -0.4823
     16 CBB         2.3030   -7.3480   22.8040 C.ar      1 F2H        -0.0595
     17 CAZ         3.4910   -7.9600   23.1190 C.ar      1 F2H        -0.0414
     18 CBS         3.6330   -9.3120   22.8680 C.ar      1 F2H         0.0826
     19 NBJ         4.8090   -9.8810   23.1490 N.am      1 F2H        -0.2275
     20 CBM         5.4720   -9.7890   24.3370 C.2       1 F2H         0.2328
     21 OAB         5.0470   -9.2290   25.3620 O.2       1 F2H        -0.3708
     22 CBQ         6.7210  -10.4500   24.3430 C.ar      1 F2H         0.0433
     23 CBF         7.7580  -10.0530   23.4640 C.ar      1 F2H        -0.0213
     24 CAV         6.9680  -11.5270   25.2120 C.ar      1 F2H        -0.0570
     25 CAP         8.2320  -12.1580   25.2280 C.ar      1 F2H        -0.0701
     26 CAT         9.2170  -11.7440   24.3380 C.ar      1 F2H        -0.0372
     27 CBO         8.9970  -10.7030   23.4440 C.ar      1 F2H         0.0726
     28 NBH        10.0530  -10.3550   22.6800 N.am      1 F2H        -0.2134
     29 CBL        10.0760  -10.3590   21.3050 C.2       1 F2H         0.3170
     30 OAA         9.0990  -10.6140   20.5940 O.2       1 F2H        -0.3803
     31 NBI        11.2320   -9.9450   20.7820 N.am      1 F2H        -0.2134
     32 CBP        11.5710   -9.9720   19.4670 C.ar      1 F2H         0.0726
     33 CBG        12.8980   -9.5680   19.2490 C.ar      1 F2H        -0.0213
     34 CAU        10.8400  -10.4600   18.3790 C.ar      1 F2H        -0.0372
     35 CAQ        11.4430  -10.4770   17.1090 C.ar      1 F2H        -0.0701
     36 CAW        12.7650  -10.0400   16.9280 C.ar      1 F2H        -0.0570
     37 CBR        13.5360   -9.5840   17.9980 C.ar      1 F2H         0.0433
     38 CBN        14.8850   -9.1250   17.9090 C.2       1 F2H         0.2328
     39 OAC        15.2510   -8.3310   17.0330 O.2       1 F2H        -0.3708
     40 NBK        15.7220   -9.6930   18.8320 N.am      1 F2H        -0.2275
     41 CBT        17.0070   -9.3790   19.1260 C.ar      1 F2H         0.0826
     42 CCB        17.8530  -10.3460   19.7520 C.ar      1 F2H         0.0349
     43 CBX        17.4950  -11.6880   19.9830 C.ar      1 F2H         0.0582
     44 SCF        16.0180  -12.3810   19.4940 S.o2      1 F2H        -0.1625
     45 OAO        15.9610  -12.2070   17.9820 O.co2     1 F2H        -0.4795
     46 OAK        14.6870  -11.7750   20.1570 O.co2     1 F2H        -0.4795
     47 OAJ        16.0950  -13.8980   19.6360 O.co2     1 F2H        -0.4795
     48 CAY        18.3910  -12.5950   20.5750 C.ar      1 F2H        -0.0428
     49 CAS        19.6590  -12.2060   20.9580 C.ar      1 F2H        -0.0637
     50 CBE        20.0270  -10.9000   20.7220 C.ar      1 F2H        -0.0589
     51 CBZ        19.1560   -9.9720   20.1260 C.ar      1 F2H        -0.0079
     52 CBV        19.5990   -8.6650   19.9300 C.ar      1 F2H         0.0385
     53 SCD        21.2660   -8.1230   20.3060 S.o2      1 F2H        -0.1723
     54 OAM        22.1490   -9.1340   19.6330 O.co2     1 F2H        -0.4823
     55 OAG        21.5300   -8.0700   21.8210 O.co2     1 F2H        -0.4823
     56 OAF        21.5360   -6.8350   19.4900 O.co2     1 F2H        -0.4823
     57 CBC        18.7610   -7.7440   19.3360 C.ar      1 F2H        -0.0595
     58 CBA        17.4720   -8.1080   18.9780 C.ar      1 F2H        -0.0414
     59 H1          1.6336  -13.1932   21.0598 H         1 F2H         0.0597
     60 H2         -0.4167  -11.9706   20.4832 H         1 F2H         0.0612
     61 H3         -0.5843   -9.5782   21.0225 H         1 F2H         0.0588
     62 H4          2.1567   -6.3041   23.0570 H         1 F2H         0.0583
     63 H5          4.3040   -7.3925   23.5572 H         1 F2H         0.0444
     64 H6          5.2399  -10.4207   22.4258 H         1 F2H         0.2308
     65 H7          7.5872   -9.2228   22.7882 H         1 F2H         0.0551
     66 H8          6.1836  -11.8756   25.8741 H         1 F2H         0.0538
     67 H9          8.4327  -12.9597   25.9295 H         1 F2H         0.0588
     68 H10        10.1784  -12.2447   24.3416 H         1 F2H         0.0536
     69 H11        10.8874  -10.0708   23.1522 H         1 F2H         0.2262
     70 H12        11.9124   -9.5808   21.4179 H         1 F2H         0.2262
     71 H13        13.4679   -9.2206   20.1032 H         1 F2H         0.0551
     72 H14         9.8259  -10.8190   18.5126 H         1 F2H         0.0536
     73 H15        10.8779  -10.8334   16.2554 H         1 F2H         0.0588
     74 H16        13.1968  -10.0572   15.9339 H         1 F2H         0.0538
     75 H17        15.3303  -10.4443   19.3632 H         1 F2H         0.2308
     76 H18        18.0799  -13.6211   20.7341 H         1 F2H         0.0597
     77 H19        20.3416  -12.9045   21.4283 H         1 F2H         0.0612
     78 H20        21.0221  -10.5769   21.0056 H         1 F2H         0.0588
     79 H21        19.1106   -6.7351   19.1491 H         1 F2H         0.0583
     80 H22        16.8111   -7.3541   18.5657 H         1 F2H         0.0444
@<TRIPOS>BOND
     1    1    2 ar 
     2    2    3 ar 
     3    2    4 ar 
     4    2    5 1  
     5    5    6 ar 
     6    5    7 ar 
     7    6   10 ar 
     8    6   18 ar 
     9    7    8 ar 
    10    8    9 ar 
    11    9   10 ar 
    12   10   11 ar 
    13   11   12 1  
    14   11   16 ar 
    15   12   13 ar 
    16   12   14 ar 
    17   12   15 ar 
    18   16   17 ar 
    19   17   18 ar 
    20   18   19 1  
    21   19   20 am 
    22   20   21 2  
    23   20   22 1  
    24   22   23 ar 
    25   22   24 ar 
    26   23   27 ar 
    27   24   25 ar 
    28   25   26 ar 
    29   26   27 ar 
    30   27   28 1  
    31   28   29 am 
    32   29   30 2  
    33   29   31 am 
    34   31   32 1  
    35   32   33 ar 
    36   32   34 ar 
    37   33   37 ar 
    38   34   35 ar 
    39   35   36 ar 
    40   36   37 ar 
    41   37   38 1  
    42   38   39 2  
    43   38   40 am 
    44   40   41 1  
    45   41   42 ar 
    46   41   58 ar 
    47   42   43 ar 
    48   42   51 ar 
    49   43   44 1  
    50   43   48 ar 
    51   44   45 ar 
    52   44   46 ar 
    53   44   47 ar 
    54   48   49 ar 
    55   49   50 ar 
    56   50   51 ar 
    57   51   52 ar 
    58   52   53 1  
    59   52   57 ar 
    60   53   54 ar 
    61   53   55 ar 
    62   53   56 ar 
    63   57   58 ar 
    64    7   59 1  
    65    8   60 1  
    66    9   61 1  
    67   16   62 1  
    68   17   63 1  
    69   19   64 1  
    70   23   65 1  
    71   24   66 1  
    72   25   67 1  
    73   26   68 1  
    74   28   69 1  
    75   31   70 1  
    76   33   71 1  
    77   34   72 1  
    78   35   73 1  
    79   36   74 1  
    80   40   75 1  
    81   48   76 1  
    82   49   77 1  
    83   50   78 1  
    84   57   79 1  
    85   58   80 1  
@<TRIPOS>SUBSTRUCTURE
     1 F2H         1

