### 
### Created by X-TOOL on Wed Jan  1 15:39:35 2020
### 

@<TRIPOS>MOLECULE
6gjy_ligand
   40    40     1     0     0
SMALL
GAST_HUCK


@<TRIPOS>ATOM
      1 O2         -0.4370   17.2980   -6.2270 O.2       1 F1Z        -0.4004
      2 C4         -1.1170   17.9010   -5.4540 C.2       1 F1Z         0.2645
      3 N          -1.3070   17.4050   -4.2620 N.am      1 F1Z        -0.2529
      4 C3         -0.7820   16.1560   -3.8050 C.3       1 F1Z         0.1317
      5 C2         -1.4430   14.9810   -4.4610 C.2       1 F1Z         0.2561
      6 O1         -2.5490   15.0180   -4.8920 O.2       1 F1Z        -0.3682
      7 O          -0.6350   13.8080   -4.5220 O.3       1 F1Z        -0.2756
      8 C1         -1.0960   12.5560   -4.9780 C.3       1 F1Z         0.0740
      9 C          -0.0150   11.5630   -4.6010 C.3       1 F1Z        -0.0371
     10 N1         -1.6970   19.0750   -5.6800 N.am      1 F1Z        -0.2383
     11 C5         -2.2260   19.9100   -4.6140 C.3       1 F1Z         0.0966
     12 C6         -1.0840   20.6020   -3.9870 C.1       1 F1Z        -0.0811
     13 C7         -0.0460   21.1660   -3.5010 C.1       1 F1Z        -0.1172
     14 C8         -1.8710   19.7020   -6.9430 C.3       1 F1Z         0.0630
     15 C9         -3.3140   19.6880   -7.3530 C.ar      1 F1Z        -0.0338
     16 C14        -3.9770   18.4940   -7.3980 C.ar      1 F1Z        -0.0698
     17 C13        -5.2920   18.4540   -7.8190 C.ar      1 F1Z        -0.0509
     18 C12        -5.9450   19.5980   -8.1940 C.ar      1 F1Z         0.0284
     19 N2         -7.2110   19.5680   -8.6230 N.pl3     1 F1Z        -0.3406
     20 C11        -5.2790   20.8040   -8.1390 C.ar      1 F1Z        -0.0509
     21 C10        -3.9560   20.8490   -7.7290 C.ar      1 F1Z        -0.0698
     22 H1         -1.8602   17.9374   -3.6213 H         1 F1Z         0.1876
     23 H2         -0.9352   16.0854   -2.7180 H         1 F1Z         0.0777
     24 H3          0.2950   16.1238   -4.0264 H         1 F1Z         0.0777
     25 H4         -1.2385   12.5730   -6.0686 H         1 F1Z         0.0610
     26 H5         -2.0455   12.2945   -4.4881 H         1 F1Z         0.0610
     27 H6         -0.3114   10.5560   -4.9298 H         1 F1Z         0.0255
     28 H7          0.1220   11.5668   -3.5096 H         1 F1Z         0.0255
     29 H8          0.9290   11.8453   -5.0900 H         1 F1Z         0.0255
     30 H9         -2.7425   19.2866   -3.8694 H         1 F1Z         0.0658
     31 H10        -2.9305   20.6465   -5.0278 H         1 F1Z         0.0658
     32 H11         0.8121   21.6322   -3.0992 H         1 F1Z         0.1229
     33 H12        -1.2772   19.1644   -7.6969 H         1 F1Z         0.0658
     34 H13        -1.5250   20.7442   -6.8785 H         1 F1Z         0.0658
     35 H14        -3.4724   17.5807   -7.1041 H         1 F1Z         0.0525
     36 H15        -5.8140   17.5046   -7.8530 H         1 F1Z         0.0499
     37 H16        -7.6818   20.4413   -8.8998 H         1 F1Z         0.1698
     38 H17        -7.7155   18.6716   -8.6767 H         1 F1Z         0.1698
     39 H18        -5.7910   21.7182   -8.4168 H         1 F1Z         0.0499
     40 H19        -3.4270   21.7948   -7.7039 H         1 F1Z         0.0525
@<TRIPOS>BOND
     1    1    2 2  
     2    2    3 am 
     3    2   10 am 
     4    3    4 1  
     5    4    5 1  
     6    5    6 2  
     7    5    7 1  
     8    7    8 1  
     9    8    9 1  
    10   10   11 1  
    11   10   14 1  
    12   11   12 1  
    13   12   13 3  
    14   14   15 1  
    15   15   16 ar 
    16   15   21 ar 
    17   16   17 ar 
    18   17   18 ar 
    19   18   19 1  
    20   18   20 ar 
    21   20   21 ar 
    22    3   22 1  
    23    4   23 1  
    24    4   24 1  
    25    8   25 1  
    26    8   26 1  
    27    9   27 1  
    28    9   28 1  
    29    9   29 1  
    30   11   30 1  
    31   11   31 1  
    32   13   32 1  
    33   14   33 1  
    34   14   34 1  
    35   16   35 1  
    36   17   36 1  
    37   19   37 1  
    38   19   38 1  
    39   20   39 1  
    40   21   40 1  
@<TRIPOS>SUBSTRUCTURE
     1 F1Z         1

