### 
### Created by X-TOOL on Wed Jan  1 15:39:38 2020
### 

@<TRIPOS>MOLECULE
6gl3_ligand
   56    59     1     0     0
SMALL
GAST_HUCK


@<TRIPOS>ATOM
      1 C1        -47.1740   -7.1430    8.4050 C.3       1 EMW         0.0560
      2 C3        -45.6440   -8.6930    7.4240 C.ar      1 EMW         0.0688
      3 C4        -44.7630   -9.5310    8.0910 C.ar      1 EMW        -0.0532
      4 C5        -43.5110   -9.7940    7.5730 C.ar      1 EMW        -0.0557
      5 C6        -43.0930   -9.2480    6.3370 C.ar      1 EMW         0.0581
      6 C8        -41.0840  -10.7000    5.8680 C.2       1 EMW         0.2851
      7 O9        -41.5550  -11.6770    6.4320 O.2       1 EMW        -0.3922
      8 N10       -39.8220  -10.8410    5.3230 N.am      1 EMW        -0.2508
      9 C11       -39.1390   -9.7510    4.5790 C.3       1 EMW         0.0583
     10 C12       -38.8150  -10.2440    3.1710 C.3       1 EMW         0.0626
     11 C16       -38.4250  -12.5290    4.0810 C.3       1 EMW         0.0547
     12 C17       -38.9940  -12.0950    5.4350 C.3       1 EMW         0.0558
     13 C18       -36.4720  -11.2180    3.0730 C.ar      1 EMW         0.1218
     14 N22       -33.7120  -11.2470    2.7770 N.ar      1 EMW        -0.2623
     15 C23       -34.4210  -10.4080    2.0000 C.ar      1 EMW         0.1442
     16 C24       -35.8430  -10.3460    2.1060 C.ar      1 EMW         0.0680
     17 C30       -43.6670   -7.7210    4.3190 C.3       1 EMW        -0.0373
     18 C31       -45.2550   -8.1240    6.2050 C.ar      1 EMW        -0.0444
     19 O2        -46.8660   -8.4710    7.9850 O.3       1 EMW        -0.3326
     20 N7        -41.8080   -9.5230    5.7950 N.am      1 EMW        -0.2287
     21 C14       -40.0590  -10.5900    2.3390 C.3       1 EMW        -0.0392
     22 N15       -37.8450  -11.3380    3.3840 N.pl3     1 EMW        -0.2795
     23 N19       -35.6490  -12.0010    3.7760 N.ar      1 EMW        -0.2522
     24 C20       -34.3340  -12.0360    3.6420 C.ar      1 EMW         0.1551
     25 N21       -33.6310  -12.9230    4.4350 N.pl3     1 EMW        -0.3093
     26 C25       -36.2250   -9.3610    1.1500 C.2       1 EMW         0.0215
     27 N26       -35.1800   -8.8770    0.5520 N.2       1 EMW        -0.2098
     28 N27       -34.0540   -9.5150    1.0470 N.pl3     1 EMW        -0.1945
     29 C28       -32.6950   -9.2340    0.6350 C.3       1 EMW         0.0572
     30 C29       -43.9920   -8.3840    5.6500 C.ar      1 EMW        -0.0321
     31 H1        -48.1864   -7.1198    8.8346 H         1 EMW         0.0572
     32 H2        -47.1270   -6.4647    7.5403 H         1 EMW         0.0572
     33 H3        -46.4462   -6.8204    9.1641 H         1 EMW         0.0572
     34 H4        -45.0609   -9.9844    9.0295 H         1 EMW         0.0448
     35 H5        -42.8326  -10.4336    8.1260 H         1 EMW         0.0454
     36 H6        -38.2087   -9.4760    5.0975 H         1 EMW         0.0543
     37 H7        -39.7994   -8.8732    4.5204 H         1 EMW         0.0543
     38 H8        -38.3004   -9.4368    2.6292 H         1 EMW         0.0584
     39 H9        -39.2286  -12.9597    3.4656 H         1 EMW         0.0551
     40 H10       -37.6388  -13.2824    4.2371 H         1 EMW         0.0551
     41 H11       -39.6260  -12.9038    5.8304 H         1 EMW         0.0541
     42 H12       -38.1599  -11.9093    6.1277 H         1 EMW         0.0541
     43 H13       -44.5202   -7.1054    3.9980 H         1 EMW         0.0361
     44 H14       -43.4681   -8.4947    3.5628 H         1 EMW         0.0361
     45 H15       -42.7779   -7.0837    4.4342 H         1 EMW         0.0361
     46 H16       -45.9422   -7.4704    5.6800 H         1 EMW         0.0443
     47 H17       -41.3727   -8.7718    5.2988 H         1 EMW         0.2196
     48 H18       -39.7487  -10.9360    1.3420 H         1 EMW         0.0253
     49 H19       -40.6917   -9.6961    2.2363 H         1 EMW         0.0253
     50 H20       -40.6274  -11.3857    2.8427 H         1 EMW         0.0253
     51 H21       -32.6053  -12.9797    4.3598 H         1 EMW         0.1823
     52 H22       -34.1327  -13.5274    5.1013 H         1 EMW         0.1823
     53 H23       -37.2511   -9.0567    0.9491 H         1 EMW         0.0719
     54 H24       -32.7021   -8.4675   -0.1539 H         1 EMW         0.0583
     55 H25       -32.2314  -10.1536    0.2485 H         1 EMW         0.0583
     56 H26       -32.1188   -8.8673    1.4973 H         1 EMW         0.0583
@<TRIPOS>BOND
     1   19    1 1  
     2    3    2 ar 
     3    2   18 ar 
     4    2   19 1  
     5    4    3 ar 
     6    5    4 ar 
     7   20    5 1  
     8    5   30 ar 
     9    6    7 2  
    10    8    6 am 
    11    6   20 am 
    12    9    8 1  
    13   12    8 1  
    14   10    9 1  
    15   10   21 1  
    16   22   10 1  
    17   11   12 1  
    18   22   11 1  
    19   16   13 ar 
    20   13   22 1  
    21   13   23 ar 
    22   15   14 ar 
    23   14   24 ar 
    24   15   16 ar 
    25   15   28 1  
    26   16   26 1  
    27   30   17 1  
    28   18   30 ar 
    29   23   24 ar 
    30   24   25 1  
    31   26   27 2  
    32   27   28 1  
    33   28   29 1  
    34    1   31 1  
    35    1   32 1  
    36    1   33 1  
    37    3   34 1  
    38    4   35 1  
    39    9   36 1  
    40    9   37 1  
    41   10   38 1  
    42   11   39 1  
    43   11   40 1  
    44   12   41 1  
    45   12   42 1  
    46   17   43 1  
    47   17   44 1  
    48   17   45 1  
    49   18   46 1  
    50   20   47 1  
    51   21   48 1  
    52   21   49 1  
    53   21   50 1  
    54   25   51 1  
    55   25   52 1  
    56   26   53 1  
    57   29   54 1  
    58   29   55 1  
    59   29   56 1  
@<TRIPOS>SUBSTRUCTURE
     1 EMW         1

