### 
### Created by X-TOOL on Wed Jan  1 15:39:36 2020
### 

@<TRIPOS>MOLECULE
6gl8_ligand
   96   104     1     0     0
SMALL
GAST_HUCK


@<TRIPOS>ATOM
      1 C1         15.0910    6.3800   17.6120 C.3       1 F3Q         0.0097
      2 C2         15.5990    7.5680   16.8970 C.3       1 F3Q        -0.0367
      3 C3         16.5210    6.2200   14.9580 C.3       1 F3Q         0.0547
      4 C4         16.8030    7.3170   15.9910 C.3       1 F3Q        -0.0232
      5 C5         15.1790    5.1270   16.7670 C.2       1 F3Q         0.0688
      6 N6         15.8230    5.1150   15.5770 N.pl3     1 F3Q        -0.2605
      7 C7         15.7380    3.8580   15.0710 C.2       1 F3Q         0.0525
      8 C8         15.0320    3.0980   15.9220 C.2       1 F3Q        -0.0626
      9 C9         14.6580    3.9360   17.0410 C.2       1 F3Q         0.0467
     10 C10        13.8950    3.5340   18.2600 C.2       1 F3Q         0.2250
     11 O11        14.1200    4.1940   19.3080 O.2       1 F3Q        -0.3836
     12 N12        13.0320    2.5280   18.2760 N.am      1 F3Q        -0.1818
     13 C13        16.3630    3.4770   13.7780 C.ar      1 F3Q        -0.0086
     14 C14        15.7980    3.8350   12.5950 C.ar      1 F3Q        -0.0319
     15 C15        17.5470    2.7560   13.7450 C.ar      1 F3Q         0.0327
     16 C16        17.5060    2.7920   11.3580 C.ar      1 F3Q         0.1260
     17 C17        16.3320    3.5110   11.3970 C.ar      1 F3Q         0.1253
     18 O18        15.9110    3.7930   10.1600 O.3       1 F3Q        -0.2882
     19 C19        16.8130    3.1650    9.3150 C.3       1 F3Q         0.1876
     20 O20        17.8500    2.6050   10.0450 O.3       1 F3Q        -0.2913
     21 C21        18.2490    2.4210   15.0520 C.2       1 F3Q         0.1951
     22 N22        18.1470    1.2590   15.6090 N.am      1 F3Q        -0.2551
     23 O23        18.8710    3.3900   15.5340 O.2       1 F3Q        -0.3926
     24 C24        18.7320    1.1330   16.9490 C.3       1 F3Q         0.0941
     25 C25        17.5350    0.9100   17.8990 C.3       1 F3Q         0.0068
     26 C26        17.3520    0.1800   15.0900 C.3       1 F3Q         0.0649
     27 C27        16.5130   -0.5610   16.1450 C.ar      1 F3Q        -0.0188
     28 C28        16.5680   -0.1610   17.4960 C.ar      1 F3Q        -0.0367
     29 C29        15.7610   -0.8690   18.3870 C.ar      1 F3Q        -0.0667
     30 C30        14.9080   -1.8850   17.9450 C.ar      1 F3Q        -0.0755
     31 C31        14.8680   -2.2740   16.6130 C.ar      1 F3Q        -0.0754
     32 C32        15.6680   -1.5490   15.7380 C.ar      1 F3Q        -0.0649
     33 C33        19.6240   -0.1160   16.8750 C.3       1 F3Q        -0.0062
     34 C34        18.1130    2.4220   12.5280 C.ar      1 F3Q        -0.0248
     35 N35        20.9950    0.1730   17.3760 N.4       1 F3Q         0.2402
     36 C36        21.4560    1.4510   16.8040 C.3       1 F3Q        -0.0077
     37 C37        22.8920    1.7550   17.2200 C.3       1 F3Q         0.0878
     38 O38        23.7050    0.6030   16.8400 O.3       1 F3Q        -0.3693
     39 C39        23.3110   -0.6450   17.5060 C.3       1 F3Q         0.0878
     40 C40        21.8770   -0.9870   17.0860 C.3       1 F3Q        -0.0077
     41 C41        12.5100    1.9010   17.0800 C.ar      1 F3Q         0.0805
     42 C42        12.5290    2.0460   19.5120 C.ar      1 F3Q         0.0882
     43 C43        11.9250    2.6770   16.0800 C.ar      1 F3Q        -0.0431
     44 C44        11.4560    2.0520   14.9850 C.ar      1 F3Q        -0.0439
     45 C45        11.5230    0.7040   14.7610 C.ar      1 F3Q         0.0742
     46 C46        12.0940   -0.1340   15.7230 C.ar      1 F3Q        -0.0439
     47 C47        12.6120    0.5160   16.8580 C.ar      1 F3Q        -0.0431
     48 C48        11.1640    1.9970   19.7640 C.ar      1 F3Q        -0.0363
     49 C49        10.6730    1.4980   20.9850 C.ar      1 F3Q        -0.0740
     50 C50        11.5770    1.0680   21.9800 C.ar      1 F3Q        -0.0760
     51 C51        12.9160    1.1370   21.7440 C.ar      1 F3Q        -0.0740
     52 C52        13.4290    1.6120   20.5260 C.ar      1 F3Q        -0.0363
     53 O53        11.0770    0.0710   13.6320 O.3       1 F3Q        -0.3417
     54 H1         14.0389    6.5519   17.8831 H         1 F3Q         0.0479
     55 H2         15.6860    6.2343   18.5256 H         1 F3Q         0.0479
     56 H3         15.8884    8.3186   17.6472 H         1 F3Q         0.0293
     57 H4         14.7830    7.9660   16.2759 H         1 F3Q         0.0293
     58 H5         17.4734    5.8600   14.5418 H         1 F3Q         0.0614
     59 H6         15.9005    6.6338   14.1494 H         1 F3Q         0.0614
     60 H7         17.6576    7.0099   16.6118 H         1 F3Q         0.0294
     61 H8         17.0504    8.2490   15.4617 H         1 F3Q         0.0294
     62 H9         14.7858    2.0449   15.7942 H         1 F3Q         0.0330
     63 H10        14.8771    4.4065   12.6134 H         1 F3Q         0.0485
     64 H11        17.2234    3.9029    8.6100 H         1 F3Q         0.0975
     65 H12        16.2943    2.3725    8.7557 H         1 F3Q         0.0975
     66 H13        19.3116    2.0212   17.2408 H         1 F3Q         0.0633
     67 H14        16.9792    1.8567   17.9682 H         1 F3Q         0.0436
     68 H15        17.9355    0.6467   18.8891 H         1 F3Q         0.0436
     69 H16        18.0277   -0.5472   14.6162 H         1 F3Q         0.0670
     70 H17        16.6672    0.5911   14.3337 H         1 F3Q         0.0670
     71 H18        15.7959   -0.6266   19.4430 H         1 F3Q         0.0537
     72 H19        14.2619   -2.3812   18.6602 H         1 F3Q         0.0541
     73 H20        14.2481   -3.0964   16.2747 H         1 F3Q         0.0541
     74 H21        15.6172   -1.7809   14.6803 H         1 F3Q         0.0538
     75 H22        19.6871   -0.4507   15.8291 H         1 F3Q         0.0839
     76 H23        19.1780   -0.9126   17.4886 H         1 F3Q         0.0839
     77 H24        19.0421    1.8643   12.5004 H         1 F3Q         0.0552
     78 H25        20.9564    0.2831   18.3772 H         1 F3Q         0.2036
     79 H26        20.8007    2.2601   17.1587 H         1 F3Q         0.0837
     80 H27        21.4051    1.3923   15.7068 H         1 F3Q         0.0837
     81 H28        22.9443    1.9108   18.3076 H         1 F3Q         0.0613
     82 H29        23.2513    2.6568   16.7027 H         1 F3Q         0.0613
     83 H30        23.3570   -0.5141   18.5972 H         1 F3Q         0.0613
     84 H31        23.9896   -1.4567   17.2051 H         1 F3Q         0.0613
     85 H32        21.8518   -1.2086   16.0089 H         1 F3Q         0.0837
     86 H33        21.5279   -1.8650   17.6493 H         1 F3Q         0.0837
     87 H34        11.8503    3.7536   16.1821 H         1 F3Q         0.0498
     88 H35        10.9891    2.6635   14.2214 H         1 F3Q         0.0511
     89 H36        12.1349   -1.2105   15.6028 H         1 F3Q         0.0511
     90 H37        13.1188   -0.0851   17.6042 H         1 F3Q         0.0498
     91 H38        10.4679    2.3476   19.0106 H         1 F3Q         0.0518
     92 H39         9.6047    1.4441   21.1605 H         1 F3Q         0.0580
     93 H40        11.2079    0.6857   22.9248 H         1 F3Q         0.0497
     94 H41        13.6049    0.8166   22.5172 H         1 F3Q         0.0580
     95 H42        14.4996    1.6478   20.3597 H         1 F3Q         0.0518
     96 H43        10.7066    0.7118   13.0364 H         1 F3Q         0.2438
@<TRIPOS>BOND
     1    1    2 1  
     2    1    5 1  
     3    2    4 1  
     4    4    3 1  
     5    3    6 1  
     6    5    6 1  
     7    5    9 2  
     8    6    7 1  
     9    7    8 2  
    10    7   13 1  
    11    8    9 1  
    12    9   10 1  
    13   10   11 2  
    14   10   12 am 
    15   12   41 1  
    16   12   42 1  
    17   13   14 ar 
    18   13   15 ar 
    19   14   17 ar 
    20   15   21 1  
    21   15   34 ar 
    22   17   16 ar 
    23   16   20 1  
    24   16   34 ar 
    25   17   18 1  
    26   18   19 1  
    27   19   20 1  
    28   21   22 am 
    29   21   23 2  
    30   22   24 1  
    31   22   26 1  
    32   24   25 1  
    33   24   33 1  
    34   25   28 1  
    35   26   27 1  
    36   27   28 ar 
    37   27   32 ar 
    38   28   29 ar 
    39   29   30 ar 
    40   30   31 ar 
    41   31   32 ar 
    42   33   35 1  
    43   35   36 1  
    44   35   40 1  
    45   36   37 1  
    46   37   38 1  
    47   38   39 1  
    48   39   40 1  
    49   41   43 ar 
    50   41   47 ar 
    51   42   48 ar 
    52   42   52 ar 
    53   43   44 ar 
    54   44   45 ar 
    55   45   46 ar 
    56   45   53 1  
    57   46   47 ar 
    58   48   49 ar 
    59   49   50 ar 
    60   50   51 ar 
    61   51   52 ar 
    62    1   54 1  
    63    1   55 1  
    64    2   56 1  
    65    2   57 1  
    66    3   58 1  
    67    3   59 1  
    68    4   60 1  
    69    4   61 1  
    70    8   62 1  
    71   14   63 1  
    72   19   64 1  
    73   19   65 1  
    74   24   66 1  
    75   25   67 1  
    76   25   68 1  
    77   26   69 1  
    78   26   70 1  
    79   29   71 1  
    80   30   72 1  
    81   31   73 1  
    82   32   74 1  
    83   33   75 1  
    84   33   76 1  
    85   34   77 1  
    86   35   78 1  
    87   36   79 1  
    88   36   80 1  
    89   37   81 1  
    90   37   82 1  
    91   39   83 1  
    92   39   84 1  
    93   40   85 1  
    94   40   86 1  
    95   43   87 1  
    96   44   88 1  
    97   46   89 1  
    98   47   90 1  
    99   48   91 1  
   100   49   92 1  
   101   50   93 1  
   102   51   94 1  
   103   52   95 1  
   104   53   96 1  
@<TRIPOS>SUBSTRUCTURE
     1 F3Q         1

