### 
### Created by X-TOOL on Wed Jan  1 15:39:37 2020
### 

@<TRIPOS>MOLECULE
6gl9_ligand
   49    53     1     0     0
SMALL
GAST_HUCK


@<TRIPOS>ATOM
      1 C4         43.8290   -0.4220   67.6070 C.ar      1 F3W        -0.0032
      2 C5         39.9710    1.1100   68.0450 C.2       1 F3W        -0.0600
      3 C6         40.2790    1.8010   69.1690 C.2       1 F3W         0.0219
      4 N1         41.6170    1.6690   69.4520 N.pl3     1 F3W        -0.2732
      5 C7         42.0730   -1.9030   64.9860 C.2       1 F3W         0.1457
      6 C8         41.9750   -2.8040   63.8260 C.ar      1 F3W         0.0411
      7 N2         41.0480   -1.1440   65.5200 N.pl3     1 F3W        -0.2291
      8 C9         40.9720   -3.7570   63.6510 C.ar      1 F3W        -0.0270
      9 C10        41.0000   -4.6460   62.5700 C.ar      1 F3W         0.0037
     10 C11        42.0780   -4.5880   61.6840 C.ar      1 F3W        -0.0411
     11 C12        43.0780   -3.6500   61.8580 C.ar      1 F3W        -0.0497
     12 N3         43.2040   -1.7660   65.6430 N.2       1 F3W        -0.3046
     13 C13        39.9530   -5.6520   62.3870 C.2       1 F3W        -0.0153
     14 C14        39.9920   -6.5710   61.4290 C.2       1 F3W         0.0534
     15 C15        38.9640   -7.5440   61.3400 C.1       1 F3W         0.0686
     16 N4         38.1620   -8.3430   61.2560 N.1       1 F3W        -0.3539
     17 C16        43.0220   -2.7550   62.9130 C.ar      1 F3W        -0.0385
     18 C          42.9260   -0.8770   66.6630 C.ar      1 F3W         0.0461
     19 N          43.5100    0.4610   68.5540 N.ar      1 F3W        -0.3018
     20 C1         41.5920   -0.4510   66.6270 C.ar      1 F3W         0.0935
     21 C2         41.1800    0.4800   67.6070 C.ar      1 F3W         0.0225
     22 C3         42.2230    0.8710   68.5360 C.ar      1 F3W         0.1221
     23 C17        39.6340   -1.0910   65.0830 C.3       1 F3W         0.0684
     24 C22        38.6910   -1.6930   66.1210 C.3       1 F3W        -0.0230
     25 C21        37.2210   -1.5700   65.7160 C.3       1 F3W        -0.0503
     26 C20        36.8820   -0.1580   65.3070 C.3       1 F3W        -0.0529
     27 C19        37.7780    0.3170   64.1890 C.3       1 F3W        -0.0503
     28 C18        39.2410    0.3020   64.6170 C.3       1 F3W        -0.0230
     29 H1         44.8440   -0.8012   67.5754 H         1 F3W         0.0710
     30 H2         38.9943    1.0462   67.5677 H         1 F3W         0.0297
     31 H3         39.5697    2.3769   69.7616 H         1 F3W         0.0918
     32 H4         42.0943    2.1140   70.2489 H         1 F3W         0.2288
     33 H5         40.1571   -3.8103   64.3639 H         1 F3W         0.0731
     34 H6         42.1308   -5.2834   60.8542 H         1 F3W         0.0710
     35 H7         43.9106   -3.6148   61.1648 H         1 F3W         0.0644
     36 H8         39.1029   -5.6468   63.0676 H         1 F3W         0.0909
     37 H9         40.8123   -6.5774   60.7127 H         1 F3W         0.0766
     38 H10        43.8010   -2.0100   63.0279 H         1 F3W         0.0711
     39 H11        39.5589   -1.7383   64.1968 H         1 F3W         0.0643
     40 H12        38.8386   -1.1701   67.0774 H         1 F3W         0.0294
     41 H13        38.9353   -2.7584   66.2441 H         1 F3W         0.0294
     42 H14        36.5889   -1.8576   66.5691 H         1 F3W         0.0266
     43 H15        37.0246   -2.2451   64.8700 H         1 F3W         0.0266
     44 H16        37.0077    0.5067   66.1744 H         1 F3W         0.0265
     45 H17        35.8363   -0.1241   64.9675 H         1 F3W         0.0265
     46 H18        37.4948    1.3433   63.9124 H         1 F3W         0.0266
     47 H19        37.6507   -0.3453   63.3200 H         1 F3W         0.0266
     48 H20        39.8726    0.5923   63.7645 H         1 F3W         0.0294
     49 H21        39.3864    1.0160   65.4410 H         1 F3W         0.0294
@<TRIPOS>BOND
     1    1   18 ar 
     2   19    1 ar 
     3    3    2 2  
     4    2   21 1  
     5    4    3 1  
     6   22    4 1  
     7    5    6 1  
     8    7    5 1  
     9   12    5 2  
    10    6    8 ar 
    11    6   17 ar 
    12   20    7 1  
    13    7   23 1  
    14    8    9 ar 
    15    9   10 ar 
    16    9   13 1  
    17   11   10 ar 
    18   17   11 ar 
    19   18   12 1  
    20   13   14 2  
    21   14   15 1  
    22   15   16 3  
    23   18   20 ar 
    24   19   22 ar 
    25   20   21 ar 
    26   21   22 ar 
    27   23   24 1  
    28   23   28 1  
    29   24   25 1  
    30   25   26 1  
    31   26   27 1  
    32   27   28 1  
    33    1   29 1  
    34    2   30 1  
    35    3   31 1  
    36    4   32 1  
    37    8   33 1  
    38   10   34 1  
    39   11   35 1  
    40   13   36 1  
    41   14   37 1  
    42   17   38 1  
    43   23   39 1  
    44   24   40 1  
    45   24   41 1  
    46   25   42 1  
    47   25   43 1  
    48   26   44 1  
    49   26   45 1  
    50   27   46 1  
    51   27   47 1  
    52   28   48 1  
    53   28   49 1  
@<TRIPOS>SUBSTRUCTURE
     1 F3W         1

