### 
### Created by X-TOOL on Wed Jan  1 15:39:38 2020
### 

@<TRIPOS>MOLECULE
6gla_ligand
   46    50     1     0     0
SMALL
GAST_HUCK


@<TRIPOS>ATOM
      1 C4         -1.6750   22.6170   -2.7390 C.ar      1 F4B        -0.0026
      2 C5          2.1360   21.9460   -4.3610 C.2       1 F4B        -0.0598
      3 C6          1.7370   20.9010   -5.1210 C.2       1 F4B         0.0221
      4 N1          0.3910   20.7050   -4.9740 N.pl3     1 F4B        -0.2730
      5 C7          0.3950   24.9280   -1.1130 C.2       1 F4B         0.1812
      6 C8          0.5280   26.0110   -0.1660 C.2       1 F4B         0.1847
      7 N2          1.3100   24.3380   -1.9600 N.pl3     1 F4B        -0.2273
      8 C9         -0.3280   27.0190    0.1160 C.2       1 F4B        -0.0224
      9 C10         0.2220   27.7460    1.1830 C.2       1 F4B        -0.0269
     10 C11         1.3860   27.1540    1.5120 C.2       1 F4B         0.1429
     11 C12         2.2980   27.4910    2.5730 C.2       1 F4B         0.0085
     12 N3         -0.8170   24.4420   -1.2480 N.2       1 F4B        -0.3018
     13 C13         2.0800   28.4700    3.4500 C.2       1 F4B         0.0437
     14 C14         3.0040   28.7070    4.5070 C.1       1 F4B         0.0535
     15 C15         2.7560   24.5760   -2.2190 C.3       1 F4B         0.0679
     16 N4          3.7450   28.8740    5.3620 N.1       1 F4B        -0.3669
     17 O           1.6060   26.0700    0.6860 O.3       1 F4B        -0.2345
     18 C          -0.7030   23.4700   -2.2370 C.ar      1 F4B         0.0474
     19 N          -1.4120   21.6780   -3.6600 N.ar      1 F4B        -0.3015
     20 C1          0.6010   23.3780   -2.7000 C.ar      1 F4B         0.0941
     21 C2          0.9630   22.4270   -3.6750 C.ar      1 F4B         0.0232
     22 C3         -0.1320   21.6100   -4.0940 C.ar      1 F4B         0.1225
     23 C20         3.6950   23.8940   -1.2370 C.3       1 F4B        -0.0232
     24 C19         5.1300   24.4090   -1.3940 C.3       1 F4B        -0.0504
     25 C18         5.3900   24.9070   -2.8170 C.3       1 F4B        -0.0529
     26 C17         4.4930   26.0990   -3.1690 C.3       1 F4B        -0.0504
     27 C16         3.1190   26.0150   -2.5030 C.3       1 F4B        -0.0232
     28 H1         -2.6902   22.7134   -2.3713 H         1 F4B         0.0710
     29 H2          3.1459   22.3459   -4.2826 H         1 F4B         0.0299
     30 H3          2.3902   20.3041   -5.7558 H         1 F4B         0.0918
     31 H4         -0.1524   19.9767   -5.4591 H         1 F4B         0.2290
     32 H5         -1.2691   27.2278   -0.3906 H         1 F4B         0.0509
     33 H6         -0.2118   28.6253    1.6568 H         1 F4B         0.0554
     34 H7          3.2171   26.9140    2.6641 H         1 F4B         0.0877
     35 H8          1.1908   29.0919    3.3579 H         1 F4B         0.0681
     36 H9          2.9426   24.0594   -3.1721 H         1 F4B         0.0641
     37 H10         3.6808   22.8096   -1.4209 H         1 F4B         0.0294
     38 H11         3.3512   24.0966   -0.2119 H         1 F4B         0.0294
     39 H12         5.8307   23.5920   -1.1668 H         1 F4B         0.0266
     40 H13         5.2923   25.2378   -0.6892 H         1 F4B         0.0266
     41 H14         5.1900   24.0884   -3.5241 H         1 F4B         0.0265
     42 H15         6.4426   25.2151   -2.9009 H         1 F4B         0.0265
     43 H16         4.3550   26.1266   -4.2600 H         1 F4B         0.0266
     44 H17         4.9891   27.0235   -2.8386 H         1 F4B         0.0266
     45 H18         3.1402   26.5765   -1.5573 H         1 F4B         0.0294
     46 H19         2.3646   26.4533   -3.1729 H         1 F4B         0.0294
@<TRIPOS>BOND
     1    1   18 ar 
     2   19    1 ar 
     3    3    2 2  
     4    2   21 1  
     5    4    3 1  
     6   22    4 1  
     7    5    6 1  
     8    7    5 1  
     9   12    5 2  
    10    6    8 2  
    11    6   17 1  
    12    7   15 1  
    13   20    7 1  
    14    8    9 1  
    15   10    9 2  
    16   10   11 1  
    17   17   10 1  
    18   11   13 2  
    19   18   12 1  
    20   13   14 1  
    21   14   16 3  
    22   15   23 1  
    23   15   27 1  
    24   18   20 ar 
    25   19   22 ar 
    26   20   21 ar 
    27   21   22 ar 
    28   23   24 1  
    29   24   25 1  
    30   25   26 1  
    31   26   27 1  
    32    1   28 1  
    33    2   29 1  
    34    3   30 1  
    35    4   31 1  
    36    8   32 1  
    37    9   33 1  
    38   11   34 1  
    39   13   35 1  
    40   15   36 1  
    41   23   37 1  
    42   23   38 1  
    43   24   39 1  
    44   24   40 1  
    45   25   41 1  
    46   25   42 1  
    47   26   43 1  
    48   26   44 1  
    49   27   45 1  
    50   27   46 1  
@<TRIPOS>SUBSTRUCTURE
     1 F4B         1

