### 
### Created by X-TOOL on Wed Jan  1 15:39:38 2020
### 

@<TRIPOS>MOLECULE
6glb_ligand
   48    52     1     0     0
SMALL
GAST_HUCK


@<TRIPOS>ATOM
      1 C4         41.3720   52.0970    4.8560 C.ar      1 F48        -0.0068
      2 C5         37.6240   53.8440    5.4810 C.2       1 F48        -0.0607
      3 C6         38.0360   54.5790    6.5440 C.2       1 F48         0.0214
      4 N1         39.3670   54.3510    6.7910 N.pl3     1 F48        -0.2739
      5 C7         39.3160   50.5920    2.4540 C.2       1 F48         0.1583
      6 C8         39.0130   49.6680    1.3850 C.2       1 F48         0.1606
      7 N2         38.3980   51.4200    3.0560 N.pl3     1 F48        -0.2329
      8 C9         39.6920   49.0770    0.3770 C.2       1 F48        -0.0531
      9 C10        38.7490   48.3040   -0.3580 C.2       1 F48        -0.0521
     10 C11        37.5510   48.4580    0.2450 C.2       1 F48         0.1110
     11 C12        36.1650   47.9260    0.0800 C.3       1 F48         0.0413
     12 N3         40.5240   50.6970    2.9690 N.2       1 F48        -0.3189
     13 C13        35.3530   48.5630   -1.0330 C.3       1 F48         0.0869
     14 C14        33.9980   48.9620   -0.5850 C.1       1 F48         0.0923
     15 C15        36.9660   51.5550    2.6770 C.3       1 F48         0.0667
     16 N4         32.9330   49.2810   -0.2910 N.1       1 F48        -0.3034
     17 O          37.6880   49.2930    1.3180 O.3       1 F48        -0.2477
     18 C          40.3940   51.6410    3.9800 C.ar      1 F48         0.0364
     19 N          41.1250   52.9860    5.8260 N.ar      1 F48        -0.3042
     20 C1         39.0870   52.1240    4.0620 C.ar      1 F48         0.0888
     21 C2         38.7580   53.0950    5.0370 C.ar      1 F48         0.0205
     22 C3         39.8630   53.4520    5.8940 C.ar      1 F48         0.1204
     23 C20        36.6400   52.8880    2.0270 C.3       1 F48        -0.0234
     24 C19        35.2020   52.8820    1.5230 C.3       1 F48        -0.0504
     25 C18        34.2370   52.5390    2.6410 C.3       1 F48        -0.0529
     26 C17        34.5680   51.1790    3.2590 C.3       1 F48        -0.0504
     27 C16        35.9980   51.1410    3.7800 C.3       1 F48        -0.0234
     28 H1         42.3809   51.7153    4.7489 H         1 F48         0.0693
     29 H2         36.6242   53.8276    5.0497 H         1 F48         0.0295
     30 H3         37.4023   55.2528    7.1187 H         1 F48         0.0916
     31 H4         39.9117   54.7945    7.5443 H         1 F48         0.2284
     32 H5         40.7562   49.1735    0.1672 H         1 F48         0.0429
     33 H6         38.9554   47.7013   -1.2412 H         1 F48         0.0287
     34 H7         35.6261   48.0828    1.0260 H         1 F48         0.0507
     35 H8         36.2373   46.8480   -0.1266 H         1 F48         0.0507
     36 H9         35.2545   47.8406   -1.8566 H         1 F48         0.0584
     37 H10        35.8844   49.4571   -1.3910 H         1 F48         0.0584
     38 H11        36.8142   50.8114    1.8807 H         1 F48         0.0638
     39 H12        37.3222   53.0576    1.1809 H         1 F48         0.0294
     40 H13        36.7642   53.6938    2.7654 H         1 F48         0.0294
     41 H14        35.1046   52.1348    0.7216 H         1 F48         0.0266
     42 H15        34.9551   53.8783    1.1275 H         1 F48         0.0266
     43 H16        33.2146   52.5100    2.2364 H         1 F48         0.0265
     44 H17        34.3011   53.3125    3.4204 H         1 F48         0.0265
     45 H18        34.4446   50.3983    2.4940 H         1 F48         0.0266
     46 H19        33.8775   50.9871    4.0935 H         1 F48         0.0266
     47 H20        36.0949   51.8339    4.6288 H         1 F48         0.0294
     48 H21        36.2380   50.1198    4.1110 H         1 F48         0.0294
@<TRIPOS>BOND
     1    1   18 ar 
     2   19    1 ar 
     3    3    2 2  
     4    2   21 1  
     5    4    3 1  
     6   22    4 1  
     7    5    6 1  
     8    7    5 1  
     9   12    5 2  
    10    6    8 2  
    11    6   17 1  
    12    7   15 1  
    13   20    7 1  
    14    8    9 1  
    15   10    9 2  
    16   10   11 1  
    17   17   10 1  
    18   11   13 1  
    19   18   12 1  
    20   13   14 1  
    21   14   16 3  
    22   15   23 1  
    23   15   27 1  
    24   18   20 ar 
    25   19   22 ar 
    26   20   21 ar 
    27   21   22 ar 
    28   23   24 1  
    29   24   25 1  
    30   25   26 1  
    31   26   27 1  
    32    1   28 1  
    33    2   29 1  
    34    3   30 1  
    35    4   31 1  
    36    8   32 1  
    37    9   33 1  
    38   11   34 1  
    39   11   35 1  
    40   13   36 1  
    41   13   37 1  
    42   15   38 1  
    43   23   39 1  
    44   23   40 1  
    45   24   41 1  
    46   24   42 1  
    47   25   43 1  
    48   25   44 1  
    49   26   45 1  
    50   26   46 1  
    51   27   47 1  
    52   27   48 1  
@<TRIPOS>SUBSTRUCTURE
     1 F48         1

