### 
### Created by X-TOOL on Wed Jan  1 15:39:37 2020
### 

@<TRIPOS>MOLECULE
6gmq_ligand
   24    25     1     0     0
SMALL
GAST_HUCK


@<TRIPOS>ATOM
      1 C10        36.4950   56.9630    6.4230 C.2       1 F4K         0.0272
      2 C13        37.2730   58.4090    7.8680 C.2       1 F4K         0.0272
      3 C02        37.3070   53.1000   11.4750 C.3       1 F4K         0.0753
      4 C03        37.1360   54.1940   10.5050 C.ar      1 F4K        -0.0239
      5 C04        36.2790   55.2690   10.7500 C.ar      1 F4K        -0.0615
      6 C05        36.1860   56.2790    9.7870 C.ar      1 F4K        -0.0329
      7 C06        36.9530   56.1860    8.6180 C.ar      1 F4K         0.0875
      8 C07        37.8160   55.1150    8.3910 C.ar      1 F4K        -0.0329
      9 C08        37.9050   54.1170    9.3430 C.ar      1 F4K        -0.0615
     10 C11        36.6060   58.1900    5.7900 C.2       1 F4K        -0.0850
     11 C12        37.0970   59.1110    6.6990 C.2       1 F4K        -0.0850
     12 N09        36.8920   57.1370    7.6830 N.pl3     1 F4K        -0.2452
     13 O01        38.6320   52.7220   11.5030 O.3       1 F4K        -0.3835
     14 H1         36.1489   56.0324    5.9757 H         1 F4K         0.0805
     15 H2         37.6610   58.8215    8.7982 H         1 F4K         0.0805
     16 H3         36.6862   52.2427   11.1758 H         1 F4K         0.0709
     17 H4         37.0012   53.4432   12.4743 H         1 F4K         0.0709
     18 H5         35.6996   55.3195   11.6648 H         1 F4K         0.0543
     19 H6         35.5271   57.1254    9.9434 H         1 F4K         0.0571
     20 H7         38.4070   55.0658    7.4836 H         1 F4K         0.0571
     21 H8         38.5709   53.2760    9.1873 H         1 F4K         0.0543
     22 H9         36.3500   58.3955    4.7517 H         1 F4K         0.0280
     23 H10        37.3005   60.1666    6.5253 H         1 F4K         0.0280
     24 H11        38.7456   52.0159   12.1283 H         1 F4K         0.2124
@<TRIPOS>BOND
     1    1   10 2  
     2   12    1 1  
     3    2   11 2  
     4   12    2 1  
     5    4    3 1  
     6    3   13 1  
     7    5    4 ar 
     8    4    9 ar 
     9    6    5 ar 
    10    7    6 ar 
    11    7    8 ar 
    12    7   12 1  
    13    8    9 ar 
    14   10   11 1  
    15    1   14 1  
    16    2   15 1  
    17    3   16 1  
    18    3   17 1  
    19    5   18 1  
    20    6   19 1  
    21    8   20 1  
    22    9   21 1  
    23   10   22 1  
    24   11   23 1  
    25   13   24 1  
@<TRIPOS>SUBSTRUCTURE
     1 F4K         1

