### 
### Created by X-TOOL on Wed Jan  1 15:39:36 2020
### 

@<TRIPOS>MOLECULE
6gmx_ligand
   19    20     1     0     0
SMALL
GAST_HUCK


@<TRIPOS>ATOM
      1 C02        -4.2950   -8.3570   24.5980 C.2       1 F7B         0.1299
      2 C03        -3.0450   -8.4150   25.4670 C.3       1 F7B         0.0325
      3 C04        -2.1510   -9.6170   25.3190 C.3       1 F7B         0.0234
      4 C06        -3.5950  -10.0850   22.8830 C.ar      1 F7B         0.0356
      5 C07        -4.5610   -9.2560   23.4200 C.ar      1 F7B         0.0453
      6 C08        -5.8100   -9.2350   22.8230 C.ar      1 F7B        -0.0347
      7 C09        -6.0710  -10.0330   21.7230 C.ar      1 F7B         0.0390
      8 C11        -5.0990  -10.8680   21.1860 C.ar      1 F7B        -0.0491
      9 C12        -3.8420  -10.8960   21.7760 C.ar      1 F7B        -0.0429
     10 O01        -5.1430   -7.5160   24.8540 O.2       1 F7B        -0.3825
     11 S05        -2.0320  -10.1020   23.6310 S.3       1 F7B        -0.0931
     12 CL1        -7.6410   -9.9960   21.0060 Cl        1 F7B        -0.0758
     13 H1         -3.3712   -8.3743   26.5167 H         1 F7B         0.0493
     14 H2         -2.4414   -7.5250   25.2358 H         1 F7B         0.0493
     15 H3         -2.5663  -10.4499   25.9053 H         1 F7B         0.0428
     16 H4         -1.1474   -9.3687   25.6946 H         1 F7B         0.0428
     17 H5         -6.5867   -8.5908   23.2189 H         1 F7B         0.0660
     18 H6         -5.3176  -11.4860   20.3227 H         1 F7B         0.0644
     19 H7         -3.0639  -11.5393   21.3814 H         1 F7B         0.0578
@<TRIPOS>BOND
     1    1    2 1  
     2    1    5 1  
     3    1   10 2  
     4    2    3 1  
     5    3   11 1  
     6    5    4 ar 
     7    4    9 ar 
     8    4   11 1  
     9    5    6 ar 
    10    6    7 ar 
    11    7    8 ar 
    12    7   12 1  
    13    8    9 ar 
    14    2   13 1  
    15    2   14 1  
    16    3   15 1  
    17    3   16 1  
    18    6   17 1  
    19    8   18 1  
    20    9   19 1  
@<TRIPOS>SUBSTRUCTURE
     1 F7B         1

