### 
### Created by X-TOOL on Wed Jan  1 15:39:38 2020
### 

@<TRIPOS>MOLECULE
6gn1_ligand
   41    43     1     0     0
SMALL
GAST_HUCK


@<TRIPOS>ATOM
      1 O11       -10.8550   -6.9720  -31.5580 O.2       1 F4N        -0.1435
      2 C7        -12.0850   -3.9360  -31.3250 C.3       1 F4N        -0.0264
      3 C1        -11.1060   -3.8760  -30.3390 C.ar      1 F4N        -0.0129
      4 C2        -10.5790   -2.6440  -29.9450 C.ar      1 F4N        -0.0501
      5 C3         -9.5880   -2.5550  -28.9590 C.ar      1 F4N        -0.0252
      6 C4         -9.1090   -3.7070  -28.3310 C.ar      1 F4N         0.1944
      7 C5         -9.6390   -4.9290  -28.7380 C.ar      1 F4N         0.0020
      8 C6        -10.6190   -5.0290  -29.7260 C.ar      1 F4N         0.1256
      9 N8         -8.1570   -3.6590  -27.3720 N.2       1 F4N         0.3096
     10 O22        -7.6410   -2.4790  -26.9900 O.2       1 F4N         0.1751
     11 O21        -7.6720   -4.8990  -26.7530 O.2       1 F4N         0.1751
     12 S9        -11.1690   -6.6440  -30.0990 S.o2      1 F4N         0.1029
     13 O10       -10.4160   -7.6380  -29.2160 O.2       1 F4N        -0.1435
     14 N12       -12.8200   -6.8280  -29.8030 N.am      1 F4N        -0.1190
     15 C13       -13.7130   -7.0680  -30.9730 C.3       1 F4N         0.0609
     16 N14       -13.1500   -6.2270  -28.7670 N.2       1 F4N        -0.2042
     17 C15       -14.3760   -6.4020  -28.2260 C.2       1 F4N         0.0381
     18 C17       -14.6930   -5.7420  -27.1010 C.2       1 F4N         0.0956
     19 C16       -15.9700   -5.6550  -26.7810 C.2       1 F4N        -0.0223
     20 N20       -16.1050   -4.8650  -25.7270 N.2       1 F4N        -0.3396
     21 C19       -14.8950   -4.4010  -25.4210 C.2       1 F4N         0.1379
     22 N18       -14.0050   -4.8630  -26.3090 N.pl3     1 F4N        -0.1965
     23 C23       -12.6360   -4.5980  -26.2290 C.2       1 F4N         0.0939
     24 C24       -12.2230   -3.7380  -25.2160 C.2       1 F4N         0.0495
     25 BR2       -10.4230   -3.2380  -25.0120 Br        1 F4N        -0.0565
     26 C25       -13.1610   -3.2300  -24.3270 C.2       1 F4N        -0.0514
     27 C26       -14.4950   -3.5870  -24.4490 C.2       1 F4N        -0.0156
     28 H1        -12.3211   -2.9184  -31.6697 H         1 F4N         0.0404
     29 H2        -12.9918   -4.4033  -30.9135 H         1 F4N         0.0404
     30 H3        -11.7165   -4.5336  -32.1718 H         1 F4N         0.0404
     31 H4        -10.9448   -1.7369  -30.4124 H         1 F4N         0.0574
     32 H5         -9.1902   -1.5856  -28.6815 H         1 F4N         0.0676
     33 H6         -9.2764   -5.8367  -28.2694 H         1 F4N         0.0695
     34 H7        -14.7524   -7.1669  -30.6267 H         1 F4N         0.0543
     35 H8        -13.4072   -7.9928  -31.4841 H         1 F4N         0.0543
     36 H9        -13.6382   -6.2213  -31.6712 H         1 F4N         0.0543
     37 H10       -15.0968   -7.0693  -28.6963 H         1 F4N         0.0647
     38 H11       -16.7853   -6.1547  -27.3021 H         1 F4N         0.0510
     39 H12       -11.9265   -5.0427  -26.9253 H         1 F4N         0.1272
     40 H13       -12.8489   -2.5515  -23.5344 H         1 F4N         0.0655
     41 H14       -15.2237   -3.1961  -23.7404 H         1 F4N         0.0588
@<TRIPOS>BOND
     1   12    1 2  
     2    3    2 1  
     3    3    4 ar 
     4    8    3 ar 
     5    4    5 ar 
     6    6    5 ar 
     7    7    6 ar 
     8    6    9 1  
     9    8    7 ar 
    10    8   12 1  
    11    9   10 2  
    12    9   11 2  
    13   12   13 2  
    14   12   14 am 
    15   14   15 1  
    16   14   16 1  
    17   16   17 2  
    18   17   18 1  
    19   18   19 2  
    20   18   22 1  
    21   19   20 1  
    22   20   21 2  
    23   21   22 1  
    24   21   27 1  
    25   22   23 1  
    26   23   24 2  
    27   24   25 1  
    28   24   26 1  
    29   26   27 2  
    30    2   28 1  
    31    2   29 1  
    32    2   30 1  
    33    4   31 1  
    34    5   32 1  
    35    7   33 1  
    36   15   34 1  
    37   15   35 1  
    38   15   36 1  
    39   17   37 1  
    40   19   38 1  
    41   23   39 1  
    42   26   40 1  
    43   27   41 1  
@<TRIPOS>SUBSTRUCTURE
     1 F4N         1

