### 
### Created by X-TOOL on Wed Jan  1 15:39:36 2020
### 

@<TRIPOS>MOLECULE
6gnm_ligand
   28    29     1     0     0
SMALL
GAST_HUCK


@<TRIPOS>ATOM
      1 OAD       -14.9260   -1.8060  -40.9500 O.3       1 27M        -0.3303
      2 CAO       -13.9110   -2.2710  -40.1730 C.ar      1 27M         0.0991
      3 CAJ       -12.6100   -2.2430  -40.6600 C.ar      1 27M         0.0009
      4 CAM       -11.5670   -2.7230  -39.8800 C.ar      1 27M         0.0848
      5 OAB       -10.2480   -2.7030  -40.3670 O.3       1 27M        -0.3323
      6 CAF       -11.8250   -3.2180  -38.6120 C.ar      1 27M        -0.0377
      7 CAH       -13.1240   -3.2400  -38.1270 C.ar      1 27M        -0.0599
      8 CAQ       -14.1760   -2.7710  -38.9030 C.ar      1 27M         0.0475
      9 CAL       -15.5850   -2.8050  -38.3470 C.2       1 27M         0.1336
     10 OAA       -15.8680   -2.0960  -37.3990 O.2       1 27M        -0.3913
     11 CAR       -16.6450   -3.7140  -38.9400 C.ar      1 27M         0.0475
     12 CAI       -16.2940   -4.9040  -39.5610 C.ar      1 27M        -0.0599
     13 CAG       -17.2650   -5.7350  -40.0980 C.ar      1 27M        -0.0377
     14 CAN       -18.6010   -5.3790  -40.0160 C.ar      1 27M         0.0848
     15 OAC       -19.5910   -6.2170  -40.5610 O.3       1 27M        -0.3323
     16 CAK       -18.9600   -4.1920  -39.3970 C.ar      1 27M         0.0009
     17 CAP       -17.9860   -3.3620  -38.8610 C.ar      1 27M         0.0991
     18 OAE       -18.3480   -2.1970  -38.2520 O.3       1 27M        -0.3303
     19 H1        -14.9650   -2.3110  -41.7537 H         1 27M         0.2507
     20 H2        -12.4096   -1.8464  -41.6488 H         1 27M         0.0475
     21 H3         -9.6639   -3.0651  -39.7111 H         1 27M         0.2499
     22 H4        -11.0113   -3.5882  -37.9989 H         1 27M         0.0471
     23 H5        -13.3200   -3.6267  -37.1335 H         1 27M         0.0616
     24 H6        -15.2496   -5.1869  -39.6270 H         1 27M         0.0616
     25 H7        -16.9791   -6.6621  -40.5814 H         1 27M         0.0471
     26 H8        -20.4462   -5.8281  -40.4200 H         1 27M         0.2499
     27 H9        -20.0050   -3.9113  -39.3315 H         1 27M         0.0475
     28 H10       -17.5703   -1.7484  -37.9415 H         1 27M         0.2507
@<TRIPOS>BOND
     1    1    2 1  
     2    2    3 ar 
     3    2    8 ar 
     4    3    4 ar 
     5    4    5 1  
     6    4    6 ar 
     7    6    7 ar 
     8    7    8 ar 
     9    8    9 1  
    10    9   10 2  
    11    9   11 1  
    12   11   12 ar 
    13   11   17 ar 
    14   12   13 ar 
    15   13   14 ar 
    16   14   15 1  
    17   14   16 ar 
    18   16   17 ar 
    19   17   18 1  
    20    1   19 1  
    21    3   20 1  
    22    5   21 1  
    23    6   22 1  
    24    7   23 1  
    25   12   24 1  
    26   13   25 1  
    27   15   26 1  
    28   16   27 1  
    29   18   28 1  
@<TRIPOS>SUBSTRUCTURE
     1 27M         1

