### 
### Created by X-TOOL on Wed Jan  1 15:39:35 2020
### 

@<TRIPOS>MOLECULE
6gnp_ligand
   12    12     1     0     0
SMALL
GAST_HUCK


@<TRIPOS>ATOM
      1 C01       -16.5390    4.4130   38.8050 C.2       1 F4Z        -0.0025
      2 C02       -17.7640    4.9480   38.9980 C.2       1 F4Z         0.0959
      3 C03       -18.9880    4.2220   38.7130 C.2       1 F4Z         0.1761
      4 O04       -20.1350    4.6640   38.8710 O.2       1 F4Z        -0.3984
      5 N05       -18.7970    2.9560   38.2350 N.2       1 F4Z        -0.2364
      6 C06       -17.5590    2.4500   38.0530 C.2       1 F4Z         0.1631
      7 C07       -16.4150    3.0990   38.3080 C.3       1 F4Z         0.1518
      8 CL8       -14.8520    2.4000   38.0550 Cl        1 F4Z        -0.0680
      9 CL9       -17.4990    0.8340   37.4400 Cl        1 F4Z         0.0063
     10 CL1       -17.9290    6.5580   39.6070 Cl        1 F4Z        -0.0813
     11 H1        -15.6477    4.9958   39.0330 H         1 F4Z         0.0923
     12 H2        -16.4132    2.6978   39.3322 H         1 F4Z         0.1011
@<TRIPOS>BOND
     1    1    2 2  
     2    1    7 1  
     3    2    3 1  
     4    2   10 1  
     5    3    4 2  
     6    3    5 1  
     7    5    6 2  
     8    6    7 1  
     9    6    9 1  
    10    7    8 1  
    11    1   11 1  
    12    7   12 1  
@<TRIPOS>SUBSTRUCTURE
     1 F4Z         1

