### 
### Created by X-TOOL on Wed Jan  1 15:39:34 2020
### 

@<TRIPOS>MOLECULE
6gnr_ligand
   28    29     1     0     0
SMALL
GAST_HUCK


@<TRIPOS>ATOM
      1 O01         1.2440    0.5550    0.1730 O.co2     1 6J3        -0.5627
      2 C02         1.7480    1.7530    0.1420 C.2       1 6J3         0.0642
      3 O03         2.9230    1.9980    0.3980 O.co2     1 6J3        -0.5627
      4 C04         0.8550    2.8960   -0.2280 C.ar      1 6J3         0.0593
      5 C05        -0.4470    2.6380   -0.6410 C.ar      1 6J3        -0.0390
      6 C06        -1.2910    3.7100   -0.9940 C.ar      1 6J3        -0.0437
      7 C07        -0.7680    5.0160   -0.9030 C.ar      1 6J3        -0.0005
      8 N08         0.5010    5.3010   -0.5040 N.ar      1 6J3        -0.2778
      9 C09         1.2980    4.2630   -0.1680 C.ar      1 6J3         0.1450
     10 N10         2.5600    4.5250    0.2290 N.pl3     1 6J3        -0.2608
     11 C11         3.1940    5.7320    0.4730 C.ar      1 6J3         0.0651
     12 C12         4.1330    6.1800   -0.4530 C.ar      1 6J3        -0.0079
     13 C13         4.4290    5.4190   -1.7360 C.3       1 6J3        -0.0329
     14 C14         4.7860    7.3840   -0.1620 C.ar      1 6J3         0.0317
     15 CL          5.9580    8.0210   -1.2710 Cl        1 6J3        -0.0806
     16 C16         4.5570    8.1280    0.9950 C.ar      1 6J3        -0.0664
     17 C17         3.6180    7.6360    1.9170 C.ar      1 6J3        -0.0781
     18 C18         2.9500    6.4560    1.6660 C.ar      1 6J3        -0.0448
     19 H1         -0.8110    1.6182   -0.6912 H         1 6J3         0.0734
     20 H2         -2.3086    3.5361   -1.3245 H         1 6J3         0.0609
     21 H3         -1.4165    5.8435   -1.1670 H         1 6J3         0.0804
     22 H4          3.1480    3.6919    0.3744 H         1 6J3         0.2119
     23 H5          3.8150    4.5070   -1.7713 H         1 6J3         0.0370
     24 H6          5.4940    5.1452   -1.7625 H         1 6J3         0.0370
     25 H7          4.1920    6.0543   -2.6022 H         1 6J3         0.0370
     26 H8          5.0865    9.0562    1.1772 H         1 6J3         0.0506
     27 H9          3.4178    8.1862    2.8293 H         1 6J3         0.0530
     28 H10         2.2330    6.0797    2.3867 H         1 6J3         0.0515
@<TRIPOS>BOND
     1    1    2 ar 
     2    2    3 ar 
     3    2    4 1  
     4    4    5 ar 
     5    4    9 ar 
     6    5    6 ar 
     7    6    7 ar 
     8    7    8 ar 
     9    8    9 ar 
    10    9   10 1  
    11   10   11 1  
    12   11   12 ar 
    13   11   18 ar 
    14   12   13 1  
    15   12   14 ar 
    16   14   15 1  
    17   14   16 ar 
    18   16   17 ar 
    19   17   18 ar 
    20    5   19 1  
    21    6   20 1  
    22    7   21 1  
    23   10   22 1  
    24   13   23 1  
    25   13   24 1  
    26   13   25 1  
    27   16   26 1  
    28   17   27 1  
    29   18   28 1  
@<TRIPOS>SUBSTRUCTURE
     1 6J3         1

