### 
### Created by X-TOOL on Wed Jan  1 15:39:35 2020
### 

@<TRIPOS>MOLECULE
6gnw_ligand
   18    18     1     0     0
SMALL
GAST_HUCK


@<TRIPOS>ATOM
      1 O01       -18.0600   -3.0850  -38.4050 O.co2     1 F52        -0.5662
      2 C02       -16.9020   -3.6660  -38.3030 C.2       1 F52         0.0654
      3 O03       -16.3070   -4.1500  -39.2720 O.co2     1 F52        -0.5662
      4 C04       -16.3000   -3.7280  -36.9270 C.3       1 F52         0.1229
      5 O05       -15.2090   -2.8250  -36.8070 O.3       1 F52        -0.3028
      6 C06       -14.1870   -2.9500  -37.7240 C.ar      1 F52         0.1086
      7 C07       -14.2350   -2.4180  -38.9990 C.ar      1 F52        -0.0178
      8 C08       -13.1740   -2.5790  -39.8700 C.ar      1 F52         0.0459
      9 CL1       -13.2870   -1.8900  -41.4590 Cl        1 F52        -0.0726
     10 C10       -12.0360   -3.2820  -39.4770 C.ar      1 F52         0.0430
     11 CL2       -10.6970   -3.4950  -40.5560 Cl        1 F52        -0.0803
     12 C12       -11.9660   -3.8310  -38.1880 C.ar      1 F52        -0.0421
     13 C13       -13.0550   -3.6530  -37.3230 C.ar      1 F52         0.0688
     14 CL3       -12.9820   -4.3260  -35.7260 Cl        1 F52        -0.0785
     15 H1        -15.9429   -4.7508  -36.7363 H         1 F52         0.0786
     16 H2        -17.0687   -3.4638  -36.1858 H         1 F52         0.0786
     17 H3        -15.1134   -1.8692  -39.3188 H         1 F52         0.0548
     18 H4        -11.0887   -4.3811  -37.8675 H         1 F52         0.0601
@<TRIPOS>BOND
     1    1    2 ar 
     2    2    3 ar 
     3    2    4 1  
     4    4    5 1  
     5    5    6 1  
     6    6    7 ar 
     7    6   13 ar 
     8    7    8 ar 
     9    8    9 1  
    10    8   10 ar 
    11   10   11 1  
    12   10   12 ar 
    13   12   13 ar 
    14   13   14 1  
    15    4   15 1  
    16    4   16 1  
    17    7   17 1  
    18   12   18 1  
@<TRIPOS>SUBSTRUCTURE
     1 F52         1

