### 
### Created by X-TOOL on Wed Jan  1 15:39:35 2020
### 

@<TRIPOS>MOLECULE
6gon_ligand
   25    24     1     0     0
SMALL
GAST_HUCK


@<TRIPOS>ATOM
      1 C13        13.8380   -3.3030   38.5280 C.3       1 8PF         0.3840
      2 C16        12.7170   -2.4900   39.1380 C.3       1 8PF         0.3868
      3 C19        11.3820   -3.0190   38.6620 C.3       1 8PF         0.4087
      4 C10        15.1500   -2.5650   38.6840 C.3       1 8PF         0.3834
      5 C22        10.9940   -2.6650   37.2440 C.3       1 8PF         0.4603
      6 F01        16.3460   -4.3640   39.5120 F         1 8PF        -0.1930
      7 C02        16.3040   -3.5200   38.4730 C.3       1 8PF         0.3831
      8 F03        16.0650   -4.2290   37.3620 F         1 8PF        -0.1930
      9 C04        17.6630   -2.8680   38.3360 C.3       1 8PF         0.3585
     10 F05        17.7990   -1.8990   39.2510 F         1 8PF        -0.1951
     11 F06        17.7720   -2.2870   37.1340 F         1 8PF        -0.1951
     12 C07        18.7750   -3.9220   38.5150 C.2       1 8PF         0.1198
     13 O08        19.6910   -3.5890   39.3120 O.co2     1 8PF        -0.5421
     14 O09        18.7680   -5.0270   37.9120 O.co2     1 8PF        -0.5421
     15 F11        15.2180   -1.5680   37.7930 F         1 8PF        -0.1921
     16 F12        15.2240   -2.0260   39.9070 F         1 8PF        -0.1921
     17 F14        13.9050   -4.4840   39.1540 F         1 8PF        -0.1920
     18 F15        13.5760   -3.4930   37.2280 F         1 8PF        -0.1920
     19 F17        12.8460   -1.2040   38.7860 F         1 8PF        -0.1919
     20 F18        12.7500   -2.6010   40.4720 F         1 8PF        -0.1919
     21 F20        10.4330   -2.5510   39.4820 F         1 8PF        -0.1889
     22 F21        11.4030   -4.3540   38.7660 F         1 8PF        -0.1889
     23 F23         9.8180   -3.2320   36.9470 F         1 8PF        -0.1648
     24 F24        11.9320   -3.1130   36.3990 F         1 8PF        -0.1648
     25 F25        10.8890   -1.3350   37.1290 F         1 8PF        -0.1648
@<TRIPOS>BOND
     1    1    2 1  
     2    1    4 1  
     3    1   17 1  
     4    1   18 1  
     5    2    3 1  
     6    2   19 1  
     7    2   20 1  
     8    3    5 1  
     9    3   21 1  
    10    3   22 1  
    11    4    7 1  
    12    4   15 1  
    13    4   16 1  
    14    5   23 1  
    15    5   24 1  
    16    5   25 1  
    17    7    6 1  
    18    7    8 1  
    19    7    9 1  
    20    9   10 1  
    21    9   11 1  
    22    9   12 1  
    23   12   13 ar 
    24   12   14 ar 
@<TRIPOS>SUBSTRUCTURE
     1 8PF         1

