### 
### Created by X-TOOL on Wed Jan  1 15:39:35 2020
### 

@<TRIPOS>MOLECULE
6goo_ligand
   25    24     1     0     0
SMALL
GAST_HUCK


@<TRIPOS>ATOM
      1 C13         4.1220   -6.8820   19.1350 C.3       1 8PF         0.3840
      2 C16         4.6510   -8.0220   19.9770 C.3       1 8PF         0.3868
      3 C19         5.4050   -9.0000   19.1030 C.3       1 8PF         0.4087
      4 C10         3.0650   -6.1220   19.9060 C.3       1 8PF         0.3834
      5 C22         4.5570   -9.8940   18.2250 C.3       1 8PF         0.4603
      6 F01         3.8980   -4.0000   19.5090 F         1 8PF        -0.1930
      7 C02         2.8320   -4.7720   19.2630 C.3       1 8PF         0.3831
      8 F03         2.7340   -4.9490   17.9390 F         1 8PF        -0.1930
      9 C04         1.5960   -4.0390   19.7360 C.3       1 8PF         0.3585
     10 F05         1.4900   -4.1310   21.0670 F         1 8PF        -0.1951
     11 F06         0.5000   -4.6080   19.2170 F         1 8PF        -0.1951
     12 C07         1.6690   -2.5560   19.3140 C.2       1 8PF         0.1198
     13 O08         1.7820   -1.7320   20.2590 O.co2     1 8PF        -0.5421
     14 O09         1.6190   -2.1960   18.1090 O.co2     1 8PF        -0.5421
     15 F11         1.9230   -6.8210   19.9200 F         1 8PF        -0.1921
     16 F12         3.4600   -5.9580   21.1750 F         1 8PF        -0.1921
     17 F14         5.1370   -6.0630   18.8290 F         1 8PF        -0.1920
     18 F15         3.5910   -7.3840   18.0130 F         1 8PF        -0.1920
     19 F17         3.6350   -8.6460   20.5860 F         1 8PF        -0.1919
     20 F18         5.5070   -7.5490   20.8930 F         1 8PF        -0.1919
     21 F20         6.1480   -9.7810   19.8970 F         1 8PF        -0.1889
     22 F21         6.2290   -8.3020   18.3120 F         1 8PF        -0.1889
     23 F23         5.3130  -10.8820   17.7310 F         1 8PF        -0.1648
     24 F24         4.0470   -9.1750   17.2160 F         1 8PF        -0.1648
     25 F25         3.5590  -10.4150   18.9500 F         1 8PF        -0.1648
@<TRIPOS>BOND
     1    1    2 1  
     2    1    4 1  
     3    1   17 1  
     4    1   18 1  
     5    2    3 1  
     6    2   19 1  
     7    2   20 1  
     8    3    5 1  
     9    3   21 1  
    10    3   22 1  
    11    4    7 1  
    12    4   15 1  
    13    4   16 1  
    14    5   23 1  
    15    5   24 1  
    16    5   25 1  
    17    7    6 1  
    18    7    8 1  
    19    7    9 1  
    20    9   10 1  
    21    9   11 1  
    22    9   12 1  
    23   12   13 ar 
    24   12   14 ar 
@<TRIPOS>SUBSTRUCTURE
     1 8PF         1

