### 
### Created by X-TOOL on Wed Jan  1 15:39:37 2020
### 

@<TRIPOS>MOLECULE
6gop_ligand
   46    47     1     0     0
SMALL
GAST_HUCK


@<TRIPOS>ATOM
      1 C4         62.7660 -137.5940   41.8480 C.3       1 F6K         0.1158
      2 C6         64.1270 -138.1550   41.4150 C.3       1 F6K        -0.0323
      3 C7         62.7200 -136.1280   42.2640 C.3       1 F6K         0.1721
      4 C8         63.6210 -135.1520   41.4150 C.3       1 F6K         0.0979
      5 C10        62.7730 -133.0980   42.6130 C.2       1 F6K        -0.0933
      6 C13        65.0030 -131.6820   41.9800 C.3       1 F6K        -0.0446
      7 C21        59.8790 -140.9450   41.5460 C.3       1 F6K         0.0227
      8 CL         59.1440 -141.2860   43.1560 Cl        1 F6K        -0.1254
      9 C1         60.2550 -139.4900   41.5950 C.3       1 F6K        -0.0371
     10 C2         61.1980 -139.0560   40.4540 C.3       1 F6K        -0.0296
     11 C3         61.7600 -137.6370   40.6860 C.3       1 F6K         0.0783
     12 O5         62.3560 -138.3710   43.0000 O.3       1 F6K        -0.3849
     13 C19        60.8020 -136.6910   41.0690 C.2       1 F6K         0.1809
     14 O20        59.6500 -136.6330   40.6340 O.2       1 F6K        -0.3969
     15 N18        61.2880 -135.8260   41.9590 N.am      1 F6K        -0.2734
     16 C16        62.9500 -136.0520   43.6620 C.2       1 F6K         0.1558
     17 O17        62.1120 -135.5540   44.4220 O.2       1 F6K        -0.3113
     18 O15        63.0600 -134.9020   40.1120 O.3       1 F6K        -0.3884
     19 C9         63.8980 -133.8050   42.1390 C.3       1 F6K         0.0031
     20 C14        64.7800 -132.9990   41.2560 C.3       1 F6K        -0.0398
     21 C12        63.7350 -130.9460   42.1670 C.3       1 F6K        -0.0363
     22 C11        62.7260 -131.7270   42.7050 C.2       1 F6K        -0.0983
     23 H1         64.0169 -139.2152   41.1434 H         1 F6K         0.0258
     24 H2         64.8430 -138.0616   42.2449 H         1 F6K         0.0258
     25 H3         64.4968 -137.5905   40.5464 H         1 F6K         0.0258
     26 H4         64.5897 -135.6525   41.2695 H         1 F6K         0.0626
     27 H5         61.8973 -133.6671   42.9217 H         1 F6K         0.0453
     28 H6         65.6928 -131.0615   41.3891 H         1 F6K         0.0286
     29 H7         65.4464 -131.8864   42.9657 H         1 F6K         0.0286
     30 H8         59.1523 -141.1304   40.7413 H         1 F6K         0.0429
     31 H9         60.7700 -141.5701   41.3867 H         1 F6K         0.0429
     32 H10        60.7562 -139.2926   42.5541 H         1 F6K         0.0278
     33 H11        59.3347 -138.8909   41.5321 H         1 F6K         0.0278
     34 H12        60.6398 -139.0677   39.5063 H         1 F6K         0.0293
     35 H13        62.0361 -139.7660   40.3947 H         1 F6K         0.0293
     36 H14        62.2463 -137.3122   39.7544 H         1 F6K         0.0565
     37 H15        62.9528 -138.2061   43.7205 H         1 F6K         0.2102
     38 H16        60.7659 -135.0771   42.3671 H         1 F6K         0.1836
     39 H17        63.8813 -136.4393   44.0727 H         1 F6K         0.1367
     40 H18        63.6287 -134.3119   39.6315 H         1 F6K         0.2099
     41 H19        64.4825 -134.0511   43.0377 H         1 F6K         0.0447
     42 H20        65.7381 -133.5157   41.0978 H         1 F6K         0.0290
     43 H21        64.2929 -132.8243   40.2853 H         1 F6K         0.0290
     44 H22        63.4017 -130.5693   41.1888 H         1 F6K         0.0388
     45 H23        63.9192 -130.0981   42.8431 H         1 F6K         0.0388
     46 H24        61.8855 -131.2498   43.2068 H         1 F6K         0.0450
@<TRIPOS>BOND
     1    1    2 1  
     2    3    1 1  
     3    1   11 1  
     4    1   12 1  
     5    4    3 1  
     6    3   15 1  
     7    3   16 1  
     8    4   18 1  
     9   19    4 1  
    10   19    5 1  
    11    5   22 2  
    12   20    6 1  
    13    6   21 1  
    14    7    8 1  
    15    9    7 1  
    16   10    9 1  
    17   11   10 1  
    18   13   11 1  
    19   13   14 2  
    20   15   13 am 
    21   16   17 2  
    22   19   20 1  
    23   21   22 1  
    24    2   23 1  
    25    2   24 1  
    26    2   25 1  
    27    4   26 1  
    28    5   27 1  
    29    6   28 1  
    30    6   29 1  
    31    7   30 1  
    32    7   31 1  
    33    9   32 1  
    34    9   33 1  
    35   10   34 1  
    36   10   35 1  
    37   11   36 1  
    38   12   37 1  
    39   15   38 1  
    40   16   39 1  
    41   18   40 1  
    42   19   41 1  
    43   20   42 1  
    44   20   43 1  
    45   21   44 1  
    46   21   45 1  
    47   22   46 1  
@<TRIPOS>SUBSTRUCTURE
     1 F6K         1

