### 
### Created by X-TOOL on Wed Jan  1 15:39:37 2020
### 

@<TRIPOS>MOLECULE
6got_ligand
   34    35     1     0     0
SMALL
GAST_HUCK


@<TRIPOS>ATOM
      1 C1         -4.1330    2.2960   15.5240 C.ar      1 F6W        -0.0412
      2 C2         -3.7060    3.4140   14.7930 C.ar      1 F6W        -0.0480
      3 C3         -6.3110    3.2380   15.6620 C.ar      1 F6W        -0.0412
      4 C4         -5.9020    4.3690   14.9420 C.ar      1 F6W        -0.0480
      5 C5         -4.5900    4.4550   14.5090 C.ar      1 F6W         0.0156
      6 C6         -2.2850    5.6870   13.5170 C.3       1 F6W         0.0167
      7 C11        -1.4850   10.6060   13.2360 C.ar      1 F6W        -0.0687
      8 O1         -7.3640    0.8210   16.7420 O.2       1 F6W        -0.1514
      9 S          -5.9450    0.8530   16.7900 S.o2      1 F6W         0.0628
     10 O          -5.4660    0.9050   18.1350 O.2       1 F6W        -0.1514
     11 N          -5.4040   -0.5290   16.0920 N.am      1 F6W        -0.2617
     12 C          -5.4420    2.1790   15.9900 C.ar      1 F6W         0.1010
     13 S1         -4.0290    5.7640   13.5980 S.3       1 F6W        -0.0996
     14 C7         -1.7240    6.5880   14.6060 C.3       1 F6W        -0.0080
     15 C8         -1.6320    7.9920   14.1050 C.ar      1 F6W        -0.0421
     16 C13        -1.9900    8.2800   12.7930 C.ar      1 F6W        -0.0603
     17 C12        -1.9200    9.6030   12.3750 C.ar      1 F6W        -0.0686
     18 C10        -1.1290   10.3010   14.5410 C.ar      1 F6W        -0.0686
     19 C9         -1.2000    8.9890   14.9780 C.ar      1 F6W        -0.0603
     20 H1         -3.4261    1.5010   15.7325 H         1 F6W         0.0619
     21 H2         -2.6806    3.4697   14.4458 H         1 F6W         0.0565
     22 H3         -7.3450    3.1753   15.9815 H         1 F6W         0.0619
     23 H4         -6.6043    5.1663   14.7270 H         1 F6W         0.0565
     24 H5         -1.9413    6.0342   12.5314 H         1 F6W         0.0424
     25 H6         -1.9490    4.6522   13.6789 H         1 F6W         0.0424
     26 H7         -1.4242   11.6298   12.8851 H         1 F6W         0.0559
     27 H8         -5.6424   -0.7365   15.1432 H         1 F6W         0.1634
     28 H9         -4.8358   -1.1642   16.6152 H         1 F6W         0.1634
     29 H10        -0.7216    6.2357   14.8907 H         1 F6W         0.0436
     30 H11        -2.3868    6.5563   15.4833 H         1 F6W         0.0436
     31 H12        -2.3137    7.4967   12.1172 H         1 F6W         0.0557
     32 H13        -2.2089    9.8581   11.3618 H         1 F6W         0.0599
     33 H14        -0.7977   11.0836   15.2139 H         1 F6W         0.0599
     34 H15        -0.9207    8.7383   15.9950 H         1 F6W         0.0557
@<TRIPOS>BOND
     1    2    1 ar 
     2    1   12 ar 
     3    5    2 ar 
     4    4    3 ar 
     5    3   12 ar 
     6    5    4 ar 
     7   13    5 1  
     8    6   13 1  
     9   14    6 1  
    10   17    7 ar 
    11    7   18 ar 
    12    9    8 2  
    13    9   10 2  
    14    9   11 am 
    15   12    9 1  
    16   15   14 1  
    17   16   15 ar 
    18   15   19 ar 
    19   16   17 ar 
    20   18   19 ar 
    21    1   20 1  
    22    2   21 1  
    23    3   22 1  
    24    4   23 1  
    25    6   24 1  
    26    6   25 1  
    27    7   26 1  
    28   11   27 1  
    29   11   28 1  
    30   14   29 1  
    31   14   30 1  
    32   16   31 1  
    33   17   32 1  
    34   18   33 1  
    35   19   34 1  
@<TRIPOS>SUBSTRUCTURE
     1 F6W         1

