### 
### Created by X-TOOL on Wed Jan  1 15:39:37 2020
### 

@<TRIPOS>MOLECULE
6gqm_ligand
   61    64     1     0     0
SMALL
GAST_HUCK


@<TRIPOS>ATOM
      1 C1         28.2260  103.7790   12.3340 C.3       1 F8H        -0.0123
      2 C2         28.2840  102.7610   13.4620 C.3       1 F8H        -0.0558
      3 C3         28.7640  103.2220   11.0140 C.2       1 F8H         0.0397
      4 N6         36.9090   96.4960    9.9000 N.ar      1 F8H        -0.2583
      5 C7         32.7950   98.6430    8.2970 C.ar      1 F8H         0.0567
      6 C8         34.0940   98.5750    7.8180 C.ar      1 F8H        -0.0485
      7 C9         34.8600   97.4500    8.0420 C.ar      1 F8H        -0.0488
      8 C10        34.3400   96.3740    8.7590 C.ar      1 F8H         0.0548
      9 C11        33.0400   96.4420    9.2520 C.ar      1 F8H        -0.0488
     10 C12        32.2720   97.5700    9.0230 C.ar      1 F8H        -0.0485
     11 C13        36.3630   95.3040    9.6210 C.ar      1 F8H         0.1550
     12 C14        37.0040   94.0640   10.0100 C.ar      1 F8H         0.0844
     13 C15        38.2450   94.2300   10.6980 C.ar      1 F8H         0.0317
     14 C16        38.9630   93.0900   11.1280 C.ar      1 F8H        -0.0201
     15 C19        36.5720   92.7330    9.7960 C.ar      1 F8H         0.1536
     16 C20        40.3530   90.7940   11.9630 C.3       1 F8H         0.0955
     17 C21        40.7420   89.4560   12.4880 C.3       1 F8H         0.0753
     18 C22        40.1870   87.9140   14.1960 C.3       1 F8H         0.0366
     19 F          35.4060   92.5430    9.1450 F         1 F8H        -0.1755
     20 C18        37.2550   91.6360   10.2120 C.ar      1 F8H         0.0110
     21 C17        38.4580   91.8310   10.8800 C.ar      1 F8H         0.0953
     22 O1         39.0950   90.6780   11.2680 O.3       1 F8H        -0.3120
     23 O2         39.7870   89.0570   13.4540 O.3       1 F8H        -0.3803
     24 N5         38.7850   95.4650   10.9640 N.ar      1 F8H        -0.3026
     25 C23        38.0770   96.4910   10.5510 C.ar      1 F8H         0.0547
     26 N4         35.1730   95.2680    8.9590 N.pl3     1 F8H        -0.2545
     27 N3         32.1090   99.8470    8.0250 N.am      1 F8H        -0.2371
     28 C6         31.4520  100.5800    8.9580 C.2       1 F8H         0.2348
     29 O          31.2580  100.1890   10.1070 O.2       1 F8H        -0.3828
     30 C5         30.9220  101.9200    8.4740 C.3       1 F8H         0.1686
     31 N          29.9020  102.4380    9.3740 N.pl3     1 F8H        -0.1618
     32 C4         30.0170  102.8430   10.6490 C.2       1 F8H         0.0723
     33 N1         28.6340  102.5530    8.9540 N.2       1 F8H        -0.0996
     34 N2         27.9410  103.0330    9.9580 N.2       1 F8H        -0.2261
     35 C          28.9770  105.0180   12.7220 C.3       1 F8H        -0.0558
     36 H1         27.1713  104.0499   12.1788 H         1 F8H         0.0410
     37 H2         27.8870  103.2118   14.3835 H         1 F8H         0.0248
     38 H3         29.3274  102.4529   13.6246 H         1 F8H         0.0248
     39 H4         27.6796  101.8819   13.1940 H         1 F8H         0.0248
     40 H5         34.5096   99.4096    7.2650 H         1 F8H         0.0481
     41 H6         35.8726   97.4025    7.6580 H         1 F8H         0.0510
     42 H7         32.6295   95.6116    9.8151 H         1 F8H         0.0510
     43 H8         31.2602   97.6214    9.4086 H         1 F8H         0.0481
     44 H9         39.9059   93.2053   11.6501 H         1 F8H         0.0464
     45 H10        41.1256   91.1568   11.2691 H         1 F8H         0.0641
     46 H11        40.2488   91.5020   12.7984 H         1 F8H         0.0641
     47 H12        41.7373   89.5148   12.9526 H         1 F8H         0.0587
     48 H13        40.7641   88.7266   11.6649 H         1 F8H         0.0587
     49 H14        39.4044   87.6581   14.9254 H         1 F8H         0.0524
     50 H15        41.1258   88.1313   14.7265 H         1 F8H         0.0524
     51 H16        40.3406   87.0673   13.5108 H         1 F8H         0.0524
     52 H17        36.8735   90.6380   10.0287 H         1 F8H         0.0562
     53 H18        38.4966   97.4668   10.7673 H         1 F8H         0.1047
     54 H19        34.8645   94.3619    8.5786 H         1 F8H         0.2190
     55 H20        32.1075  100.1811    7.0825 H         1 F8H         0.2226
     56 H21        30.4857  101.7928    7.4723 H         1 F8H         0.0898
     57 H22        31.7539  102.6379    8.4232 H         1 F8H         0.0898
     58 H23        30.9191  102.8634   11.2587 H         1 F8H         0.0900
     59 H24        28.9295  105.7479   11.9004 H         1 F8H         0.0248
     60 H25        30.0274  104.7618   12.9245 H         1 F8H         0.0248
     61 H26        28.5249  105.4530   13.6255 H         1 F8H         0.0248
@<TRIPOS>BOND
     1    1    2 1  
     2    3    1 1  
     3    1   35 1  
     4   32    3 2  
     5    3   34 1  
     6   11    4 ar 
     7    4   25 ar 
     8    5    6 ar 
     9    5   10 ar 
    10   27    5 1  
    11    6    7 ar 
    12    7    8 ar 
    13    9    8 ar 
    14    8   26 1  
    15   10    9 ar 
    16   11   12 ar 
    17   26   11 1  
    18   12   13 ar 
    19   12   15 ar 
    20   13   14 ar 
    21   13   24 ar 
    22   14   21 ar 
    23   15   19 1  
    24   15   20 ar 
    25   16   17 1  
    26   22   16 1  
    27   17   23 1  
    28   23   18 1  
    29   20   21 ar 
    30   21   22 1  
    31   25   24 ar 
    32   28   27 am 
    33   28   29 2  
    34   30   28 1  
    35   31   30 1  
    36   31   32 1  
    37   31   33 1  
    38   33   34 2  
    39    1   36 1  
    40    2   37 1  
    41    2   38 1  
    42    2   39 1  
    43    6   40 1  
    44    7   41 1  
    45    9   42 1  
    46   10   43 1  
    47   14   44 1  
    48   16   45 1  
    49   16   46 1  
    50   17   47 1  
    51   17   48 1  
    52   18   49 1  
    53   18   50 1  
    54   18   51 1  
    55   20   52 1  
    56   25   53 1  
    57   26   54 1  
    58   27   55 1  
    59   30   56 1  
    60   30   57 1  
    61   32   58 1  
    62   35   59 1  
    63   35   60 1  
    64   35   61 1  
@<TRIPOS>SUBSTRUCTURE
     1 F8H         1

