### 
### Created by X-TOOL on Wed Jan  1 15:39:35 2020
### 

@<TRIPOS>MOLECULE
6gr7_ligand
   18    18     1     0     0
SMALL
GAST_HUCK


@<TRIPOS>ATOM
      1 O01        42.5890   -0.0350    3.2980 O.co2     1 F52        -0.5662
      2 C02        43.8160   -0.3920    3.5380 C.2       1 F52         0.0654
      3 O03        44.7920    0.2100    3.0720 O.co2     1 F52        -0.5662
      4 C04        44.0100   -1.5940    4.4240 C.3       1 F52         0.1229
      5 O05        42.9750   -1.7160    5.3750 O.3       1 F52        -0.3028
      6 C06        42.9080   -0.7260    6.3190 C.ar      1 F52         0.1086
      7 C07        42.0880    0.3630    6.1940 C.ar      1 F52        -0.0178
      8 C08        42.0620    1.3280    7.1600 C.ar      1 F52         0.0459
      9 CL1        41.0070    2.6500    6.9360 Cl        1 F52        -0.0726
     10 C10        42.8680    1.2320    8.2890 C.ar      1 F52         0.0430
     11 CL2        42.8430    2.4580    9.5020 Cl        1 F52        -0.0803
     12 C12        43.7210    0.1290    8.4380 C.ar      1 F52        -0.0421
     13 C13        43.7240   -0.8440    7.4340 C.ar      1 F52         0.0688
     14 CL3        44.7630   -2.2220    7.5870 Cl        1 F52        -0.0785
     15 H1         44.9696   -1.4956    4.9527 H         1 F52         0.0786
     16 H2         44.0271   -2.4986    3.7983 H         1 F52         0.0786
     17 H3         41.4536    0.4602    5.3204 H         1 F52         0.0548
     18 H4         44.3606    0.0334    9.3079 H         1 F52         0.0601
@<TRIPOS>BOND
     1    1    2 ar 
     2    2    3 ar 
     3    2    4 1  
     4    4    5 1  
     5    5    6 1  
     6    6    7 ar 
     7    6   13 ar 
     8    7    8 ar 
     9    8    9 1  
    10    8   10 ar 
    11   10   11 1  
    12   10   12 ar 
    13   12   13 ar 
    14   13   14 1  
    15    4   15 1  
    16    4   16 1  
    17    7   17 1  
    18   12   18 1  
@<TRIPOS>SUBSTRUCTURE
     1 F52         1

