### 
### Created by X-TOOL on Wed Jan  1 15:39:35 2020
### 

@<TRIPOS>MOLECULE
6grp_ligand
   12    12     1     0     0
SMALL
GAST_HUCK


@<TRIPOS>ATOM
      1 C01         0.6180   -0.5680  -23.2480 C.2       1 F4Z        -0.0025
      2 C02         1.1230   -0.5410  -21.9980 C.2       1 F4Z         0.0959
      3 C03         0.3380   -0.1960  -20.8480 C.2       1 F4Z         0.1761
      4 O04         0.7390   -0.1600  -19.6930 O.2       1 F4Z        -0.3984
      5 N05        -0.9500    0.0930  -21.1310 N.2       1 F4Z        -0.2364
      6 C06        -1.4410    0.0550  -22.3560 C.2       1 F4Z         0.1631
      7 C07        -0.7380   -0.2570  -23.4510 C.3       1 F4Z         0.1518
      8 CL8        -1.4260   -0.2870  -25.0290 Cl        1 F4Z        -0.0680
      9 CL9        -3.1040    0.4500  -22.4960 Cl        1 F4Z         0.0063
     10 CL1         2.8020   -0.9120  -21.7260 Cl        1 F4Z        -0.0813
     11 H1          1.2545   -0.8283  -24.0924 H         1 F4Z         0.0923
     12 H2         -0.4859    0.8037  -23.5967 H         1 F4Z         0.1011
@<TRIPOS>BOND
     1    1    2 2  
     2    1    7 1  
     3    2    3 1  
     4    2   10 1  
     5    3    4 2  
     6    3    5 1  
     7    5    6 2  
     8    6    7 1  
     9    6    9 1  
    10    7    8 1  
    11    1   11 1  
    12    7   12 1  
@<TRIPOS>SUBSTRUCTURE
     1 F4Z         1

