### 
### Created by X-TOOL on Wed Jan  1 15:39:38 2020
### 

@<TRIPOS>MOLECULE
6gu7_ligand
   47    49     1     0     0
SMALL
GAST_HUCK


@<TRIPOS>ATOM
      1 C4         31.7850   12.9850   13.2080 C.2       1 FB8         0.0972
      2 C14        36.3050   18.0240   10.0710 C.ar      1 FB8        -0.0466
      3 C5         33.0450   12.7100   12.5110 C.ar      1 FB8         0.0655
      4 C6         33.4970   11.4070   12.3350 C.ar      1 FB8        -0.0225
      5 C11        33.9910   17.5040    9.6480 C.ar      1 FB8        -0.0466
      6 C7         34.7040   11.2330   11.6870 C.ar      1 FB8         0.0070
      7 C8         34.9570   13.4980   11.4700 C.ar      1 FB8         0.2015
      8 C9         35.4660   15.8130   10.5540 C.ar      1 FB8         0.0655
      9 C10        34.2030   16.2130   10.0950 C.ar      1 FB8        -0.0364
     10 C12        35.0430   18.4060    9.6450 C.ar      1 FB8         0.0762
     11 C13        35.5560   21.0670   10.2940 C.3       1 FB8         0.0582
     12 N1         30.0410   12.8280   14.6430 N.2       1 FB8        -0.3184
     13 N2         35.4500   12.2520   11.2530 N.ar      1 FB8        -0.2601
     14 C3         31.2240   12.2710   14.2300 C.2       1 FB8        -0.0085
     15 N3         35.7640   14.5090   11.0190 N.pl3     1 FB8        -0.2430
     16 C1         28.7000   14.8150   13.9820 C.3       1 FB8         0.0165
     17 C2         29.8600   13.8940   13.8750 C.2       1 FB8         0.1219
     18 S1         34.7950   20.0620    9.0770 S.o2      1 FB8        -0.0108
     19 O1         35.5220   20.2040    7.8540 O.2       1 FB8        -0.1710
     20 O2         33.3910   20.3520    9.0720 O.2       1 FB8        -0.1710
     21 C15        36.5150   16.7400   10.5280 C.ar      1 FB8        -0.0364
     22 N4         33.7910   13.7570   12.1040 N.ar      1 FB8        -0.2561
     23 N5         30.8950   14.0450   12.9500 N.pl3     1 FB8        -0.2333
     24 C16        31.0200   15.1130   11.9500 C.3       1 FB8         0.0632
     25 C17        31.1760   16.4730   12.6160 C.3       1 FB8        -0.0348
     26 C18        29.9060   15.0670   10.9080 C.3       1 FB8        -0.0348
     27 H1         37.1250   18.7326   10.0451 H         1 FB8         0.0606
     28 H2         32.9235   10.5596   12.6930 H         1 FB8         0.0631
     29 H3         33.0096   17.8082    9.3026 H         1 FB8         0.0606
     30 H4         35.0622   10.2231   11.5232 H         1 FB8         0.0867
     31 H5         33.3842   15.5026   10.0906 H         1 FB8         0.0537
     32 H6         35.4470   22.1256   10.0158 H         1 FB8         0.0466
     33 H7         36.6243   20.8141   10.3628 H         1 FB8         0.0466
     34 H8         35.0744   20.8923   11.2674 H         1 FB8         0.0466
     35 H9         31.6618   11.3724   14.6620 H         1 FB8         0.0571
     36 H10        36.7681   14.2794   11.0179 H         1 FB8         0.2177
     37 H11        28.0331   14.4727   14.7870 H         1 FB8         0.0483
     38 H12        28.1501   14.8243   13.0294 H         1 FB8         0.0483
     39 H13        29.0575   15.8302   14.2090 H         1 FB8         0.0483
     40 H14        37.5007   16.4458   10.8700 H         1 FB8         0.0537
     41 H15        31.9566   14.9254   11.4046 H         1 FB8         0.0644
     42 H16        31.2671   17.2511   11.8438 H         1 FB8         0.0259
     43 H17        32.0790   16.4723   13.2441 H         1 FB8         0.0259
     44 H18        30.2946   16.6784   13.2412 H         1 FB8         0.0259
     45 H19        30.0458   15.8846   10.1855 H         1 FB8         0.0259
     46 H20        28.9323   15.1810   11.4069 H         1 FB8         0.0259
     47 H21        29.9370   14.1023   10.3804 H         1 FB8         0.0259
@<TRIPOS>BOND
     1    3    1 1  
     2    1   14 2  
     3    1   23 1  
     4   10    2 ar 
     5    2   21 ar 
     6    3    4 ar 
     7   22    3 ar 
     8    6    4 ar 
     9    9    5 ar 
    10    5   10 ar 
    11   13    6 ar 
    12    7   13 ar 
    13   15    7 1  
    14    7   22 ar 
    15    8    9 ar 
    16    8   15 1  
    17    8   21 ar 
    18   10   18 1  
    19   18   11 1  
    20   14   12 1  
    21   12   17 2  
    22   17   16 1  
    23   17   23 1  
    24   18   19 2  
    25   18   20 2  
    26   23   24 1  
    27   24   25 1  
    28   24   26 1  
    29    2   27 1  
    30    4   28 1  
    31    5   29 1  
    32    6   30 1  
    33    9   31 1  
    34   11   32 1  
    35   11   33 1  
    36   11   34 1  
    37   14   35 1  
    38   15   36 1  
    39   16   37 1  
    40   16   38 1  
    41   16   39 1  
    42   21   40 1  
    43   24   41 1  
    44   25   42 1  
    45   25   43 1  
    46   25   44 1  
    47   26   45 1  
    48   26   46 1  
    49   26   47 1  
@<TRIPOS>SUBSTRUCTURE
     1 FB8         1

