### 
### Created by X-TOOL on Wed Jan  1 15:39:37 2020
### 

@<TRIPOS>MOLECULE
6gub_ligand
   49    52     1     0     0
SMALL
GAST_HUCK


@<TRIPOS>ATOM
      1 C4         -6.7270  -20.7250   20.5460 C.3       1 F9Z         0.0215
      2 C14        -6.5720  -25.1390   24.9580 C.ar      1 F9Z        -0.0446
      3 C5         -8.1510  -20.8600   21.0740 C.ar      1 F9Z         0.0228
      4 C6         -9.2390  -20.2680   20.3930 C.ar      1 F9Z         0.0802
      5 C11        -8.8270  -23.1220   24.6020 C.2       1 F9Z         0.0078
      6 C7        -10.5420  -20.3790   20.8840 C.ar      1 F9Z        -0.0144
      7 C8        -10.7840  -21.1030   22.0370 C.ar      1 F9Z         0.0869
      8 C9         -9.7190  -21.7240   22.7260 C.ar      1 F9Z         0.0721
      9 C10        -9.9680  -22.4870   23.9630 C.2       1 F9Z         0.0995
     10 C12        -7.5930  -23.0620   24.0080 C.2       1 F9Z         0.1417
     11 C13        -6.4030  -23.8510   24.4510 C.ar      1 F9Z         0.0440
     12 N1         -4.3590  -20.5980   18.8460 N.4       1 F9Z         0.2351
     13 C3         -6.2180  -21.9860   19.8560 C.3       1 F9Z        -0.0017
     14 C1         -2.9100  -20.5050   18.6950 C.3       1 F9Z        -0.0430
     15 C2         -4.7420  -21.8590   19.5130 C.3       1 F9Z        -0.0305
     16 O1         -9.1100  -19.5420   19.2450 O.3       1 F9Z        -0.3389
     17 O2        -12.0560  -21.2310   22.4750 O.3       1 F9Z        -0.3368
     18 O3        -11.0930  -22.5420   24.4570 O.2       1 F9Z        -0.4249
     19 C15        -5.4860  -25.9050   25.3630 C.ar      1 F9Z        -0.0569
     20 C16        -4.2080  -25.3940   25.3050 C.ar      1 F9Z        -0.0577
     21 C17        -4.0100  -24.1240   24.8350 C.ar      1 F9Z        -0.0431
     22 C18        -5.0990  -23.3690   24.4170 C.ar      1 F9Z         0.0577
     23 CL1        -4.7480  -21.8130   23.8240 Cl        1 F9Z        -0.0650
     24 O4         -7.3660  -22.2460   22.8830 O.3       1 F9Z        -0.2448
     25 C19        -8.4110  -21.6070   22.2260 C.ar      1 F9Z         0.1322
     26 C20        -6.3660  -19.6100   19.5720 C.3       1 F9Z         0.1030
     27 O5         -6.9070  -18.3480   19.8320 O.3       1 F9Z        -0.3849
     28 C21        -4.8650  -19.4560   19.6010 C.3       1 F9Z        -0.0040
     29 H1         -6.1134  -20.5617   21.4442 H         1 F9Z         0.0427
     30 H2         -7.5714  -25.5511   25.0378 H         1 F9Z         0.0661
     31 H3         -8.9522  -23.6437   25.5496 H         1 F9Z         0.0418
     32 H4        -11.3618  -19.8986   20.3622 H         1 F9Z         0.0388
     33 H5         -4.7752  -20.5847   17.9281 H         1 F9Z         0.2031
     34 H6         -6.7903  -22.1460   18.9303 H         1 F9Z         0.0335
     35 H7         -6.3589  -22.8458   20.5275 H         1 F9Z         0.0335
     36 H8         -2.5444  -21.3717   18.1247 H         1 F9Z         0.0778
     37 H9         -2.4377  -20.4942   19.6884 H         1 F9Z         0.0778
     38 H10        -2.6559  -19.5792   18.1581 H         1 F9Z         0.0778
     39 H11        -4.1672  -21.9382   20.4475 H         1 F9Z         0.0816
     40 H12        -4.4745  -22.6919   18.8462 H         1 F9Z         0.0816
     41 H13        -8.1961  -19.5200   18.9866 H         1 F9Z         0.2468
     42 H14       -12.1234  -20.8803   23.3553 H         1 F9Z         0.2482
     43 H15        -5.6456  -26.9133   25.7277 H         1 F9Z         0.0629
     44 H16        -3.3652  -25.9936   25.6293 H         1 F9Z         0.0647
     45 H17        -3.0094  -23.7095   24.7891 H         1 F9Z         0.0633
     46 H18        -6.6917  -19.9193   18.5679 H         1 F9Z         0.0665
     47 H19        -7.8553  -18.4029   19.8214 H         1 F9Z         0.2102
     48 H20        -4.5630  -18.5117   19.1244 H         1 F9Z         0.0841
     49 H21        -4.4929  -19.4799   20.6359 H         1 F9Z         0.0841
@<TRIPOS>BOND
     1    1    3 1  
     2   13    1 1  
     3    1   26 1  
     4   11    2 ar 
     5    2   19 ar 
     6    3    4 ar 
     7    3   25 ar 
     8    4    6 ar 
     9    4   16 1  
    10    9    5 1  
    11    5   10 2  
    12    6    7 ar 
    13    8    7 ar 
    14    7   17 1  
    15    8    9 1  
    16   25    8 ar 
    17    9   18 2  
    18   10   11 1  
    19   10   24 1  
    20   11   22 ar 
    21   12   14 1  
    22   15   12 1  
    23   12   28 1  
    24   13   15 1  
    25   19   20 ar 
    26   20   21 ar 
    27   21   22 ar 
    28   22   23 1  
    29   24   25 1  
    30   26   27 1  
    31   26   28 1  
    32    1   29 1  
    33    2   30 1  
    34    5   31 1  
    35    6   32 1  
    36   12   33 1  
    37   13   34 1  
    38   13   35 1  
    39   14   36 1  
    40   14   37 1  
    41   14   38 1  
    42   15   39 1  
    43   15   40 1  
    44   16   41 1  
    45   17   42 1  
    46   19   43 1  
    47   20   44 1  
    48   21   45 1  
    49   26   46 1  
    50   27   47 1  
    51   28   48 1  
    52   28   49 1  
@<TRIPOS>SUBSTRUCTURE
     1 F9Z         1

