### 
### Created by X-TOOL on Wed Jan  1 15:39:36 2020
### 

@<TRIPOS>MOLECULE
6guc_ligand
   29    31     1     0     0
SMALL
GAST_HUCK


@<TRIPOS>ATOM
      1 N5'        -7.2760  -24.9170   25.2830 N.2       1 SU9        -0.3119
      2 C4'        -6.5780  -25.9210   25.7950 C.2       1 SU9         0.1035
      3 N3'        -5.4150  -25.9640   25.1600 N.pl3     1 SU9        -0.2516
      4 C2'        -5.3020  -24.8580   24.3610 C.2       1 SU9         0.0622
      5 C1'        -6.5170  -24.2220   24.3740 C.2       1 SU9         0.0352
      6 C6'        -6.8470  -23.0980   23.6280 C.2       1 SU9        -0.0421
      7 C9         -8.1210  -22.5920   23.4260 C.2       1 SU9         0.0377
      8 C8         -9.4320  -22.8910   24.0900 C.2       1 SU9         0.2128
      9 O10        -9.6830  -23.7250   24.9790 O.2       1 SU9        -0.3842
     10 N7        -10.3710  -22.1300   23.4580 N.am      1 SU9        -0.2443
     11 C5         -9.7940  -21.2890   22.4980 C.ar      1 SU9         0.0582
     12 C6        -10.3970  -20.3680   21.6640 C.ar      1 SU9        -0.0514
     13 C1         -9.5930  -19.7190   20.7280 C.ar      1 SU9        -0.0488
     14 C2         -8.2260  -19.9560   20.6500 C.ar      1 SU9         0.0717
     15 O11        -7.5340  -19.2050   19.7310 O.3       1 SU9        -0.3319
     16 C12        -6.1370  -19.4340   19.6050 C.3       1 SU9         0.0560
     17 C3         -7.6310  -20.9010   21.4830 C.ar      1 SU9        -0.0446
     18 C4         -8.4210  -21.5610   22.4140 C.ar      1 SU9        -0.0099
     19 H1         -6.9011  -26.5889   26.5921 H         1 SU9         0.1263
     20 H2         -4.7101  -26.7093   25.2528 H         1 SU9         0.2474
     21 H3         -4.4132  -24.5422   23.8167 H         1 SU9         0.1037
     22 H4         -6.0247  -22.5623   23.1560 H         1 SU9         0.0715
     23 H5        -11.3505  -22.1678   23.6556 H         1 SU9         0.2210
     24 H6        -11.4580  -20.1572   21.7347 H         1 SU9         0.0472
     25 H7        -10.0460  -19.0111   20.0433 H         1 SU9         0.0484
     26 H8         -5.7235  -18.7641   18.8367 H         1 SU9         0.0571
     27 H9         -5.9618  -20.4798   19.3124 H         1 SU9         0.0571
     28 H10        -5.6445  -19.2353   20.5683 H         1 SU9         0.0571
     29 H11        -6.5715  -21.1167   21.4055 H         1 SU9         0.0463
@<TRIPOS>BOND
     1    1    2 2  
     2    1    5 1  
     3    2    3 1  
     4    3    4 1  
     5    4    5 2  
     6    5    6 1  
     7    6    7 2  
     8    7    8 1  
     9    7   18 1  
    10    8    9 2  
    11    8   10 am 
    12   10   11 1  
    13   11   12 ar 
    14   11   18 ar 
    15   12   13 ar 
    16   13   14 ar 
    17   14   15 1  
    18   14   17 ar 
    19   15   16 1  
    20   17   18 ar 
    21    2   19 1  
    22    3   20 1  
    23    4   21 1  
    24    6   22 1  
    25   10   23 1  
    26   12   24 1  
    27   13   25 1  
    28   16   26 1  
    29   16   27 1  
    30   16   28 1  
    31   17   29 1  
@<TRIPOS>SUBSTRUCTURE
     1 SU9         1

