### 
### Created by X-TOOL on Wed Jan  1 15:39:37 2020
### 

@<TRIPOS>MOLECULE
6gue_ligand
   47    49     1     0     0
SMALL
GAST_HUCK


@<TRIPOS>ATOM
      1 C4         -7.9560  -19.7050   21.2480 C.2       1 FB8         0.0972
      2 C14        -4.5100  -24.1550   23.3430 C.ar      1 FB8        -0.0466
      3 C5         -8.6010  -20.6600   22.1560 C.ar      1 FB8         0.0655
      4 C6         -9.9760  -20.6310   22.3140 C.ar      1 FB8        -0.0225
      5 C11        -4.9210  -25.2440   25.4420 C.ar      1 FB8        -0.0466
      6 C7        -10.5290  -21.5030   23.2180 C.ar      1 FB8         0.0070
      7 C8         -8.4730  -22.3440   23.7040 C.ar      1 FB8         0.2015
      8 C9         -6.5880  -23.7950   24.4680 C.ar      1 FB8         0.0655
      9 C10        -6.1650  -24.6420   25.4950 C.ar      1 FB8        -0.0364
     10 C12        -4.1130  -25.0020   24.3540 C.ar      1 FB8         0.0762
     11 C13        -1.5150  -24.7720   23.2520 C.3       1 FB8         0.0582
     12 N1         -7.6240  -17.9470   20.0070 N.2       1 FB8        -0.3184
     13 N2         -9.8120  -22.3970   23.8930 N.ar      1 FB8        -0.2601
     14 C3         -8.4840  -18.4960   20.8930 C.2       1 FB8        -0.0085
     15 N3         -7.8820  -23.2540   24.5000 N.pl3     1 FB8        -0.2430
     16 C1         -5.2670  -18.1940   19.2870 C.3       1 FB8         0.0165
     17 C2         -6.4920  -18.6400   19.9870 C.2       1 FB8         0.1219
     18 S1         -2.5160  -25.7330   24.3120 S.o2      1 FB8        -0.0108
     19 O1         -1.9720  -25.5840   25.6330 O.2       1 FB8        -0.1710
     20 O2         -2.6520  -27.0630   23.7960 O.2       1 FB8        -0.1710
     21 C15        -5.7480  -23.5650   23.3930 C.ar      1 FB8        -0.0364
     22 N4         -7.8310  -21.5180   22.8690 N.ar      1 FB8        -0.2561
     23 N5         -6.7000  -19.8060   20.6130 N.pl3     1 FB8        -0.2333
     24 C16        -5.8310  -21.0060   20.6190 C.3       1 FB8         0.0632
     25 C17        -4.5120  -20.7400   21.3330 C.3       1 FB8        -0.0348
     26 C18        -5.6710  -21.5540   19.2210 C.3       1 FB8        -0.0348
     27 H1         -3.8461  -23.9549   22.5098 H         1 FB8         0.0606
     28 H2        -10.5929  -19.9450   21.7448 H         1 FB8         0.0631
     29 H3         -4.5882  -25.8946   26.2427 H         1 FB8         0.0606
     30 H4        -11.5985  -21.4612   23.3897 H         1 FB8         0.0867
     31 H5         -6.8171  -24.8290   26.3405 H         1 FB8         0.0537
     32 H6         -0.5059  -25.2074   23.2062 H         1 FB8         0.0466
     33 H7         -1.4535  -23.7439   23.6382 H         1 FB8         0.0466
     34 H8         -1.9550  -24.7594   22.2439 H         1 FB8         0.0466
     35 H9         -9.4148  -18.0604   21.2532 H         1 FB8         0.0571
     36 H10        -8.4789  -23.6129   25.2588 H         1 FB8         0.2177
     37 H11        -5.4242  -17.1841   18.8804 H         1 FB8         0.0483
     38 H12        -5.0407  -18.8890   18.4650 H         1 FB8         0.0483
     39 H13        -4.4255  -18.1773   19.9952 H         1 FB8         0.0483
     40 H14        -6.0692  -22.9158   22.5865 H         1 FB8         0.0537
     41 H15        -6.3512  -21.7794   21.2031 H         1 FB8         0.0644
     42 H16        -3.8960  -21.6512   21.3168 H         1 FB8         0.0259
     43 H17        -4.7111  -20.4506   22.3754 H         1 FB8         0.0259
     44 H18        -3.9763  -19.9262   20.8224 H         1 FB8         0.0259
     45 H19        -5.0236  -22.4429   19.2475 H         1 FB8         0.0259
     46 H20        -5.2154  -20.7877   18.5767 H         1 FB8         0.0259
     47 H21        -6.6574  -21.8307   18.8205 H         1 FB8         0.0259
@<TRIPOS>BOND
     1    3    1 1  
     2    1   14 2  
     3    1   23 1  
     4   10    2 ar 
     5    2   21 ar 
     6    3    4 ar 
     7   22    3 ar 
     8    6    4 ar 
     9    9    5 ar 
    10    5   10 ar 
    11   13    6 ar 
    12    7   13 ar 
    13   15    7 1  
    14    7   22 ar 
    15    8    9 ar 
    16    8   15 1  
    17    8   21 ar 
    18   10   18 1  
    19   18   11 1  
    20   14   12 1  
    21   12   17 2  
    22   17   16 1  
    23   17   23 1  
    24   18   19 2  
    25   18   20 2  
    26   23   24 1  
    27   24   25 1  
    28   24   26 1  
    29    2   27 1  
    30    4   28 1  
    31    5   29 1  
    32    6   30 1  
    33    9   31 1  
    34   11   32 1  
    35   11   33 1  
    36   11   34 1  
    37   14   35 1  
    38   15   36 1  
    39   16   37 1  
    40   16   38 1  
    41   16   39 1  
    42   21   40 1  
    43   24   41 1  
    44   25   42 1  
    45   25   43 1  
    46   25   44 1  
    47   26   45 1  
    48   26   46 1  
    49   26   47 1  
@<TRIPOS>SUBSTRUCTURE
     1 FB8         1

