### 
### Created by X-TOOL on Wed Jan  1 15:39:37 2020
### 

@<TRIPOS>MOLECULE
6guf_ligand
   52    55     1     0     0
SMALL
GAST_HUCK


@<TRIPOS>ATOM
      1 CAS        -5.5100  -26.2320   25.2600 C.ar      1 23D        -0.0241
      2 CAQ        -4.4830  -26.9550   25.8110 C.ar      1 23D         0.0311
      3 CL1        -3.2710  -27.5340   24.7120 Cl        1 23D        -0.0737
      4 CAP        -4.4030  -27.2350   27.1610 C.ar      1 23D        -0.0593
      5 CAO        -5.3970  -26.7490   27.9860 C.ar      1 23D        -0.0707
      6 CAN        -6.4660  -26.0360   27.4560 C.ar      1 23D        -0.0378
      7 CAM        -6.5240  -25.7660   26.0890 C.ar      1 23D         0.0652
      8 N6         -7.5680  -25.0330   25.4820 N.pl3     1 23D        -0.2560
      9 C6         -7.5060  -24.0490   24.5430 C.ar      1 23D         0.1399
     10 N1         -6.3630  -23.6970   23.9060 N.ar      1 23D        -0.2524
     11 C5         -8.6730  -23.3550   24.2180 C.ar      1 23D         0.0957
     12 N7         -9.9740  -23.4750   24.6610 N.2       1 23D        -0.3037
     13 C8        -10.6060  -22.5470   23.9830 C.2       1 23D         0.1048
     14 N9         -9.8090  -21.8330   23.1400 N.pl3     1 23D        -0.2273
     15 CAZ       -10.2350  -20.7620   22.2370 C.3       1 23D         0.0568
     16 CBA        -9.4220  -19.5050   22.3880 C.3       1 23D        -0.0375
     17 C4         -8.5630  -22.3530   23.2790 C.ar      1 23D         0.1433
     18 N3         -7.4560  -21.9750   22.6300 N.ar      1 23D        -0.2634
     19 C2         -6.3790  -22.6950   22.9910 C.ar      1 23D         0.1557
     20 N2         -5.2330  -22.3710   22.3880 N.pl3     1 23D        -0.2889
     21 CAG        -3.9100  -22.8280   22.7910 C.3       1 23D         0.0830
     22 CAF        -2.8900  -21.7420   22.4580 C.3       1 23D        -0.0245
     23 CAE        -1.4530  -22.2570   22.4500 C.3       1 23D        -0.0506
     24 CAD        -1.3160  -23.6340   23.0610 C.3       1 23D        -0.0478
     25 CAC        -2.1620  -24.6420   22.3000 C.3       1 23D        -0.0076
     26 CAA        -3.6090  -24.1720   22.1170 C.3       1 23D        -0.0008
     27 NAB        -3.9270  -24.0810   20.6610 N.4       1 23D         0.2224
     28 H1         -5.5307  -26.0273   24.1957 H         1 23D         0.0543
     29 H2         -3.5828  -27.8199   27.5613 H         1 23D         0.0526
     30 H3         -5.3437  -26.9245   29.0544 H         1 23D         0.0588
     31 H4         -7.2586  -25.6881   28.1085 H         1 23D         0.0539
     32 H5         -8.5173  -25.2796   25.7966 H         1 23D         0.2173
     33 H6        -11.6745  -22.3633   24.0851 H         1 23D         0.1311
     34 H7        -11.2884  -20.5250   22.4472 H         1 23D         0.0609
     35 H8        -10.1391  -21.1187   21.2009 H         1 23D         0.0609
     36 H9         -9.7906  -18.7433   21.6852 H         1 23D         0.0256
     37 H10        -8.3658  -19.7232   22.1714 H         1 23D         0.0256
     38 H11        -9.5152  -19.1295   23.4177 H         1 23D         0.0256
     39 H12        -5.2889  -21.7466   21.5707 H         1 23D         0.1850
     40 H13        -3.9020  -22.9834   23.8799 H         1 23D         0.0615
     41 H14        -2.9716  -20.9421   23.2086 H         1 23D         0.0290
     42 H15        -3.1225  -21.3358   21.4625 H         1 23D         0.0290
     43 H16        -0.8261  -21.5562   23.0208 H         1 23D         0.0266
     44 H17        -1.1013  -22.2989   21.4086 H         1 23D         0.0266
     45 H18        -1.6493  -23.5997   24.1087 H         1 23D         0.0267
     46 H19        -0.2613  -23.9440   23.0217 H         1 23D         0.0267
     47 H20        -2.1667  -25.5907   22.8566 H         1 23D         0.0320
     48 H21        -1.7144  -24.8011   21.3079 H         1 23D         0.0320
     49 H22        -4.2658  -24.9285   22.5712 H         1 23D         0.0873
     50 H23        -4.8792  -23.7717   20.5438 H         1 23D         0.1998
     51 H24        -3.8133  -24.9874   20.2349 H         1 23D         0.1998
     52 H25        -3.3033  -23.4224   20.2213 H         1 23D         0.1998
@<TRIPOS>BOND
     1    1    2 ar 
     2    1    7 ar 
     3    2    3 1  
     4    2    4 ar 
     5    4    5 ar 
     6    5    6 ar 
     7    6    7 ar 
     8    7    8 1  
     9    8    9 1  
    10    9   10 ar 
    11    9   11 ar 
    12   10   19 ar 
    13   11   12 1  
    14   11   17 ar 
    15   12   13 2  
    16   13   14 1  
    17   14   15 1  
    18   14   17 1  
    19   15   16 1  
    20   17   18 ar 
    21   18   19 ar 
    22   19   20 1  
    23   20   21 1  
    24   21   22 1  
    25   21   26 1  
    26   22   23 1  
    27   23   24 1  
    28   24   25 1  
    29   25   26 1  
    30   26   27 1  
    31    1   28 1  
    32    4   29 1  
    33    5   30 1  
    34    6   31 1  
    35    8   32 1  
    36   13   33 1  
    37   15   34 1  
    38   15   35 1  
    39   16   36 1  
    40   16   37 1  
    41   16   38 1  
    42   20   39 1  
    43   21   40 1  
    44   22   41 1  
    45   22   42 1  
    46   23   43 1  
    47   23   44 1  
    48   24   45 1  
    49   24   46 1  
    50   25   47 1  
    51   25   48 1  
    52   26   49 1  
    53   27   50 1  
    54   27   51 1  
    55   27   52 1  
@<TRIPOS>SUBSTRUCTURE
     1 23D         1

