### 
### Created by X-TOOL on Wed Jan  1 15:39:37 2020
### 

@<TRIPOS>MOLECULE
6guh_ligand
   47    49     1     0     0
SMALL
GAST_HUCK


@<TRIPOS>ATOM
      1 C4         -1.5590   -5.7250  -26.6670 C.2       1 FB8         0.0972
      2 C14         3.4520   -9.0920  -27.6430 C.ar      1 FB8        -0.0466
      3 C5         -0.5450   -5.1420  -27.5290 C.ar      1 FB8         0.0655
      4 C6         -0.5790   -3.7740  -27.8020 C.ar      1 FB8        -0.0225
      5 C11         4.6250   -8.8880  -29.7140 C.ar      1 FB8        -0.0466
      6 C7          0.4720   -3.2850  -28.5530 C.ar      1 FB8         0.0070
      7 C8          1.3510   -5.3730  -28.8230 C.ar      1 FB8         0.2015
      8 C9          2.9900   -7.2340  -29.1050 C.ar      1 FB8         0.0655
      9 C10         3.9750   -7.7010  -29.9610 C.ar      1 FB8        -0.0364
     10 C12         4.3870   -9.5510  -28.5380 C.ar      1 FB8         0.0762
     11 C13         5.9920  -11.5330  -29.6910 C.3       1 FB8         0.0582
     12 N1         -3.5280   -6.0890  -25.6260 N.2       1 FB8        -0.3184
     13 N2          1.3940   -4.0620  -29.1270 N.ar      1 FB8        -0.2601
     14 C3         -2.8300   -5.2680  -26.4740 C.2       1 FB8        -0.0085
     15 N3          2.3730   -6.0140  -29.4260 N.pl3     1 FB8        -0.2430
     16 C1         -3.0190   -8.1490  -24.3230 C.3       1 FB8         0.0165
     17 C2         -2.6810   -7.0360  -25.2610 C.2       1 FB8         0.1219
     18 S1          5.3050  -11.0090  -28.1800 S.o2      1 FB8        -0.0108
     19 O1          6.4390  -10.5820  -27.3880 O.2       1 FB8        -0.1710
     20 O2          4.3560  -11.9550  -27.6670 O.2       1 FB8        -0.1710
     21 C15         2.7460   -7.9430  -27.9220 C.ar      1 FB8        -0.0364
     22 N4          0.4170   -5.9440  -28.0270 N.ar      1 FB8        -0.2561
     23 N5         -1.4610   -6.9200  -25.9080 N.pl3     1 FB8        -0.2333
     24 C16        -0.2660   -7.7030  -25.7170 C.3       1 FB8         0.0632
     25 C17         0.1410   -7.6110  -24.2260 C.3       1 FB8        -0.0348
     26 C18        -0.4770   -9.0690  -26.2870 C.3       1 FB8        -0.0348
     27 H1          3.2704   -9.6319  -26.7207 H         1 FB8         0.0606
     28 H2         -1.3798   -3.1353  -27.4471 H         1 FB8         0.0631
     29 H3          5.3180   -9.2947  -30.4416 H         1 FB8         0.0606
     30 H4          0.5528   -2.2119  -28.6836 H         1 FB8         0.0867
     31 H5          4.2373   -7.1218  -30.8389 H         1 FB8         0.0537
     32 H6          6.5813  -12.4475  -29.5283 H         1 FB8         0.0466
     33 H7          6.6444  -10.7428  -30.0908 H         1 FB8         0.0466
     34 H8          5.1846  -11.7400  -30.4088 H         1 FB8         0.0466
     35 H9         -3.2371   -4.3685  -26.9335 H         1 FB8         0.0571
     36 H10         2.7615   -5.5340  -30.2503 H         1 FB8         0.2177
     37 H11        -4.0428   -8.0116  -23.9448 H         1 FB8         0.0483
     38 H12        -2.3130   -8.1449  -23.4795 H         1 FB8         0.0483
     39 H13        -2.9502   -9.1098  -24.8541 H         1 FB8         0.0483
     40 H14         1.9983   -7.5858  -27.2231 H         1 FB8         0.0537
     41 H15         0.5473   -7.2427  -26.2971 H         1 FB8         0.0644
     42 H16         1.0528   -8.2028  -24.0577 H         1 FB8         0.0259
     43 H17        -0.6725   -8.0046  -23.5989 H         1 FB8         0.0259
     44 H18         0.3319   -6.5603  -23.9622 H         1 FB8         0.0259
     45 H19         0.4327   -9.6706  -26.1436 H         1 FB8         0.0259
     46 H20        -0.6973   -8.9879  -27.3616 H         1 FB8         0.0259
     47 H21        -1.3215   -9.5535  -25.7751 H         1 FB8         0.0259
@<TRIPOS>BOND
     1    3    1 1  
     2    1   14 2  
     3    1   23 1  
     4   10    2 ar 
     5    2   21 ar 
     6    3    4 ar 
     7   22    3 ar 
     8    6    4 ar 
     9    9    5 ar 
    10    5   10 ar 
    11   13    6 ar 
    12    7   13 ar 
    13   15    7 1  
    14    7   22 ar 
    15    8    9 ar 
    16    8   15 1  
    17    8   21 ar 
    18   10   18 1  
    19   18   11 1  
    20   14   12 1  
    21   12   17 2  
    22   17   16 1  
    23   17   23 1  
    24   18   19 2  
    25   18   20 2  
    26   23   24 1  
    27   24   25 1  
    28   24   26 1  
    29    2   27 1  
    30    4   28 1  
    31    5   29 1  
    32    6   30 1  
    33    9   31 1  
    34   11   32 1  
    35   11   33 1  
    36   11   34 1  
    37   14   35 1  
    38   15   36 1  
    39   16   37 1  
    40   16   38 1  
    41   16   39 1  
    42   21   40 1  
    43   24   41 1  
    44   25   42 1  
    45   25   43 1  
    46   25   44 1  
    47   26   45 1  
    48   26   46 1  
    49   26   47 1  
@<TRIPOS>SUBSTRUCTURE
     1 FB8         1

