### 
### Created by X-TOOL on Wed Jan  1 15:39:37 2020
### 

@<TRIPOS>MOLECULE
6guk_ligand
   52    55     1     0     0
SMALL
GAST_HUCK


@<TRIPOS>ATOM
      1 C4         12.0560   10.3180  -13.0400 C.ar      1 FC8         0.0957
      2 C14        13.5650    8.5230   -7.2500 C.3       1 FC8        -0.0245
      3 C5         11.3290   10.4930  -11.8460 C.ar      1 FC8         0.1399
      4 C6          9.3490   11.5090  -10.7210 C.ar      1 FC8         0.0652
      5 C11         8.8740   10.4640   -9.9320 C.ar      1 FC8        -0.0241
      6 C7          9.0160   12.8190  -10.4040 C.ar      1 FC8        -0.0378
      7 C8          8.1580   13.0810   -9.3460 C.ar      1 FC8        -0.0707
      8 C9          7.6600   12.0590   -8.5890 C.ar      1 FC8        -0.0593
      9 C10         8.0040   10.7740   -8.9260 C.ar      1 FC8         0.0311
     10 C12        12.8280    9.0310  -10.8190 C.ar      1 FC8         0.1557
     11 C13        12.5740    8.7790   -8.3890 C.3       1 FC8         0.0830
     12 N1         13.7140    9.4660  -14.2290 N.pl3     1 FC8        -0.2273
     13 N2         11.8830   10.8070  -14.3300 N.2       1 FC8        -0.3037
     14 C3         12.8870   10.2710  -15.0000 C.2       1 FC8         0.1048
     15 N3         10.2280   11.2910  -11.7960 N.pl3     1 FC8        -0.2560
     16 C1         16.2180    9.0060  -14.0640 C.3       1 FC8        -0.0375
     17 C2         14.8790    8.6890  -14.6920 C.3       1 FC8         0.0568
     18 CL1         7.3600    9.4480   -8.0170 Cl        1 FC8        -0.0737
     19 N4         11.7140    9.8260  -10.7370 N.ar      1 FC8        -0.2524
     20 N5         13.1770    8.4040   -9.6620 N.pl3     1 FC8        -0.2889
     21 C15        12.9280    8.9230   -5.9140 C.3       1 FC8        -0.0506
     22 C16        11.5980    8.2260   -5.6840 C.3       1 FC8        -0.0478
     23 C17        10.6360    8.4520   -6.8500 C.3       1 FC8        -0.0076
     24 C18        11.2520    8.0320   -8.1830 C.3       1 FC8        -0.0008
     25 N6         11.4220    6.5400   -8.2260 N.4       1 FC8         0.2224
     26 N7         13.5970    8.7910  -11.9000 N.ar      1 FC8        -0.2634
     27 C19        13.1450    9.4590  -13.0010 C.ar      1 FC8         0.1433
     28 H1         14.4744    9.1195   -7.4150 H         1 FC8         0.0290
     29 H2         13.8265    7.4548   -7.2255 H         1 FC8         0.0290
     30 H3          9.1840    9.4407  -10.1102 H         1 FC8         0.0543
     31 H4          9.4268   13.6377  -10.9837 H         1 FC8         0.0539
     32 H5          7.8808   14.1040   -9.1184 H         1 FC8         0.0588
     33 H6          7.0102   12.2577   -7.7444 H         1 FC8         0.0526
     34 H7         12.3538    9.8564   -8.4134 H         1 FC8         0.0615
     35 H8         13.0513   10.4451  -16.0624 H         1 FC8         0.1311
     36 H9         10.0094   11.8041  -12.6619 H         1 FC8         0.2173
     37 H10        16.9907    8.3559  -14.5003 H         1 FC8         0.0256
     38 H11        16.1640    8.8340  -12.9789 H         1 FC8         0.0256
     39 H12        16.4732   10.0586  -14.2562 H         1 FC8         0.0256
     40 H13        14.9754    8.8519  -15.7756 H         1 FC8         0.0609
     41 H14        14.6663    7.6273  -14.4983 H         1 FC8         0.0609
     42 H15        13.8796    7.6513   -9.6866 H         1 FC8         0.1850
     43 H16        12.7637   10.0106   -5.9109 H         1 FC8         0.0266
     44 H17        13.6153    8.6536   -5.0985 H         1 FC8         0.0266
     45 H18        11.1425    8.6205   -4.7637 H         1 FC8         0.0267
     46 H19        11.7754    7.1462   -5.5716 H         1 FC8         0.0267
     47 H20        10.3789    9.5205   -6.8975 H         1 FC8         0.0320
     48 H21         9.7234    7.8625   -6.6781 H         1 FC8         0.0320
     49 H22        10.5660    8.3195   -8.9933 H         1 FC8         0.0873
     50 H23        11.8288    6.2735   -9.1089 H         1 FC8         0.1998
     51 H24        10.5229    6.0962   -8.1228 H         1 FC8         0.1998
     52 H25        12.0284    6.2491   -7.4752 H         1 FC8         0.1998
@<TRIPOS>BOND
     1    1    3 ar 
     2    1   13 1  
     3   27    1 ar 
     4   11    2 1  
     5    2   21 1  
     6    3   15 1  
     7    3   19 ar 
     8    4    5 ar 
     9    4    6 ar 
    10   15    4 1  
    11    5    9 ar 
    12    6    7 ar 
    13    7    8 ar 
    14    9    8 ar 
    15    9   18 1  
    16   19   10 ar 
    17   10   20 1  
    18   10   26 ar 
    19   20   11 1  
    20   11   24 1  
    21   12   14 1  
    22   12   17 1  
    23   12   27 1  
    24   13   14 2  
    25   17   16 1  
    26   21   22 1  
    27   22   23 1  
    28   23   24 1  
    29   24   25 1  
    30   26   27 ar 
    31    2   28 1  
    32    2   29 1  
    33    5   30 1  
    34    6   31 1  
    35    7   32 1  
    36    8   33 1  
    37   11   34 1  
    38   14   35 1  
    39   15   36 1  
    40   16   37 1  
    41   16   38 1  
    42   16   39 1  
    43   17   40 1  
    44   17   41 1  
    45   20   42 1  
    46   21   43 1  
    47   21   44 1  
    48   22   45 1  
    49   22   46 1  
    50   23   47 1  
    51   23   48 1  
    52   24   49 1  
    53   25   50 1  
    54   25   51 1  
    55   25   52 1  
@<TRIPOS>SUBSTRUCTURE
     1 FC8         1

