### 
### Created by X-TOOL on Mon Aug  2 16:13:32 2021
### 

@<TRIPOS>MOLECULE
6gva_ligand
   56    59     1     0     0
SMALL
GAST_HUCK


@<TRIPOS>ATOM
      1 C4         19.2360   24.8590  -24.9400 C.2       1 FCQ         0.1620
      2 C14        13.0400   30.1090  -22.1190 C.ar      1 FCQ        -0.0567
      3 C5         17.1920   25.5210  -24.3780 C.ar      1 FCQ         0.0244
      4 C6         18.5400   25.6110  -24.0420 C.ar      1 FCQ         0.1169
      5 C11        13.9180   26.4700  -22.7800 C.3       1 FCQ         0.0640
      6 C7         18.0280   26.9680  -22.2900 C.ar      1 FCQ         0.1494
      7 C8         16.9570   28.3230  -20.0960 C.3       1 FCQ         0.0532
      8 C9         16.5400   27.1740  -19.2060 C.3       1 FCQ        -0.0234
      9 C10        16.2590   26.2010  -23.5840 C.ar      1 FCQ         0.1214
     10 C12        13.4580   27.8960  -22.9610 C.ar      1 FCQ        -0.0180
     11 C13        13.4980   28.8170  -21.9280 C.ar      1 FCQ        -0.0551
     12 N1         18.3880   24.2980  -25.7970 N.pl3     1 FCQ        -0.2550
     13 N2         17.1480   24.7050  -25.4480 N.2       1 FCQ        -0.3938
     14 C3         21.5390   25.8670  -24.7970 C.3       1 FCQ        -0.0387
     15 N3         18.9800   26.3480  -22.9930 N.ar      1 FCQ        -0.2535
     16 C1         21.1140   23.4970  -24.0120 C.3       1 FCQ        -0.0387
     17 C2         20.7160   24.5970  -25.0010 C.3       1 FCQ         0.0543
     18 S1         18.5270   27.9700  -20.9420 S.3       1 FCQ        -0.0542
     19 N4         17.2350   27.1590  -17.9060 N.4       1 FCQ         0.2193
     20 N5         16.6970   26.9190  -22.5310 N.ar      1 FCQ        -0.2425
     21 N6         14.9090   26.1250  -23.8000 N.pl3     1 FCQ        -0.2905
     22 C15        12.5310   30.5130  -23.3520 C.ar      1 FCQ        -0.0068
     23 C16        12.5150   29.5840  -24.3900 C.ar      1 FCQ        -0.0567
     24 C17        12.9610   28.2960  -24.1870 C.ar      1 FCQ        -0.0551
     25 C18        12.1160   31.9180  -23.5840 C.ar      1 FCQ         0.0481
     26 N7         12.6460   32.8410  -22.7450 N.ar      1 FCQ        -0.2940
     27 C19        12.3280   34.1310  -22.9370 C.ar      1 FCQ         0.0086
     28 C20        11.5230   34.5620  -23.9610 C.ar      1 FCQ        -0.0355
     29 C21        11.0190   33.6230  -24.8320 C.ar      1 FCQ        -0.0433
     30 C22        11.3260   32.2900  -24.6540 C.ar      1 FCQ        -0.0287
     31 H1         13.0777   30.8164  -21.2985 H         1 FCQ         0.0625
     32 H2         13.0539   25.7953  -22.8702 H         1 FCQ         0.0694
     33 H3         14.3687   26.3574  -21.7829 H         1 FCQ         0.0694
     34 H4         17.0772   29.2270  -19.4809 H         1 FCQ         0.0462
     35 H5         16.1746   28.4940  -20.8501 H         1 FCQ         0.0462
     36 H6         16.7578   26.2310  -19.7288 H         1 FCQ         0.0823
     37 H7         15.4581   27.2500  -19.0222 H         1 FCQ         0.0823
     38 H8         13.8914   28.5237  -20.9614 H         1 FCQ         0.0566
     39 H9         18.6305   23.6722  -26.5783 H         1 FCQ         0.2721
     40 H10        22.6101   25.6223  -24.8504 H         1 FCQ         0.0276
     41 H11        21.3101   26.2979  -23.8112 H         1 FCQ         0.0276
     42 H12        21.2898   26.5956  -25.5825 H         1 FCQ         0.0276
     43 H13        20.4997   22.6024  -24.1919 H         1 FCQ         0.0276
     44 H14        20.9519   23.8523  -22.9837 H         1 FCQ         0.0276
     45 H15        22.1761   23.2463  -24.1502 H         1 FCQ         0.0276
     46 H16        20.9403   24.2262  -26.0120 H         1 FCQ         0.0658
     47 H17        16.9142   26.3730  -17.3626 H         1 FCQ         0.1994
     48 H18        17.0375   28.0137  -17.4095 H         1 FCQ         0.1994
     49 H19        18.2285   27.0800  -18.0570 H         1 FCQ         0.1994
     50 H20        14.5758   25.8106  -24.7225 H         1 FCQ         0.1872
     51 H21        12.1481   29.8772  -25.3670 H         1 FCQ         0.0625
     52 H22        12.9213   27.5840  -25.0034 H         1 FCQ         0.0566
     53 H23        12.7267   34.8681  -22.2494 H         1 FCQ         0.0823
     54 H24        11.2902   35.6139  -24.0809 H         1 FCQ         0.0697
     55 H25        10.3833   33.9298  -25.6547 H         1 FCQ         0.0732
     56 H26        10.9518   31.5437  -25.3454 H         1 FCQ         0.0706
@<TRIPOS>BOND
     1    4    1 2  
     2    1   12 1  
     3    1   17 1  
     4   11    2 ar 
     5    2   22 ar 
     6    3    4 ar 
     7    9    3 ar 
     8    3   13 2  
     9    4   15 ar 
    10   10    5 1  
    11    5   21 1  
    12    6   15 ar 
    13    6   18 1  
    14   20    6 ar 
    15    7    8 1  
    16   18    7 1  
    17    8   19 1  
    18    9   20 ar 
    19   21    9 1  
    20   10   11 ar 
    21   10   24 ar 
    22   12   13 1  
    23   17   14 1  
    24   17   16 1  
    25   22   23 ar 
    26   22   25 1  
    27   23   24 ar 
    28   25   26 ar 
    29   25   30 ar 
    30   26   27 ar 
    31   27   28 ar 
    32   28   29 ar 
    33   29   30 ar 
    34    2   31 1  
    35    5   32 1  
    36    5   33 1  
    37    7   34 1  
    38    7   35 1  
    39    8   36 1  
    40    8   37 1  
    41   11   38 1  
    42   12   39 1  
    43   14   40 1  
    44   14   41 1  
    45   14   42 1  
    46   16   43 1  
    47   16   44 1  
    48   16   45 1  
    49   17   46 1  
    50   19   47 1  
    51   19   48 1  
    52   19   49 1  
    53   21   50 1  
    54   23   51 1  
    55   24   52 1  
    56   27   53 1  
    57   28   54 1  
    58   29   55 1  
    59   30   56 1  
@<TRIPOS>SUBSTRUCTURE
     1 FCQ         1

