### 
### Created by X-TOOL on Mon Aug  2 16:13:33 2021
### 

@<TRIPOS>MOLECULE
6gvf_ligand
   38    41     1     0     0
SMALL
GAST_HUCK


@<TRIPOS>ATOM
      1 C4        -17.1650  147.3590   28.8870 C.2       1 FE5         0.0652
      2 C5        -16.5400  148.4940   29.4850 C.ar      1 FE5         0.0859
      3 C7        -14.2320  143.8230   25.2250 C.2       1 FE5         0.2743
      4 C8        -15.2300  145.2390   26.4660 C.ar      1 FE5         0.0277
      5 N2        -18.4810  147.4390   29.0060 N.2       1 FE5        -0.1969
      6 C10       -16.6010  146.1720   28.1950 C.ar      1 FE5        -0.0241
      7 C12       -15.2440  149.0200   29.7060 C.ar      1 FE5         0.1273
      8 N3        -18.7510  148.6030   29.6700 N.pl3     1 FE5        -0.1822
      9 C13       -15.5640  143.9820   26.9210 C.ar      1 FE5         0.1396
     10 C15       -15.7500  146.3630   27.1050 C.ar      1 FE5        -0.0576
     11 C1        -17.6100  149.2690   29.9770 C.ar      1 FE5         0.1629
     12 N6        -14.3710  145.1210   25.3730 N.2       1 FE5        -0.2972
     13 O9        -14.9230  143.0570   26.1230 O.3       1 FE5        -0.1971
     14 N11       -17.5110  150.4400   30.6230 N.ar      1 FE5        -0.2677
     15 N14       -15.1250  150.2010   30.3570 N.ar      1 FE5        -0.2657
     16 C16       -16.2380  150.8240   30.7660 C.ar      1 FE5         0.0565
     17 C17       -20.1780  148.9150   29.9240 C.3       1 FE5         0.0751
     18 C18       -16.9200  144.8800   28.6310 C.ar      1 FE5        -0.0673
     19 C19       -16.4020  143.7620   27.9950 C.ar      1 FE5        -0.0315
     20 N20       -13.5060  143.1720   24.3130 N.pl3     1 FE5        -0.2776
     21 N21       -14.1240  148.4060   29.3010 N.pl3     1 FE5        -0.3125
     22 C22       -20.6520  148.1910   31.1770 C.3       1 FE5        -0.0338
     23 C23       -21.0210  148.5080   28.7230 C.3       1 FE5        -0.0338
     24 H1        -15.4998  147.3611   26.7640 H         1 FE5         0.0527
     25 H2        -16.0866  151.7653   31.2819 H         1 FE5         0.1030
     26 H3        -20.2834  149.9988   30.0797 H         1 FE5         0.0654
     27 H4        -17.5825  144.7518   29.4793 H         1 FE5         0.0528
     28 H5        -16.6447  142.7590   28.3270 H         1 FE5         0.0556
     29 H6        -12.9658  143.6996   23.6125 H         1 FE5         0.1886
     30 H7        -13.4861  142.1422   24.3099 H         1 FE5         0.1886
     31 H8        -13.2058  148.8335   29.4882 H         1 FE5         0.1842
     32 H9        -14.1813  147.5065   28.8025 H         1 FE5         0.1842
     33 H10       -21.7108  148.4274   31.3586 H         1 FE5         0.0259
     34 H11       -20.0506  148.5169   32.0385 H         1 FE5         0.0259
     35 H12       -20.5370  147.1058   31.0391 H         1 FE5         0.0259
     36 H13       -22.0774  148.7429   28.9200 H         1 FE5         0.0259
     37 H14       -20.9122  147.4275   28.5479 H         1 FE5         0.0259
     38 H15       -20.6825  149.0596   27.8335 H         1 FE5         0.0259
@<TRIPOS>BOND
     1    1    2 1  
     2    1    5 2  
     3    6    1 1  
     4    2    7 ar 
     5    2   11 ar 
     6   12    3 2  
     7    3   13 1  
     8    3   20 1  
     9    4    9 ar 
    10   10    4 ar 
    11    4   12 1  
    12    5    8 1  
    13    6   10 ar 
    14    6   18 ar 
    15    7   15 ar 
    16    7   21 1  
    17    8   11 1  
    18    8   17 1  
    19    9   13 1  
    20    9   19 ar 
    21   11   14 ar 
    22   14   16 ar 
    23   15   16 ar 
    24   17   22 1  
    25   17   23 1  
    26   18   19 ar 
    27   10   24 1  
    28   16   25 1  
    29   17   26 1  
    30   18   27 1  
    31   19   28 1  
    32   20   29 1  
    33   20   30 1  
    34   21   31 1  
    35   21   32 1  
    36   22   33 1  
    37   22   34 1  
    38   22   35 1  
    39   23   36 1  
    40   23   37 1  
    41   23   38 1  
@<TRIPOS>SUBSTRUCTURE
     1 FE5         1

