### 
### Created by X-TOOL on Mon Aug  2 16:13:34 2021
### 

@<TRIPOS>MOLECULE
6gvg_ligand
   41    44     1     0     0
SMALL
GAST_HUCK


@<TRIPOS>ATOM
      1 C4        -15.7910  146.3640   26.7730 C.ar      1 FCZ        -0.0576
      2 C5        -15.3730  144.0130   26.5400 C.ar      1 FCZ         0.1396
      3 C6        -15.1690  145.3050   26.1070 C.ar      1 FCZ         0.0278
      4 C8        -14.0540  144.0070   24.8330 C.2       1 FCZ         0.2743
      5 C10       -17.2950  147.1530   28.6160 C.2       1 FCZ         0.0592
      6 C14       -17.9840  148.9520   29.7820 C.ar      1 FCZ         0.1523
      7 C15       -16.8250  148.3570   29.2340 C.ar      1 FCZ         0.0572
      8 C1        -16.1720  143.6960   27.6160 C.ar      1 FCZ        -0.0315
      9 C2        -16.7880  144.7440   28.2760 C.ar      1 FCZ        -0.0673
     10 C3        -16.6050  146.0690   27.8670 C.ar      1 FCZ        -0.0249
     11 N7        -14.3130  145.2830   25.0020 N.2       1 FCZ        -0.2972
     12 O9        -14.6560  143.1640   25.7230 O.3       1 FCZ        -0.1971
     13 N11       -13.2820  143.4390   23.9090 N.pl3     1 FCZ        -0.2776
     14 N12       -19.0260  148.1320   29.4870 N.pl3     1 FCZ        -0.1858
     15 N13       -18.6060  147.0320   28.7740 N.2       1 FCZ        -0.2011
     16 C16       -15.6540  149.1270   29.4780 C.ar      1 FCZ         0.0320
     17 N17       -15.6900  150.2870   30.1580 N.ar      1 FCZ        -0.2645
     18 C18       -16.8780  150.7340   30.6240 C.ar      1 FCZ         0.1641
     19 N19       -18.0570  150.1070   30.4660 N.ar      1 FCZ        -0.2509
     20 C20       -20.4660  148.2550   29.8090 C.3       1 FCZ         0.0742
     21 C21       -20.6680  148.2760   31.3220 C.3       1 FCZ        -0.0340
     22 C22       -21.2490  147.1260   29.1460 C.3       1 FCZ        -0.0340
     23 C23       -14.3020  148.6960   28.9920 C.3       1 FCZ        -0.0110
     24 N24       -16.8860  151.8850   31.2950 N.pl3     1 FCZ        -0.3077
     25 H1        -15.6450  147.3879   26.4483 H         1 FCZ         0.0527
     26 H2        -16.3122  142.6687   27.9323 H         1 FCZ         0.0556
     27 H3        -17.4254  144.5342   29.1273 H         1 FCZ         0.0528
     28 H4        -12.8011  144.0228   23.2099 H         1 FCZ         0.1886
     29 H5        -13.1656  142.4157   23.8933 H         1 FCZ         0.1886
     30 H6        -20.8328  149.2092   29.4028 H         1 FCZ         0.0652
     31 H7        -21.7408  148.3676   31.5474 H         1 FCZ         0.0259
     32 H8        -20.1285  149.1327   31.7521 H         1 FCZ         0.0259
     33 H9        -20.2804  147.3428   31.7567 H         1 FCZ         0.0259
     34 H10       -22.3165  147.2268   29.3915 H         1 FCZ         0.0259
     35 H11       -20.8782  146.1577   29.5132 H         1 FCZ         0.0259
     36 H12       -21.1170  147.1795   28.0553 H         1 FCZ         0.0259
     37 H13       -13.5497  149.4397   29.2936 H         1 FCZ         0.0459
     38 H14       -14.3160  148.6127   27.8953 H         1 FCZ         0.0459
     39 H15       -14.0487  147.7196   29.4308 H         1 FCZ         0.0459
     40 H16       -16.0072  152.4018   31.4415 H         1 FCZ         0.1824
     41 H17       -17.7710  152.2580   31.6672 H         1 FCZ         0.1824
@<TRIPOS>BOND
     1    1    3 ar 
     2   10    1 ar 
     3    3    2 ar 
     4    2    8 ar 
     5    2   12 1  
     6    3   11 1  
     7   11    4 2  
     8    4   12 1  
     9    4   13 1  
    10    5    7 1  
    11    5   10 1  
    12    5   15 2  
    13    7    6 ar 
    14    6   14 1  
    15    6   19 ar 
    16    7   16 ar 
    17    8    9 ar 
    18    9   10 ar 
    19   14   15 1  
    20   14   20 1  
    21   16   17 ar 
    22   16   23 1  
    23   17   18 ar 
    24   18   19 ar 
    25   18   24 1  
    26   20   21 1  
    27   20   22 1  
    28    1   25 1  
    29    8   26 1  
    30    9   27 1  
    31   13   28 1  
    32   13   29 1  
    33   20   30 1  
    34   21   31 1  
    35   21   32 1  
    36   21   33 1  
    37   22   34 1  
    38   22   35 1  
    39   22   36 1  
    40   23   37 1  
    41   23   38 1  
    42   23   39 1  
    43   24   40 1  
    44   24   41 1  
@<TRIPOS>SUBSTRUCTURE
     1 FCZ         1

