### 
### Created by X-TOOL on Mon Aug  2 16:13:35 2021
### 

@<TRIPOS>MOLECULE
6gvh_ligand
   38    41     1     0     0
SMALL
GAST_HUCK


@<TRIPOS>ATOM
      1 C4        -15.8790  147.7260   28.8440 C.ar      1 FDH         0.1254
      2 C5        -16.9720  146.8610   28.6010 C.ar      1 FDH         0.0718
      3 C6        -18.1270  147.3740   29.2300 C.ar      1 FDH         0.1577
      4 N1        -15.8770  148.8510   29.5420 N.ar      1 FDH        -0.2468
      5 C9        -17.4130  145.6490   27.9680 C.2       1 FDH         0.0623
      6 C10       -20.5650  146.5430   29.3710 C.3       1 FDH         0.0746
      7 C11       -21.3590  145.4720   28.6260 C.3       1 FDH        -0.0340
      8 C12       -20.6930  146.4250   30.8870 C.3       1 FDH        -0.0340
      9 N3        -18.2180  148.5000   29.9540 N.ar      1 FDH        -0.2446
     10 C14       -16.6890  144.6350   27.1440 C.ar      1 FDH        -0.0244
     11 C2        -17.0680  149.2000   30.0790 C.ar      1 FDH         0.1713
     12 N7        -19.1420  146.5070   28.9650 N.pl3     1 FDH        -0.1837
     13 N8        -18.7060  145.4520   28.1930 N.2       1 FDH        -0.1986
     14 N13       -17.1170  150.3260   30.7910 N.pl3     1 FDH        -0.3066
     15 CL        -14.3410  147.3120   28.1730 Cl        1 FDH        -0.0274
     16 C16       -15.8220  145.0450   26.1290 C.ar      1 FDH        -0.0576
     17 C17       -16.2340  142.2940   26.6550 C.ar      1 FDH        -0.0315
     18 C18       -16.8870  143.2650   27.3970 C.ar      1 FDH        -0.0673
     19 C19       -15.3820  142.7320   25.6560 C.ar      1 FDH         0.1396
     20 C20       -15.1640  144.0660   25.3800 C.ar      1 FDH         0.0277
     21 N21       -14.2570  144.1700   24.3240 N.2       1 FDH        -0.2972
     22 C22       -13.9800  142.9240   24.0240 C.2       1 FDH         0.2743
     23 O23       -14.6180  141.9850   24.7810 O.3       1 FDH        -0.1971
     24 N24       -13.1630  142.4710   23.0830 N.pl3     1 FDH        -0.2776
     25 H1        -20.9754  147.5212   29.0801 H         1 FDH         0.0652
     26 H2        -22.4127  145.5126   28.9391 H         1 FDH         0.0259
     27 H3        -20.9452  144.4799   28.8594 H         1 FDH         0.0259
     28 H4        -21.2911  145.6521   27.5430 H         1 FDH         0.0259
     29 H5        -20.1026  147.2189   31.3677 H         1 FDH         0.0259
     30 H6        -20.3190  145.4427   31.2112 H         1 FDH         0.0259
     31 H7        -21.7496  146.5284   31.1749 H         1 FDH         0.0259
     32 H8        -16.2670  150.8943   30.9150 H         1 FDH         0.1824
     33 H9        -18.0049  150.6277   31.2171 H         1 FDH         0.1824
     34 H10       -15.6632  146.0981   25.9269 H         1 FDH         0.0527
     35 H11       -16.3838  141.2379   26.8484 H         1 FDH         0.0556
     36 H12       -17.5639  142.9633   28.1881 H         1 FDH         0.0528
     37 H13       -12.6539  143.1333   22.4805 H         1 FDH         0.1886
     38 H14       -13.0374  141.4568   22.9546 H         1 FDH         0.1886
@<TRIPOS>BOND
     1    2    1 ar 
     2    1    4 ar 
     3    1   15 1  
     4    3    2 ar 
     5    2    5 1  
     6    3    9 ar 
     7   12    3 1  
     8    4   11 ar 
     9    5   10 1  
    10    5   13 2  
    11    6    7 1  
    12    6    8 1  
    13    6   12 1  
    14    9   11 ar 
    15   10   16 ar 
    16   10   18 ar 
    17   11   14 1  
    18   12   13 1  
    19   16   20 ar 
    20   18   17 ar 
    21   17   19 ar 
    22   19   20 ar 
    23   19   23 1  
    24   20   21 1  
    25   21   22 2  
    26   22   23 1  
    27   22   24 1  
    28    6   25 1  
    29    7   26 1  
    30    7   27 1  
    31    7   28 1  
    32    8   29 1  
    33    8   30 1  
    34    8   31 1  
    35   14   32 1  
    36   14   33 1  
    37   16   34 1  
    38   17   35 1  
    39   18   36 1  
    40   24   37 1  
    41   24   38 1  
@<TRIPOS>SUBSTRUCTURE
     1 FDH         1

