### 
### Created by X-TOOL on Mon Aug  2 16:13:36 2021
### 

@<TRIPOS>MOLECULE
6gvi_ligand
   40    43     1     0     0
SMALL
GAST_HUCK


@<TRIPOS>ATOM
      1 C8        -20.5410  147.6860   29.7560 C.3       1 FDW         0.0736
      2 N2        -19.0780  147.7440   29.4940 N.pl3     1 FDW        -0.1893
      3 C9        -16.4980  146.0110   27.8800 C.ar      1 FDW        -0.0257
      4 C10       -16.8460  148.1280   29.3590 C.ar      1 FDW         0.0739
      5 C11       -18.0800  148.6470   29.9120 C.ar      1 FDW         0.1459
      6 N3        -18.5410  146.7720   28.7110 N.2       1 FDW        -0.2052
      7 C13       -21.2710  148.3420   28.5950 C.3       1 FDW        -0.0341
      8 C14       -20.9440  148.2230   31.1610 C.3       1 FDW        -0.0341
      9 C15       -15.7060  148.8420   29.6540 C.ar      1 FDW         0.1164
     10 N4        -18.2270  149.7860   30.6850 N.ar      1 FDW        -0.2618
     11 C1        -17.2120  146.9740   28.6390 C.2       1 FDW         0.0567
     12 C19       -17.0220  150.3890   30.9060 C.ar      1 FDW         0.1552
     13 N6        -15.7510  149.9950   30.4170 N.ar      1 FDW        -0.2530
     14 N7        -14.5190  148.4210   29.1970 N.pl3     1 FDW        -0.3144
     15 N8        -17.0760  151.5110   31.7020 N.pl3     1 FDW        -0.3093
     16 C27       -15.5990  146.3430   26.8950 C.ar      1 FDW        -0.0576
     17 C28       -15.1140  145.2360   26.1990 C.ar      1 FDW         0.0278
     18 C29       -15.5030  143.9000   26.5530 C.ar      1 FDW         0.1396
     19 C30       -16.3310  143.5870   27.5690 C.ar      1 FDW        -0.0314
     20 C31       -16.8130  144.6830   28.2460 C.ar      1 FDW        -0.0674
     21 O43       -14.9270  142.9930   25.7320 O.3       1 FDW        -0.1971
     22 C44       -14.1680  143.7990   24.8750 C.2       1 FDW         0.2743
     23 N9        -14.2370  145.1490   25.1130 N.2       1 FDW        -0.2972
     24 N10       -13.4550  143.1270   23.9100 N.pl3     1 FDW        -0.2776
     25 H1        -20.8256  146.6235   29.7490 H         1 FDW         0.0651
     26 H2        -22.3554  148.3058   28.7763 H         1 FDW         0.0259
     27 H3        -21.0368  147.8048   27.6641 H         1 FDW         0.0259
     28 H4        -20.9491  149.3900   28.5046 H         1 FDW         0.0259
     29 H5        -22.0348  148.1492   31.2827 H         1 FDW         0.0259
     30 H6        -20.6350  149.2746   31.2541 H         1 FDW         0.0259
     31 H7        -20.4470  147.6245   31.9387 H         1 FDW         0.0259
     32 H8        -13.6647  148.9530   29.4161 H         1 FDW         0.1842
     33 H9        -14.4608  147.5653   28.6266 H         1 FDW         0.1842
     34 H10       -17.9793  151.8323   32.0785 H         1 FDW         0.1823
     35 H11       -16.2131  152.0291   31.9210 H         1 FDW         0.1823
     36 H12       -15.2974  147.3619   26.6808 H         1 FDW         0.0527
     37 H13       -16.5926  142.5675   27.8283 H         1 FDW         0.0556
     38 H14       -17.4633  144.5208   29.0980 H         1 FDW         0.0529
     39 H15       -12.8724  143.6511   23.2416 H         1 FDW         0.1886
     40 H16       -13.5036  142.0996   23.8557 H         1 FDW         0.1886
@<TRIPOS>BOND
     1    2    1 1  
     2    1    7 1  
     3    1    8 1  
     4    5    2 1  
     5    2    6 1  
     6   11    3 1  
     7    3   16 ar 
     8    3   20 ar 
     9    4    5 ar 
    10    4    9 ar 
    11    4   11 1  
    12    5   10 ar 
    13    6   11 2  
    14    9   13 ar 
    15    9   14 1  
    16   10   12 ar 
    17   12   13 ar 
    18   12   15 1  
    19   16   17 ar 
    20   17   18 ar 
    21   17   23 1  
    22   18   19 ar 
    23   18   21 1  
    24   19   20 ar 
    25   21   22 1  
    26   22   23 2  
    27   22   24 1  
    28    1   25 1  
    29    7   26 1  
    30    7   27 1  
    31    7   28 1  
    32    8   29 1  
    33    8   30 1  
    34    8   31 1  
    35   14   32 1  
    36   14   33 1  
    37   15   34 1  
    38   15   35 1  
    39   16   36 1  
    40   19   37 1  
    41   20   38 1  
    42   24   39 1  
    43   24   40 1  
@<TRIPOS>SUBSTRUCTURE
     1 FDW         1

