### 
### Created by X-TOOL on Mon Aug  2 16:13:36 2021
### 

@<TRIPOS>MOLECULE
6gvx_ligand
   56    60     1     0     0
SMALL
GAST_HUCK


@<TRIPOS>ATOM
      1 C1          8.1830   -0.7370    1.2910 C.3       1 TAK        -0.0318
      2 C2          9.3370   -0.3470    2.2080 C.3       1 TAK        -0.0123
      3 C3          8.9590   -0.5680    3.6680 C.3       1 TAK        -0.0434
      4 C4          8.4610   -1.9920    3.8810 C.3       1 TAK        -0.0123
      5 C5          7.3410   -2.3140    2.9000 C.3       1 TAK        -0.0318
      6 N1          7.8350   -2.1460    1.5260 N.4       1 TAK         0.2371
      7 C6          6.7930   -2.5670    0.5790 C.3       1 TAK        -0.0034
      8 C7          6.5130   -4.0480    0.8010 C.3       1 TAK         0.1101
      9 O1          5.4250   -4.4820   -0.0100 O.3       1 TAK        -0.3129
     10 C8          4.7700   -5.6240    0.3640 C.ar      1 TAK         0.0909
     11 C9          3.4670   -5.5480    0.8410 C.ar      1 TAK        -0.0336
     12 C10         2.8040   -6.7050    1.2300 C.ar      1 TAK        -0.0643
     13 C11         5.4160   -6.8510    0.2850 C.ar      1 TAK        -0.0336
     14 C12         4.7520   -8.0080    0.6740 C.ar      1 TAK        -0.0643
     15 C13         3.4420   -7.9360    1.1340 C.ar      1 TAK        -0.0240
     16 C14         2.7410   -9.1690    1.5750 C.2       1 TAK         0.0506
     17 C15         1.5340   -9.0550    2.2590 C.2       1 TAK         0.1249
     18 C16         3.2980  -10.4280    1.3430 C.2       1 TAK         0.0263
     19 N2          2.6560  -11.5240    1.7700 N.2       1 TAK        -0.2593
     20 C17         1.4810  -11.3520    2.4210 C.2       1 TAK         0.1835
     21 N3          0.9390  -10.1770    2.6630 N.pl3     1 TAK        -0.1258
     22 N4         -0.2670  -10.2450    3.3530 N.2       1 TAK        -0.2003
     23 C18        -0.4490  -11.5810    3.5350 C.2       1 TAK         0.0017
     24 C19         0.6160  -12.2940    2.9670 C.2       1 TAK         0.0241
     25 C20         0.7740  -13.7770    2.9810 C.ar      1 TAK        -0.0254
     26 C21         1.6230  -14.4320    2.0990 C.ar      1 TAK        -0.0413
     27 C22         1.7390  -15.8160    2.1660 C.ar      1 TAK        -0.0018
     28 N5          1.0460  -16.5150    3.0750 N.ar      1 TAK        -0.3118
     29 C23         0.2270  -15.9070    3.9420 C.ar      1 TAK        -0.0018
     30 C24         0.0730  -14.5260    3.9170 C.ar      1 TAK        -0.0413
     31 H1          8.4849   -0.6025    0.2418 H         1 TAK         0.0814
     32 H2          7.3111   -0.1018    1.5060 H         1 TAK         0.0814
     33 H3          9.5786    0.7150    2.0537 H         1 TAK         0.0317
     34 H4         10.2160   -0.9621    1.9649 H         1 TAK         0.0317
     35 H5          8.1638    0.1390    3.9470 H         1 TAK         0.0269
     36 H6          9.8421   -0.3950    4.3007 H         1 TAK         0.0269
     37 H7          8.0831   -2.0941    4.9090 H         1 TAK         0.0317
     38 H8          9.2930   -2.6944    3.7247 H         1 TAK         0.0317
     39 H9          6.4948   -1.6326    3.0720 H         1 TAK         0.0814
     40 H10         7.0110   -3.3529    3.0472 H         1 TAK         0.0814
     41 H11         8.6553   -2.7169    1.3944 H         1 TAK         0.2034
     42 H12         7.1403   -2.4049   -0.4521 H         1 TAK         0.0841
     43 H13         5.8758   -1.9852    0.7527 H         1 TAK         0.0841
     44 H14         6.2629   -4.2135    1.8593 H         1 TAK         0.0668
     45 H15         7.4108   -4.6281    0.5413 H         1 TAK         0.0668
     46 H16         2.9689   -4.5876    0.9094 H         1 TAK         0.0543
     47 H17         1.7897   -6.6478    1.6082 H         1 TAK         0.0579
     48 H18         6.4355   -6.9059   -0.0792 H         1 TAK         0.0543
     49 H19         5.2553   -8.9665    0.6188 H         1 TAK         0.0579
     50 H20         1.0903   -8.0805    2.4576 H         1 TAK         0.1384
     51 H21         4.2480  -10.5188    0.8184 H         1 TAK         0.1005
     52 H22        -1.2982  -12.0309    4.0472 H         1 TAK         0.0691
     53 H23         2.1898  -13.8700    1.3655 H         1 TAK         0.0630
     54 H24         2.3959  -16.3340    1.4767 H         1 TAK         0.0788
     55 H25        -0.3202  -16.4962    4.6690 H         1 TAK         0.0788
     56 H26        -0.5891  -14.0373    4.6226 H         1 TAK         0.0630
@<TRIPOS>BOND
     1    1    2 1  
     2    1    6 1  
     3    2    3 1  
     4    3    4 1  
     5    4    5 1  
     6    5    6 1  
     7    6    7 1  
     8    7    8 1  
     9    8    9 1  
    10    9   10 1  
    11   10   11 ar 
    12   10   13 ar 
    13   11   12 ar 
    14   12   15 ar 
    15   13   14 ar 
    16   14   15 ar 
    17   15   16 1  
    18   16   17 2  
    19   16   18 1  
    20   17   21 1  
    21   18   19 2  
    22   19   20 1  
    23   20   21 1  
    24   20   24 2  
    25   21   22 1  
    26   22   23 2  
    27   23   24 1  
    28   24   25 1  
    29   25   26 ar 
    30   25   30 ar 
    31   26   27 ar 
    32   27   28 ar 
    33   28   29 ar 
    34   29   30 ar 
    35    1   31 1  
    36    1   32 1  
    37    2   33 1  
    38    2   34 1  
    39    3   35 1  
    40    3   36 1  
    41    4   37 1  
    42    4   38 1  
    43    5   39 1  
    44    5   40 1  
    45    6   41 1  
    46    7   42 1  
    47    7   43 1  
    48    8   44 1  
    49    8   45 1  
    50   11   46 1  
    51   12   47 1  
    52   13   48 1  
    53   14   49 1  
    54   17   50 1  
    55   18   51 1  
    56   23   52 1  
    57   26   53 1  
    58   27   54 1  
    59   29   55 1  
    60   30   56 1  
@<TRIPOS>SUBSTRUCTURE
     1 TAK         1

