### 
### Created by X-TOOL on Wed Jan  1 15:39:35 2020
### 

@<TRIPOS>MOLECULE
6gvz_ligand
   74    77     1     0     0
SMALL
GAST_HUCK


@<TRIPOS>ATOM
      1 C1         -9.5860  -53.9240   16.2260 C.3       1 CHO        -0.0448
      2 C2        -10.0130  -55.2900   15.6780 C.3       1 CHO        -0.0263
      3 C3         -9.0450  -55.7710   14.6110 C.3       1 CHO         0.0555
      4 O3         -9.4520  -57.0470   14.1320 O.3       1 CHO        -0.3918
      5 C4         -8.9950  -54.7280   13.5160 C.3       1 CHO        -0.0234
      6 C5         -8.5990  -53.3330   14.0110 C.3       1 CHO        -0.0307
      7 C6         -8.5000  -52.3290   12.8550 C.3       1 CHO        -0.0232
      8 C7         -9.8400  -51.8390   12.3120 C.3       1 CHO         0.0589
      9 O7        -10.4310  -52.8680   11.5120 O.3       1 CHO        -0.3915
     10 C8        -10.7890  -51.3860   13.4330 C.3       1 CHO        -0.0083
     11 C9        -10.8950  -52.4270   14.5630 C.3       1 CHO        -0.0299
     12 C10        -9.4990  -52.8110   15.1630 C.3       1 CHO        -0.0258
     13 C11       -11.9440  -52.0060   15.6060 C.3       1 CHO        -0.0489
     14 C12       -13.2720  -51.4920   15.0490 C.3       1 CHO        -0.0468
     15 C13       -13.1170  -50.4050   13.9730 C.3       1 CHO        -0.0258
     16 C14       -12.1860  -51.0080   12.9280 C.3       1 CHO        -0.0299
     17 C15       -12.3270  -50.0410   11.7330 C.3       1 CHO        -0.0491
     18 C16       -13.7960  -49.5740   11.7770 C.3       1 CHO        -0.0492
     19 C17       -14.3770  -50.0580   13.1160 C.3       1 CHO        -0.0326
     20 C18       -12.5370  -49.1250   14.6150 C.3       1 CHO        -0.0590
     21 C19        -8.8260  -51.6100   15.8530 C.3       1 CHO        -0.0590
     22 C20       -15.4290  -49.0850   13.6980 C.3       1 CHO        -0.0385
     23 C21       -16.0010  -49.5670   15.0310 C.3       1 CHO        -0.0620
     24 C22       -16.5640  -48.7640   12.7090 C.3       1 CHO        -0.0332
     25 C23       -17.3770  -49.9670   12.2630 C.3       1 CHO         0.0376
     26 C24       -18.6320  -49.6310   11.4830 C.2       1 CHO         0.1775
     27 O24       -19.4270  -48.7650   11.8440 O.2       1 CHO        -0.3970
     28 N25       -18.8340  -50.3450   10.3860 N.am      1 CHO        -0.2741
     29 C26       -19.9880  -50.1380    9.5370 C.3       1 CHO         0.0832
     30 C27       -21.2970  -50.5900   10.1400 C.2       1 CHO         0.0570
     31 OT1       -22.3520  -50.2210    9.5840 O.co2     1 CHO        -0.5669
     32 OT2       -21.2890  -51.3160   11.1570 O.co2     1 CHO        -0.5669
     33 H1         -8.5951  -54.0341   16.6908 H         1 CHO         0.0271
     34 H2        -10.3164  -53.6154   16.9884 H         1 CHO         0.0271
     35 H3        -11.0185  -55.2044   15.2402 H         1 CHO         0.0290
     36 H4        -10.0325  -56.0187   16.5017 H         1 CHO         0.0290
     37 H5         -8.0411  -55.8696   15.0498 H         1 CHO         0.0593
     38 H6         -8.8433  -57.3426   13.4653 H         1 CHO         0.2098
     39 H7         -9.9908  -54.6624   13.0532 H         1 CHO         0.0293
     40 H8         -8.2611  -55.0503   12.7627 H         1 CHO         0.0293
     41 H9         -7.5868  -53.4293   14.4307 H         1 CHO         0.0308
     42 H10        -7.9527  -52.8098   12.0308 H         1 CHO         0.0293
     43 H11        -7.9348  -51.4545   13.2095 H         1 CHO         0.0293
     44 H12        -9.6484  -50.9694   11.6662 H         1 CHO         0.0596
     45 H13        -9.8516  -53.0774   10.7889 H         1 CHO         0.2098
     46 H14       -10.3485  -50.4772   13.8689 H         1 CHO         0.0331
     47 H15       -11.2817  -53.3469   14.1001 H         1 CHO         0.0310
     48 H16       -11.5052  -51.2070   16.2216 H         1 CHO         0.0268
     49 H17       -12.1597  -52.8797   16.2385 H         1 CHO         0.0268
     50 H18       -13.8583  -51.0747   15.8809 H         1 CHO         0.0271
     51 H19       -13.8145  -52.3412   14.6078 H         1 CHO         0.0271
     52 H20       -12.6259  -51.9645   12.6093 H         1 CHO         0.0310
     53 H21       -12.1134  -50.5600   10.7870 H         1 CHO         0.0268
     54 H22       -11.6447  -49.1853   11.8440 H         1 CHO         0.0268
     55 H23       -14.3581  -50.0132   10.9397 H         1 CHO         0.0268
     56 H24       -13.8464  -48.4768   11.7171 H         1 CHO         0.0268
     57 H25       -14.9162  -51.0002   12.9385 H         1 CHO         0.0309
     58 H26       -11.6518  -49.3842   15.2144 H         1 CHO         0.0235
     59 H27       -13.2964  -48.6634   15.2632 H         1 CHO         0.0235
     60 H28       -12.2497  -48.4161   13.8245 H         1 CHO         0.0235
     61 H29        -7.8519  -51.9194   16.2597 H         1 CHO         0.0235
     62 H30        -9.4674  -51.2504   16.6711 H         1 CHO         0.0235
     63 H31        -8.6779  -50.8023   15.1211 H         1 CHO         0.0235
     64 H32       -14.9028  -48.1399   13.8977 H         1 CHO         0.0302
     65 H33       -16.7407  -48.8398   15.3970 H         1 CHO         0.0233
     66 H34       -15.1878  -49.6639   15.7654 H         1 CHO         0.0233
     67 H35       -16.4862  -50.5441   14.8900 H         1 CHO         0.0233
     68 H36       -16.1193  -48.3009   11.8158 H         1 CHO         0.0292
     69 H37       -17.2467  -48.0490   13.1914 H         1 CHO         0.0292
     70 H38       -17.6721  -50.5322   13.1594 H         1 CHO         0.0502
     71 H39       -16.7369  -50.5961   11.6271 H         1 CHO         0.0502
     72 H40       -18.1688  -51.0488   10.1365 H         1 CHO         0.1872
     73 H41       -19.8305  -50.6941    8.6011 H         1 CHO         0.0689
     74 H42       -20.0642  -49.0630    9.3164 H         1 CHO         0.0689
@<TRIPOS>BOND
     1    1    2 1  
     2    1   12 1  
     3    2    3 1  
     4    3    4 1  
     5    3    5 1  
     6    5    6 1  
     7    6    7 1  
     8    6   12 1  
     9    7    8 1  
    10    8    9 1  
    11    8   10 1  
    12   10   11 1  
    13   10   16 1  
    14   11   12 1  
    15   11   13 1  
    16   12   21 1  
    17   13   14 1  
    18   14   15 1  
    19   15   16 1  
    20   15   19 1  
    21   15   20 1  
    22   16   17 1  
    23   17   18 1  
    24   18   19 1  
    25   19   22 1  
    26   22   23 1  
    27   22   24 1  
    28   24   25 1  
    29   25   26 1  
    30   26   27 2  
    31   26   28 am 
    32   28   29 1  
    33   29   30 1  
    34   30   31 ar 
    35   30   32 ar 
    36    1   33 1  
    37    1   34 1  
    38    2   35 1  
    39    2   36 1  
    40    3   37 1  
    41    4   38 1  
    42    5   39 1  
    43    5   40 1  
    44    6   41 1  
    45    7   42 1  
    46    7   43 1  
    47    8   44 1  
    48    9   45 1  
    49   10   46 1  
    50   11   47 1  
    51   13   48 1  
    52   13   49 1  
    53   14   50 1  
    54   14   51 1  
    55   16   52 1  
    56   17   53 1  
    57   17   54 1  
    58   18   55 1  
    59   18   56 1  
    60   19   57 1  
    61   20   58 1  
    62   20   59 1  
    63   20   60 1  
    64   21   61 1  
    65   21   62 1  
    66   21   63 1  
    67   22   64 1  
    68   23   65 1  
    69   23   66 1  
    70   23   67 1  
    71   24   68 1  
    72   24   69 1  
    73   25   70 1  
    74   25   71 1  
    75   28   72 1  
    76   29   73 1  
    77   29   74 1  
@<TRIPOS>SUBSTRUCTURE
     1 CHO         1

