### 
### Created by X-TOOL on Wed Jan  1 15:39:35 2020
### 

@<TRIPOS>MOLECULE
6gw1_ligand
   69    72     1     0     0
SMALL
GAST_HUCK


@<TRIPOS>ATOM
      1 C1        -49.2200   -0.6240  -14.1150 C.3       1 CHO        -0.0448
      2 C2        -50.5870   -0.5220  -13.4310 C.3       1 CHO        -0.0263
      3 C3        -50.8770    0.9220  -13.0650 C.3       1 CHO         0.0555
      4 O3        -52.1650    1.0090  -12.4460 O.3       1 CHO        -0.3918
      5 C4        -49.7920    1.4140  -12.1430 C.3       1 CHO        -0.0234
      6 C5        -48.4200    1.3840  -12.8110 C.3       1 CHO        -0.0307
      7 C6        -47.3460    2.0100  -11.9150 C.3       1 CHO        -0.0232
      8 C7        -46.8480    1.1350  -10.7700 C.3       1 CHO         0.0589
      9 O7        -47.7810    1.1770   -9.6880 O.3       1 CHO        -0.3915
     10 C8        -46.6240   -0.3250  -11.1880 C.3       1 CHO        -0.0083
     11 C9        -47.7660   -0.8950  -12.0360 C.3       1 CHO        -0.0299
     12 C10       -48.0510   -0.0370  -13.2990 C.3       1 CHO        -0.0258
     13 C11       -47.5260   -2.3660  -12.3900 C.3       1 CHO        -0.0489
     14 C12       -47.1670   -3.2170  -11.1860 C.3       1 CHO        -0.0468
     15 C13       -45.9950   -2.6400  -10.3710 C.3       1 CHO        -0.0258
     16 C14       -46.4060   -1.2370   -9.9780 C.3       1 CHO        -0.0299
     17 C15       -45.3850   -0.8280   -8.9010 C.3       1 CHO        -0.0491
     18 C16       -45.0810   -2.1450   -8.1570 C.3       1 CHO        -0.0492
     19 C17       -45.7540   -3.2690   -8.9720 C.3       1 CHO        -0.0326
     20 C18       -44.7000   -2.6300  -11.2110 C.3       1 CHO        -0.0590
     21 C19       -46.8170    0.0100  -14.2270 C.3       1 CHO        -0.0590
     22 C20       -44.9670   -4.5830   -8.8230 C.3       1 CHO        -0.0385
     23 C21       -45.4800   -5.7520   -9.6530 C.3       1 CHO        -0.0620
     24 C22       -44.9720   -4.9720   -7.3340 C.3       1 CHO        -0.0332
     25 C23       -43.9100   -5.9820   -6.9450 C.3       1 CHO         0.0373
     26 C24       -44.2390   -6.6930   -5.6510 C.2       1 CHO         0.1735
     27 O24       -43.9480   -7.8730   -5.5010 O.2       1 CHO        -0.3973
     28 N25       -44.8530   -5.9810   -4.7120 N.am      1 CHO        -0.3009
     29 H1        -49.2743   -0.0862  -15.0730 H         1 CHO         0.0271
     30 H2        -49.0082   -1.6870  -14.3026 H         1 CHO         0.0271
     31 H3        -50.5845   -1.1358  -12.5182 H         1 CHO         0.0290
     32 H4        -51.3657   -0.8876  -14.1165 H         1 CHO         0.0290
     33 H5        -50.8784    1.5367  -13.9772 H         1 CHO         0.0593
     34 H6        -52.3449    1.9134  -12.2176 H         1 CHO         0.2098
     35 H7        -49.7666    0.7726  -11.2497 H         1 CHO         0.0293
     36 H8        -50.0200    2.4482  -11.8455 H         1 CHO         0.0293
     37 H9        -48.4880    2.0159  -13.7088 H         1 CHO         0.0308
     38 H10       -47.7629    2.9304  -11.4803 H         1 CHO         0.0293
     39 H11       -46.4824    2.2619  -12.5481 H         1 CHO         0.0293
     40 H12       -45.8869    1.5428  -10.4237 H         1 CHO         0.0596
     41 H13       -47.8712    2.0724   -9.3837 H         1 CHO         0.2098
     42 H14       -45.7101   -0.3490  -11.7996 H         1 CHO         0.0331
     43 H15       -48.6732   -0.8582  -11.4151 H         1 CHO         0.0310
     44 H16       -46.7016   -2.4214  -13.1161 H         1 CHO         0.0268
     45 H17       -48.4424   -2.7709  -12.8441 H         1 CHO         0.0268
     46 H18       -46.8890   -4.2218  -11.5369 H         1 CHO         0.0271
     47 H19       -48.0481   -3.2879  -10.5313 H         1 CHO         0.0271
     48 H20       -47.3853   -1.2945   -9.4804 H         1 CHO         0.0310
     49 H21       -45.8159   -0.0826   -8.2165 H         1 CHO         0.0268
     50 H22       -44.4733   -0.4194   -9.3613 H         1 CHO         0.0268
     51 H23       -45.4964   -2.1119   -7.1390 H         1 CHO         0.0268
     52 H24       -43.9948   -2.3108   -8.1046 H         1 CHO         0.0268
     53 H25       -46.7466   -3.4710   -8.5432 H         1 CHO         0.0309
     54 H26       -44.9038   -2.1794  -12.1936 H         1 CHO         0.0235
     55 H27       -44.3435   -3.6616  -11.3476 H         1 CHO         0.0235
     56 H28       -43.9299   -2.0418  -10.6906 H         1 CHO         0.0235
     57 H29       -47.0464    0.6228  -15.1113 H         1 CHO         0.0235
     58 H30       -46.5585   -1.0107  -14.5453 H         1 CHO         0.0235
     59 H31       -45.9675    0.4515  -13.6854 H         1 CHO         0.0235
     60 H32       -43.9307   -4.3881   -9.1362 H         1 CHO         0.0302
     61 H33       -44.8493   -6.6349   -9.4720 H         1 CHO         0.0233
     62 H34       -45.4435   -5.4879  -10.7202 H         1 CHO         0.0233
     63 H35       -46.5177   -5.9778   -9.3664 H         1 CHO         0.0233
     64 H36       -45.9568   -5.3990   -7.0936 H         1 CHO         0.0292
     65 H37       -44.8129   -4.0600   -6.7400 H         1 CHO         0.0292
     66 H38       -42.9502   -5.4579   -6.8262 H         1 CHO         0.0502
     67 H39       -43.8227   -6.7298   -7.7469 H         1 CHO         0.0502
     68 H40       -45.0919   -6.4056   -3.8387 H         1 CHO         0.1814
     69 H41       -45.0762   -5.0206   -4.8786 H         1 CHO         0.1814
@<TRIPOS>BOND
     1    1    2 1  
     2    1   12 1  
     3    2    3 1  
     4    3    4 1  
     5    3    5 1  
     6    5    6 1  
     7    6    7 1  
     8    6   12 1  
     9    7    8 1  
    10    8    9 1  
    11    8   10 1  
    12   10   11 1  
    13   10   16 1  
    14   11   12 1  
    15   11   13 1  
    16   12   21 1  
    17   13   14 1  
    18   14   15 1  
    19   15   16 1  
    20   15   19 1  
    21   15   20 1  
    22   16   17 1  
    23   17   18 1  
    24   18   19 1  
    25   19   22 1  
    26   22   23 1  
    27   22   24 1  
    28   24   25 1  
    29   25   26 1  
    30   26   27 2  
    31   26   28 am 
    32    1   29 1  
    33    1   30 1  
    34    2   31 1  
    35    2   32 1  
    36    3   33 1  
    37    4   34 1  
    38    5   35 1  
    39    5   36 1  
    40    6   37 1  
    41    7   38 1  
    42    7   39 1  
    43    8   40 1  
    44    9   41 1  
    45   10   42 1  
    46   11   43 1  
    47   13   44 1  
    48   13   45 1  
    49   14   46 1  
    50   14   47 1  
    51   16   48 1  
    52   17   49 1  
    53   17   50 1  
    54   18   51 1  
    55   18   52 1  
    56   19   53 1  
    57   20   54 1  
    58   20   55 1  
    59   20   56 1  
    60   21   57 1  
    61   21   58 1  
    62   21   59 1  
    63   22   60 1  
    64   23   61 1  
    65   23   62 1  
    66   23   63 1  
    67   24   64 1  
    68   24   65 1  
    69   25   66 1  
    70   25   67 1  
    71   28   68 1  
    72   28   69 1  
@<TRIPOS>SUBSTRUCTURE
     1 CHO         1

