### 
### Created by X-TOOL on Wed Jan  1 15:39:35 2020
### 

@<TRIPOS>MOLECULE
6gw4_ligand
   74    77     1     0     0
SMALL
GAST_HUCK


@<TRIPOS>ATOM
      1 C1         60.1930   -1.6200  -12.6080 C.3       1 CHO        -0.0448
      2 C2         61.3640   -1.0840  -11.7800 C.3       1 CHO        -0.0263
      3 C3         62.1580   -2.2380  -11.2050 C.3       1 CHO         0.0555
      4 O3         63.2750   -1.7270  -10.4740 O.3       1 CHO        -0.3918
      5 C4         61.2630   -3.0480  -10.3030 C.3       1 CHO        -0.0234
      6 C5         60.0580   -3.6150  -11.0590 C.3       1 CHO        -0.0307
      7 C6         59.1990   -4.4940  -10.1440 C.3       1 CHO        -0.0232
      8 C7         58.2220   -3.7530   -9.2430 C.3       1 CHO         0.0589
      9 O7         58.9060   -3.1490   -8.1420 O.3       1 CHO        -0.3915
     10 C8         57.4320   -2.6840  -10.0070 C.3       1 CHO        -0.0083
     11 C9         58.3290   -1.7570  -10.8380 C.3       1 CHO        -0.0299
     12 C10        59.2290   -2.5530  -11.8400 C.3       1 CHO        -0.0258
     13 C11        57.5030   -0.6400  -11.4950 C.3       1 CHO        -0.0489
     14 C12        56.5310    0.0670  -10.5530 C.3       1 CHO        -0.0468
     15 C13        55.6240   -0.8960   -9.7580 C.3       1 CHO        -0.0258
     16 C14        56.5670   -1.8560   -9.0550 C.3       1 CHO        -0.0299
     17 C15        55.6870   -2.5980   -8.0350 C.3       1 CHO        -0.0491
     18 C16        54.6240   -1.5610   -7.6410 C.3       1 CHO        -0.0492
     19 C17        54.8580   -0.3240   -8.5320 C.3       1 CHO        -0.0326
     20 C18        54.6540   -1.6210  -10.7140 C.3       1 CHO        -0.0590
     21 C19        58.3610   -3.2650  -12.8950 C.3       1 CHO        -0.0590
     22 C20        53.5620    0.4890   -8.7410 C.3       1 CHO        -0.0385
     23 C21        53.8200    1.9550   -9.0600 C.3       1 CHO        -0.0620
     24 C22        52.6300    0.3680   -7.5170 C.3       1 CHO        -0.0332
     25 C23        52.9590    1.3040   -6.3610 C.3       1 CHO         0.0376
     26 C24        52.1290    1.0500   -5.1180 C.2       1 CHO         0.1775
     27 O24        52.0240   -0.0720   -4.6190 O.2       1 CHO        -0.3970
     28 N25        51.5150    2.1040   -4.5960 N.am      1 CHO        -0.2741
     29 C26        51.6120    3.4360   -5.1630 C.3       1 CHO         0.0832
     30 C27        50.3360    3.7480   -5.9130 C.2       1 CHO         0.0570
     31 OT1        50.3630    3.7720   -7.1680 O.co2     1 CHO        -0.5669
     32 OT2        49.2960    3.9600   -5.2500 O.co2     1 CHO        -0.5669
     33 H1         60.6048   -2.1803  -13.4603 H         1 CHO         0.0271
     34 H2         59.6147   -0.7610  -12.9789 H         1 CHO         0.0271
     35 H3         60.9764   -0.4629  -10.9591 H         1 CHO         0.0290
     36 H4         62.0174   -0.4760  -12.4229 H         1 CHO         0.0290
     37 H5         62.5226   -2.8766  -12.0231 H         1 CHO         0.0593
     38 H6         63.7736   -2.4506  -10.1130 H         1 CHO         0.2098
     39 H7         60.9012   -2.4036   -9.4882 H         1 CHO         0.0293
     40 H8         61.8432   -3.8818   -9.8810 H         1 CHO         0.0293
     41 H9         60.4725   -4.2856  -11.8261 H         1 CHO         0.0308
     42 H10        59.8762   -5.0759   -9.5015 H         1 CHO         0.0293
     43 H11        58.6190   -5.1785  -10.7804 H         1 CHO         0.0293
     44 H12        57.5062   -4.4874   -8.8452 H         1 CHO         0.0596
     45 H13        58.2792   -2.6925   -7.5932 H         1 CHO         0.2098
     46 H14        56.7614   -3.2081  -10.7039 H         1 CHO         0.0331
     47 H15        59.0153   -1.2636  -10.1340 H         1 CHO         0.0310
     48 H16        56.9231   -1.0810  -12.3192 H         1 CHO         0.0268
     49 H17        58.1991    0.1109  -11.8971 H         1 CHO         0.0268
     50 H18        55.8909    0.7327  -11.1506 H         1 CHO         0.0271
     51 H19        57.1143    0.6647   -9.8371 H         1 CHO         0.0271
     52 H20        57.2814   -1.2536   -8.4747 H         1 CHO         0.0310
     53 H21        56.2773   -2.9055   -7.1592 H         1 CHO         0.0268
     54 H22        55.2200   -3.4831   -8.4916 H         1 CHO         0.0268
     55 H23        54.7336   -1.2902   -6.5805 H         1 CHO         0.0268
     56 H24        53.6163   -1.9670   -7.8135 H         1 CHO         0.0268
     57 H25        55.5484    0.3568   -8.0126 H         1 CHO         0.0309
     58 H26        55.2144   -2.0178  -11.5734 H         1 CHO         0.0235
     59 H27        53.8913   -0.9125  -11.0692 H         1 CHO         0.0235
     60 H28        54.1649   -2.4497  -10.1811 H         1 CHO         0.0235
     61 H29        59.0093   -3.8188  -13.5900 H         1 CHO         0.0235
     62 H30        57.7773   -2.5187  -13.4539 H         1 CHO         0.0235
     63 H31        57.6768   -3.9659  -12.3945 H         1 CHO         0.0235
     64 H32        53.0400    0.0521   -9.6051 H         1 CHO         0.0302
     65 H33        52.8603    2.4749   -9.1966 H         1 CHO         0.0233
     66 H34        54.4126    2.0305   -9.9837 H         1 CHO         0.0233
     67 H35        54.3735    2.4189   -8.2303 H         1 CHO         0.0233
     68 H36        52.6873   -0.6658   -7.1456 H         1 CHO         0.0292
     69 H37        51.6031    0.5825   -7.8477 H         1 CHO         0.0292
     70 H38        52.7834    2.3386   -6.6907 H         1 CHO         0.0502
     71 H39        54.0205    1.1768   -6.1021 H         1 CHO         0.0502
     72 H40        50.9600    1.9744   -3.7743 H         1 CHO         0.1872
     73 H41        52.4662    3.4808   -5.8546 H         1 CHO         0.0689
     74 H42        51.7543    4.1703   -4.3565 H         1 CHO         0.0689
@<TRIPOS>BOND
     1    1    2 1  
     2    1   12 1  
     3    2    3 1  
     4    3    4 1  
     5    3    5 1  
     6    5    6 1  
     7    6    7 1  
     8    6   12 1  
     9    7    8 1  
    10    8    9 1  
    11    8   10 1  
    12   10   11 1  
    13   10   16 1  
    14   11   12 1  
    15   11   13 1  
    16   12   21 1  
    17   13   14 1  
    18   14   15 1  
    19   15   16 1  
    20   15   19 1  
    21   15   20 1  
    22   16   17 1  
    23   17   18 1  
    24   18   19 1  
    25   19   22 1  
    26   22   23 1  
    27   22   24 1  
    28   24   25 1  
    29   25   26 1  
    30   26   27 2  
    31   26   28 am 
    32   28   29 1  
    33   29   30 1  
    34   30   31 ar 
    35   30   32 ar 
    36    1   33 1  
    37    1   34 1  
    38    2   35 1  
    39    2   36 1  
    40    3   37 1  
    41    4   38 1  
    42    5   39 1  
    43    5   40 1  
    44    6   41 1  
    45    7   42 1  
    46    7   43 1  
    47    8   44 1  
    48    9   45 1  
    49   10   46 1  
    50   11   47 1  
    51   13   48 1  
    52   13   49 1  
    53   14   50 1  
    54   14   51 1  
    55   16   52 1  
    56   17   53 1  
    57   17   54 1  
    58   18   55 1  
    59   18   56 1  
    60   19   57 1  
    61   20   58 1  
    62   20   59 1  
    63   20   60 1  
    64   21   61 1  
    65   21   62 1  
    66   21   63 1  
    67   22   64 1  
    68   23   65 1  
    69   23   66 1  
    70   23   67 1  
    71   24   68 1  
    72   24   69 1  
    73   25   70 1  
    74   25   71 1  
    75   28   72 1  
    76   29   73 1  
    77   29   74 1  
@<TRIPOS>SUBSTRUCTURE
     1 CHO         1

