### 
### Created by X-TOOL on Sat Aug  7 21:31:22 2021
### 

@<TRIPOS>MOLECULE
6gwe_ligand
   94    97     1     0     0
SMALL
GAST_HUCK


@<TRIPOS>ATOM
      1 C1         36.0100   49.0320   15.9960 C.cat     1 FE8         0.2882
      2 C10        31.9540   57.9440   14.7830 C.3       1 FE8        -0.0303
      3 C11        33.2790   57.9360   15.5350 C.3       1 FE8         0.0345
      4 C12        33.5880   57.6040   18.0090 C.2       1 FE8         0.1934
      5 C13        32.9740   56.7850   19.1570 C.3       1 FE8         0.0926
      6 C14        33.0020   56.3180   21.4870 C.3       1 FE8         0.0345
      7 C15        31.9530   57.3990   21.8100 C.ar      1 FE8        -0.0245
      8 C16        30.5670   57.0090   21.8540 C.ar      1 FE8        -0.0655
      9 C17        29.5850   57.9350   22.1550 C.ar      1 FE8        -0.0755
     10 C18        29.9300   59.2520   22.4220 C.ar      1 FE8        -0.0754
     11 C19        31.2870   59.6400   22.3780 C.ar      1 FE8        -0.0646
     12 C2         36.7140   50.8380   14.6950 C.3       1 FE8         0.0627
     13 C20        32.2990   58.7140   22.0640 C.ar      1 FE8        -0.0145
     14 C21        33.7490   59.2100   22.0690 C.3       1 FE8         0.0758
     15 C22        34.9590   55.8570   20.1560 C.3       1 FE8         0.0345
     16 C23        35.9680   56.1730   21.2870 C.ar      1 FE8        -0.0259
     17 C24        35.8910   55.4720   22.4660 C.ar      1 FE8        -0.0656
     18 C25        36.7970   55.7510   23.5260 C.ar      1 FE8        -0.0755
     19 C26        37.7510   56.7280   23.3730 C.ar      1 FE8        -0.0755
     20 C27        37.8310   57.4470   22.1960 C.ar      1 FE8        -0.0660
     21 C28        36.9360   57.1780   21.1460 C.ar      1 FE8        -0.0300
     22 C29        37.0510   58.0160   19.8170 C.3       1 FE8         0.0253
     23 C3         36.1040   51.9640   15.5480 C.3       1 FE8        -0.0156
     24 C30        38.6220   57.9170   17.2380 C.3       1 FE8         0.0359
     25 C31        37.3170   58.1550   16.4520 C.3       1 FE8         0.1397
     26 C32        37.5350   58.9270   15.2350 C.2       1 FE8         0.2000
     27 C33        37.1320   55.6700   15.7810 C.2       1 FE8         0.2039
     28 C4         36.9130   53.2180   15.2280 C.3       1 FE8        -0.0092
     29 C5         36.2010   54.5090   15.4840 C.3       1 FE8         0.1310
     30 C6         33.7850   54.8540   15.5720 C.2       1 FE8         0.1804
     31 C7         32.4150   54.9500   16.2610 C.3       1 FE8         0.0606
     32 C8         31.7780   56.3630   16.4010 C.3       1 FE8         0.0617
     33 C9         31.1800   56.7430   15.3350 C.3       1 FE8        -0.0257
     34 N1         36.2500   48.0090   16.6530 N.pl3     1 FE8        -0.2849
     35 N2         34.8300   49.4040   15.8350 N.pl3     1 FE8        -0.2849
     36 N3         36.9720   49.6680   15.4980 N.pl3     1 FE8        -0.2723
     37 N4         35.0110   54.5320   16.2940 N.am      1 FE8        -0.2656
     38 N5         32.9720   57.3950   16.6600 N.am      1 FE8        -0.2669
     39 N6         33.8440   56.7480   20.3450 N.3       1 FE8        -0.2646
     40 N7         38.0010   60.2880   15.3420 N.am      1 FE8        -0.2989
     41 N8         36.5440   56.9190   16.1510 N.am      1 FE8        -0.2629
     42 O1         33.8530   55.0300   14.4390 O.2       1 FE8        -0.3968
     43 O2         34.4390   58.3320   18.1620 O.2       1 FE8        -0.3954
     44 O3         34.2420   59.4330   20.8020 O.3       1 FE8        -0.3837
     45 O4         37.3280   58.4850   14.1760 O.2       1 FE8        -0.3947
     46 O5         38.2290   55.5530   15.7000 O.2       1 FE8        -0.3944
     47 S1         38.2820   57.1430   18.8280 S.3       1 FE8        -0.1436
     48 H1         32.1220   57.8322   13.7017 H         1 FE8         0.0285
     49 H2         31.4061   58.8785   14.9743 H         1 FE8         0.0285
     50 H3         33.6577   58.9587   15.6789 H         1 FE8         0.0522
     51 H4         34.0323   57.3377   15.0016 H         1 FE8         0.0522
     52 H5         32.8084   55.7552   18.8077 H         1 FE8         0.0671
     53 H6         32.0110   57.2363   19.4378 H         1 FE8         0.0671
     54 H7         32.4894   55.3799   21.2277 H         1 FE8         0.0577
     55 H8         33.6400   56.1558   22.3682 H         1 FE8         0.0577
     56 H9         30.2914   55.9808   21.6494 H         1 FE8         0.0538
     57 H10        28.5447   57.6316   22.1824 H         1 FE8         0.0541
     58 H11        29.1626   59.9787   22.6629 H         1 FE8         0.0541
     59 H12        31.5538   60.6691   22.5898 H         1 FE8         0.0538
     60 H13        37.6595   51.1898   14.2566 H         1 FE8         0.0689
     61 H14        36.0120   50.5750   13.8900 H         1 FE8         0.0689
     62 H15        34.3773   58.4538   22.5623 H         1 FE8         0.0706
     63 H16        33.7962   60.1520   22.6351 H         1 FE8         0.0706
     64 H17        34.6258   54.8109   20.2247 H         1 FE8         0.0577
     65 H18        35.4222   56.0305   19.1735 H         1 FE8         0.0577
     66 H19        35.1367   54.7032   22.5888 H         1 FE8         0.0538
     67 H20        36.7351   55.1936   24.4536 H         1 FE8         0.0541
     68 H21        38.4444   56.9357   24.1799 H         1 FE8         0.0541
     69 H22        38.5839   58.2185   22.0822 H         1 FE8         0.0537
     70 H23        37.3840   59.0418   20.0331 H         1 FE8         0.0523
     71 H24        36.0841   58.0470   19.2933 H         1 FE8         0.0523
     72 H25        36.1842   51.7198   16.6175 H         1 FE8         0.0301
     73 H26        35.0466   52.1135   15.2843 H         1 FE8         0.0301
     74 H27        39.1219   58.8822   17.4068 H         1 FE8         0.0426
     75 H28        39.2812   57.2602   16.6514 H         1 FE8         0.0426
     76 H29        36.6783   58.7674   17.1054 H         1 FE8         0.0808
     77 H30        37.1882   53.1848   14.1635 H         1 FE8         0.0313
     78 H31        37.8248   53.2028   15.8432 H         1 FE8         0.0313
     79 H32        35.8047   54.7502   14.4866 H         1 FE8         0.0800
     80 H33        32.5263   54.5370   17.2744 H         1 FE8         0.0525
     81 H34        31.7130   54.3277   15.6865 H         1 FE8         0.0525
     82 H35        31.0702   56.3667   17.2430 H         1 FE8         0.0583
     83 H36        31.1728   55.9279   14.5964 H         1 FE8         0.0290
     84 H37        30.1457   57.0362   15.5677 H         1 FE8         0.0290
     85 H38        35.4767   47.4718   17.0705 H         1 FE8         0.2615
     86 H39        37.2228   47.6959   16.7816 H         1 FE8         0.2615
     87 H40        34.6278   50.2539   15.2894 H         1 FE8         0.2615
     88 H41        34.0580   48.8612   16.2477 H         1 FE8         0.2615
     89 H42        37.9397   49.3557   15.6622 H         1 FE8         0.2642
     90 H43        35.0239   54.3419   17.2757 H         1 FE8         0.1883
     91 H44        38.1551   60.8301   14.5160 H         1 FE8         0.1815
     92 H45        38.1699   60.6893   16.2422 H         1 FE8         0.1815
     93 H46        35.5469   56.9657   16.2117 H         1 FE8         0.1884
     94 H47        34.2135   58.6236   20.3053 H         1 FE8         0.2124
@<TRIPOS>BOND
     1    1   34 ar 
     2    1   35 ar 
     3   36    1 ar 
     4    3    2 1  
     5   33    2 1  
     6   38    3 1  
     7    5    4 1  
     8    4   38 am 
     9    4   43 2  
    10   39    5 1  
    11    6    7 1  
    12   39    6 1  
    13    7    8 ar 
    14    7   13 ar 
    15    8    9 ar 
    16    9   10 ar 
    17   11   10 ar 
    18   13   11 ar 
    19   23   12 1  
    20   12   36 1  
    21   13   14 1  
    22   14   44 1  
    23   16   15 1  
    24   15   39 1  
    25   16   17 ar 
    26   21   16 ar 
    27   17   18 ar 
    28   19   18 ar 
    29   20   19 ar 
    30   21   20 ar 
    31   22   21 1  
    32   28   23 1  
    33   25   24 1  
    34   25   26 1  
    35   41   25 1  
    36   26   40 am 
    37   26   45 2  
    38   29   27 1  
    39   27   41 am 
    40   27   46 2  
    41   29   28 1  
    42   37   29 1  
    43   31   30 1  
    44   30   37 am 
    45   30   42 2  
    46   32   31 1  
    47   32   33 1  
    48   38   32 1  
    49   47   22 1  
    50   24   47 1  
    51    2   48 1  
    52    2   49 1  
    53    3   50 1  
    54    3   51 1  
    55    5   52 1  
    56    5   53 1  
    57    6   54 1  
    58    6   55 1  
    59    8   56 1  
    60    9   57 1  
    61   10   58 1  
    62   11   59 1  
    63   12   60 1  
    64   12   61 1  
    65   14   62 1  
    66   14   63 1  
    67   15   64 1  
    68   15   65 1  
    69   17   66 1  
    70   18   67 1  
    71   19   68 1  
    72   20   69 1  
    73   22   70 1  
    74   22   71 1  
    75   23   72 1  
    76   23   73 1  
    77   24   74 1  
    78   24   75 1  
    79   25   76 1  
    80   28   77 1  
    81   28   78 1  
    82   29   79 1  
    83   31   80 1  
    84   31   81 1  
    85   32   82 1  
    86   33   83 1  
    87   33   84 1  
    88   34   85 1  
    89   34   86 1  
    90   35   87 1  
    91   35   88 1  
    92   36   89 1  
    93   37   90 1  
    94   40   91 1  
    95   40   92 1  
    96   41   93 1  
    97   44   94 1  
@<TRIPOS>SUBSTRUCTURE
     1 FE8         1

