### 
### Created by X-TOOL on Wed Jan  1 15:39:37 2020
### 

@<TRIPOS>MOLECULE
6gwr_ligand
   74    78     1     0     0
SMALL
GAST_HUCK


@<TRIPOS>ATOM
      1 C13        -3.3190   21.4150   -1.3930 C.ar      1 FEW         0.0192
      2 C17        -7.6690   22.7100   -2.3920 C.3       1 FEW         0.0092
      3 C20        -6.8370   23.4110   -0.3130 C.3       1 FEW         0.0092
      4 C21        -5.3750   23.0630   -0.7870 C.3       1 FEW         0.0109
      5 C22        -2.0490   21.8460   -0.9880 C.ar      1 FEW        -0.0391
      6 C24         0.0600   21.5520    0.3990 C.3       1 FEW         0.3708
      7 C28        -1.8060   19.9470    0.4530 C.ar      1 FEW        -0.0184
      8 C01        -6.8940   12.5800    4.2560 C.3       1 FEW        -0.0520
      9 C02        -5.5200   12.5050    3.5170 C.3       1 FEW        -0.0097
     10 C03        -5.5590   11.5250    2.3110 C.3       1 FEW        -0.0520
     11 C04        -4.9880   13.9230    3.0630 C.ar      1 FEW        -0.0214
     12 C05        -5.3790   14.4650    1.8800 C.ar      1 FEW        -0.0541
     13 C06        -4.8920   15.6990    1.4990 C.ar      1 FEW        -0.0492
     14 C07        -4.0060   16.3870    2.3530 C.ar      1 FEW         0.0487
     15 C08        -3.4140   17.7670    1.9530 C.2       1 FEW         0.2274
     16 C11        -3.1010   19.5070    0.0560 C.ar      1 FEW         0.0890
     17 C12        -3.8260   20.2280   -0.8780 C.ar      1 FEW        -0.0044
     18 C14        -4.1200   22.2510   -2.4440 C.3       1 FEW         0.0057
     19 C16        -6.3280   21.9010   -2.4700 C.3       1 FEW         0.0109
     20 C19        -8.9640   23.2920   -0.7660 C.3       1 FEW        -0.0427
     21 C23        -1.2970   21.0930   -0.0490 C.ar      1 FEW         0.0269
     22 C29        -3.6160   15.8510    3.5060 C.ar      1 FEW        -0.0344
     23 C30        -4.1030   14.6070    3.8820 C.ar      1 FEW         0.0269
     24 C31        -3.6390   14.0360    5.1990 C.1       1 FEW        -0.0754
     25 C32        -3.2260   13.5880    6.3100 C.1       1 FEW        -0.0462
     26 C33        -2.6870   13.0320    7.6430 C.2       1 FEW         0.1457
     27 C34        -1.4070   12.4250    7.8410 C.2       1 FEW         0.0001
     28 C36        -2.5300   12.4810    9.7230 C.2       1 FEW         0.1741
     29 C37        -2.9260   12.3530   11.0090 C.2       1 FEW         0.0661
     30 C39        -4.9980   13.3910   10.5050 C.2       1 FEW         0.0371
     31 C40        -4.6100   13.5190    9.2220 C.2       1 FEW         0.0956
     32 F25         0.8800   20.4300    0.5360 F         1 FEW        -0.2213
     33 F26        -0.0180   22.1870    1.5910 F         1 FEW        -0.2213
     34 F27         0.6150   22.4220   -0.5580 F         1 FEW        -0.2213
     35 N10        -3.6430   18.2360    0.5880 N.am      1 FEW        -0.2296
     36 N15        -5.2890   22.6950   -2.0780 N.4       1 FEW         0.2548
     37 N18        -7.8120   23.4810   -1.2840 N.4       1 FEW         0.2405
     38 N35        -1.3400   12.0990    9.1080 N.2       1 FEW        -0.3201
     39 N38        -4.1990   12.8260   11.3970 N.2       1 FEW        -0.2936
     40 N41        -3.3270   13.0400    8.8410 N.pl3     1 FEW        -0.1842
     41 O09        -2.7750   18.3640    2.7250 O.2       1 FEW        -0.3761
     42 H1         -8.5022   21.9922   -2.4177 H         1 FEW         0.0868
     43 H2         -7.7230   23.3662   -3.2732 H         1 FEW         0.0868
     44 H3         -6.7986   24.3890    0.1889 H         1 FEW         0.0868
     45 H4         -7.1435   22.6400    0.4092 H         1 FEW         0.0868
     46 H5         -4.9982   22.2366   -0.1665 H         1 FEW         0.0868
     47 H6         -4.7431   23.9510   -0.6382 H         1 FEW         0.0868
     48 H7         -1.6372   22.7623   -1.3953 H         1 FEW         0.0674
     49 H8         -1.2281   19.3615    1.1589 H         1 FEW         0.0665
     50 H9         -7.2103   11.5670    4.5456 H         1 FEW         0.0256
     51 H10        -7.6468   13.0218    3.5866 H         1 FEW         0.0256
     52 H11        -6.7926   13.2039    5.1563 H         1 FEW         0.0256
     53 H12        -4.7932   12.1040    4.2388 H         1 FEW         0.0469
     54 H13        -4.5734   11.5048    1.8229 H         1 FEW         0.0256
     55 H14        -6.3185   11.8611    1.5898 H         1 FEW         0.0256
     56 H15        -5.8126   10.5155    2.6668 H         1 FEW         0.0256
     57 H16        -6.0703   13.9307    1.2383 H         1 FEW         0.0565
     58 H17        -5.1881   16.1352    0.5518 H         1 FEW         0.0641
     59 H18        -4.7925   19.8651   -1.2086 H         1 FEW         0.0704
     60 H19        -4.2684   21.6162   -3.3300 H         1 FEW         0.0983
     61 H20        -3.5043   23.1212   -2.7153 H         1 FEW         0.0983
     62 H21        -6.1624   21.5663   -3.5046 H         1 FEW         0.0868
     63 H22        -6.3898   21.0256   -1.8068 H         1 FEW         0.0868
     64 H23        -9.7328   23.3503   -1.5506 H         1 FEW         0.0778
     65 H24        -9.1558   24.0644   -0.0066 H         1 FEW         0.0778
     66 H25        -8.9957   22.2986   -0.2947 H         1 FEW         0.0778
     67 H26        -2.9224   16.3822    4.1478 H         1 FEW         0.0650
     68 H27        -0.6385   12.2652    7.0861 H         1 FEW         0.0577
     69 H28        -2.2676   11.8881   11.7413 H         1 FEW         0.0987
     70 H29        -5.9774   13.7553   10.8117 H         1 FEW         0.0731
     71 H30        -5.2683   13.9819    8.4883 H         1 FEW         0.1197
     72 H31        -4.1964   17.6671   -0.0204 H         1 FEW         0.2252
     73 H32        -5.4072   23.5513   -2.5966 H         1 FEW         0.2053
     74 H33        -7.7908   24.4327   -1.6156 H         1 FEW         0.2035
@<TRIPOS>BOND
     1    1    5 ar 
     2   17    1 ar 
     3    1   18 1  
     4   19    2 1  
     5    2   37 1  
     6    4    3 1  
     7    3   37 1  
     8   36    4 1  
     9   21    5 ar 
    10   21    6 1  
    11    6   32 1  
    12    6   33 1  
    13    6   34 1  
    14   16    7 ar 
    15    7   21 ar 
    16    9    8 1  
    17    9   10 1  
    18   11    9 1  
    19   11   12 ar 
    20   23   11 ar 
    21   12   13 ar 
    22   14   13 ar 
    23   14   15 1  
    24   22   14 ar 
    25   15   35 am 
    26   15   41 2  
    27   16   17 ar 
    28   35   16 1  
    29   18   36 1  
    30   36   19 1  
    31   37   20 1  
    32   23   22 ar 
    33   24   23 1  
    34   25   24 3  
    35   26   25 1  
    36   26   27 2  
    37   40   26 1  
    38   38   27 1  
    39   29   28 1  
    40   28   38 2  
    41   28   40 1  
    42   39   29 2  
    43   30   31 2  
    44   30   39 1  
    45   31   40 1  
    46    2   42 1  
    47    2   43 1  
    48    3   44 1  
    49    3   45 1  
    50    4   46 1  
    51    4   47 1  
    52    5   48 1  
    53    7   49 1  
    54    8   50 1  
    55    8   51 1  
    56    8   52 1  
    57    9   53 1  
    58   10   54 1  
    59   10   55 1  
    60   10   56 1  
    61   12   57 1  
    62   13   58 1  
    63   17   59 1  
    64   18   60 1  
    65   18   61 1  
    66   19   62 1  
    67   19   63 1  
    68   20   64 1  
    69   20   65 1  
    70   20   66 1  
    71   22   67 1  
    72   27   68 1  
    73   29   69 1  
    74   30   70 1  
    75   31   71 1  
    76   35   72 1  
    77   36   73 1  
    78   37   74 1  
@<TRIPOS>SUBSTRUCTURE
     1 FEW         1

