### 
### Created by X-TOOL on Wed Jan  1 15:39:36 2020
### 

@<TRIPOS>MOLECULE
6gx3_ligand
   20    21     1     0     0
SMALL
GAST_HUCK


@<TRIPOS>ATOM
      1 O01        47.8260   32.4480   86.9980 O.2       1 FF2        -0.3862
      2 C02        47.1160   32.2570   86.0610 C.2       1 FF2         0.2372
      3 N03        47.1830   31.0240   85.2940 N.am      1 FF2        -0.1633
      4 O04        48.0530   29.9680   85.5780 O.3       1 FF2        -0.2722
      5 C05        46.1000   33.2920   85.5690 C.2       1 FF2         0.1065
      6 C06        45.4370   34.3000   86.2530 C.2       1 FF2        -0.0362
      7 C07        44.5460   35.0770   85.4550 C.ar      1 FF2        -0.0012
      8 C08        43.7620   36.1580   85.9360 C.ar      1 FF2         0.0400
      9 CL1        43.8620   36.6220   87.6590 Cl        1 FF2        -0.0722
     10 C10        42.9320   36.8500   85.0720 C.ar      1 FF2        -0.0550
     11 C11        42.8530   36.4890   83.7280 C.ar      1 FF2        -0.0674
     12 C12        43.6230   35.4260   83.2490 C.ar      1 FF2        -0.0468
     13 C13        44.4650   34.7290   84.1250 C.ar      1 FF2         0.0421
     14 S14        45.5470   33.3800   83.9260 S.3       1 FF2        -0.0231
     15 H1         46.5667   30.9251   84.5127 H         1 FF2         0.2208
     16 H2         47.9199   29.2709   84.9464 H         1 FF2         0.2490
     17 H3         45.5851   34.4839   87.3161 H         1 FF2         0.0544
     18 H4         42.3392   37.6784   85.4427 H         1 FF2         0.0570
     19 H5         42.1966   37.0310   83.0568 H         1 FF2         0.0588
     20 H6         43.5690   35.1420   82.2043 H         1 FF2         0.0577
@<TRIPOS>BOND
     1    1    2 2  
     2    2    3 am 
     3    2    5 1  
     4    3    4 1  
     5    5    6 2  
     6    5   14 1  
     7    6    7 1  
     8    7    8 ar 
     9    7   13 ar 
    10    8    9 1  
    11    8   10 ar 
    12   10   11 ar 
    13   11   12 ar 
    14   12   13 ar 
    15   13   14 1  
    16    3   15 1  
    17    4   16 1  
    18    6   17 1  
    19   10   18 1  
    20   11   19 1  
    21   12   20 1  
@<TRIPOS>SUBSTRUCTURE
     1 FF2         1

