### 
### Created by X-TOOL on Wed Jan  1 15:39:35 2020
### 

@<TRIPOS>MOLECULE
6gxa_ligand
   21    21     1     0     0
SMALL
GAST_HUCK


@<TRIPOS>ATOM
      1 CL1        46.5530   36.7230   83.9740 Cl        1 TB8        -0.0661
      2 C10        44.9050   36.0880   83.6370 C.ar      1 TB8         0.0523
      3 C09        44.0040   36.8400   82.8890 C.ar      1 TB8        -0.0442
      4 C08        42.7310   36.3430   82.6300 C.ar      1 TB8        -0.0585
      5 C07        42.3540   35.0990   83.1190 C.ar      1 TB8        -0.0580
      6 C06        43.2530   34.3510   83.8670 C.ar      1 TB8        -0.0499
      7 C05        44.5280   34.8450   84.1250 C.ar      1 TB8        -0.0012
      8 C04        45.4880   34.0410   84.9190 C.2       1 TB8        -0.0379
      9 C03        45.7760   32.8020   84.5210 C.2       1 TB8         0.0127
     10 C02        46.7280   31.9500   85.2640 C.2       1 TB8         0.2147
     11 O01        47.3510   32.4020   86.2130 O.2       1 TB8        -0.3909
     12 N12        46.8830   30.6890   84.8790 N.am      1 TB8        -0.1658
     13 O13        48.1560   30.1330   84.8120 O.3       1 TB8        -0.2725
     14 H1         44.2942   37.8126   82.5084 H         1 TB8         0.0631
     15 H2         42.0311   36.9284   82.0447 H         1 TB8         0.0641
     16 H3         41.3612   34.7134   82.9173 H         1 TB8         0.0627
     17 H4         42.9611   33.3802   84.2508 H         1 TB8         0.0650
     18 H5         45.9505   34.4563   85.8132 H         1 TB8         0.0743
     19 H6         45.2977   32.4075   83.6257 H         1 TB8         0.0668
     20 H7         46.0839   30.1386   84.6370 H         1 TB8         0.2204
     21 H8         48.0914   29.2308   84.5216 H         1 TB8         0.2490
@<TRIPOS>BOND
     1    1    2 1  
     2    2    3 ar 
     3    2    7 ar 
     4    3    4 ar 
     5    4    5 ar 
     6    5    6 ar 
     7    6    7 ar 
     8    7    8 1  
     9    8    9 2  
    10    9   10 1  
    11   10   11 2  
    12   10   12 am 
    13   12   13 1  
    14    3   14 1  
    15    4   15 1  
    16    5   16 1  
    17    6   17 1  
    18    8   18 1  
    19    9   19 1  
    20   12   20 1  
    21   13   21 1  
@<TRIPOS>SUBSTRUCTURE
     1 TB8         1

