### 
### Created by X-TOOL on Mon Aug  2 16:13:36 2021
### 

@<TRIPOS>MOLECULE
6gxb_ligand
   53    54     1     0     0
SMALL
GAST_HUCK


@<TRIPOS>ATOM
      1 C1         14.8180    5.2130   15.8170 C.ar      1 FF5        -0.0491
      2 C2         17.0650    4.4080   15.5940 C.ar      1 FF5        -0.0491
      3 C3         17.4120    5.5770   14.8960 C.ar      1 FF5        -0.0397
      4 C4         16.4460    6.5700   14.6650 C.ar      1 FF5         0.0672
      5 C5         15.1490    6.3940   15.1800 C.ar      1 FF5        -0.0397
      6 C9         15.9150    8.3630   13.0220 C.2       1 FF5         0.3141
      7 C11        15.7640   10.1450   11.3290 C.ar      1 FF5         0.0565
      8 C12        15.9180   11.5420   11.2330 C.ar      1 FF5        -0.0493
      9 C13        15.2550   12.2730   10.2770 C.ar      1 FF5        -0.0460
     10 C14        14.4060   11.5990    9.3690 C.ar      1 FF5         0.0757
     11 C15        14.2430   10.2340    9.4380 C.ar      1 FF5        -0.0460
     12 C16        14.9040    9.5110   10.4300 C.ar      1 FF5        -0.0493
     13 C20        10.1410   13.9060    6.6120 C.3       1 FF5         0.0309
     14 O21         9.2290   15.7120    4.7170 O.2       1 FF5        -0.3974
     15 O6         15.8520    2.8030   18.1940 O.2       1 FF5        -0.1524
     16 S8         15.3030    2.7410   16.8500 S.o2      1 FF5         0.0590
     17 O7         15.8980    1.5220   16.0900 O.2       1 FF5        -0.1524
     18 N10        13.8540    2.6970   16.7490 N.am      1 FF5        -0.2626
     19 C          15.7660    4.1800   16.0400 C.ar      1 FF5         0.0922
     20 N4         16.7710    7.7060   13.9100 N.am      1 FF5        -0.2148
     21 O9         14.6840    8.1390   12.9800 O.2       1 FF5        -0.3815
     22 N9         16.4050    9.4690   12.3840 N.am      1 FF5        -0.2205
     23 O14        13.7470   12.3370    8.3450 O.3       1 FF5        -0.3277
     24 C17        13.5330   13.7380    8.5700 C.3       1 FF5         0.0672
     25 C18        12.5240   14.2280    7.5370 C.3       1 FF5        -0.0237
     26 C19        11.2020   13.4980    7.5930 C.3       1 FF5        -0.0303
     27 N20         9.5550   15.1820    6.8510 N.am      1 FF5        -0.2872
     28 C21         9.1640   16.0630    5.9120 C.2       1 FF5         0.1729
     29 C22         8.3720   17.2640    6.4020 C.3       1 FF5         0.0256
     30 H1         13.7990    5.0705   16.1582 H         1 FF5         0.0596
     31 H2         17.8287    3.6642   15.7904 H         1 FF5         0.0596
     32 H3         18.4254    5.7125   14.5357 H         1 FF5         0.0501
     33 H4         14.4116    7.1819   15.0776 H         1 FF5         0.0501
     34 H5         16.5743   12.0517   11.9290 H         1 FF5         0.0477
     35 H6         15.3806   13.3482   10.2198 H         1 FF5         0.0506
     36 H7         13.6046    9.7243    8.7254 H         1 FF5         0.0506
     37 H8         14.7480    8.4409   10.5045 H         1 FF5         0.0477
     38 H9          9.3404   13.1523    6.6430 H         1 FF5         0.0520
     39 H10        10.5921   13.9208    5.6089 H         1 FF5         0.0520
     40 H11        13.3008    3.4085   17.1823 H         1 FF5         0.1633
     41 H12        13.4101    1.9552   16.2462 H         1 FF5         0.1633
     42 H13        17.6934    8.0775   14.0160 H         1 FF5         0.2261
     43 H14        17.2875    9.8252   12.6910 H         1 FF5         0.2225
     44 H15        14.4808   14.2843    8.4554 H         1 FF5         0.0608
     45 H16        13.1378   13.8979    9.5840 H         1 FF5         0.0608
     46 H17        12.9561   14.0894    6.5350 H         1 FF5         0.0291
     47 H18        12.3386   15.2981    7.7116 H         1 FF5         0.0291
     48 H19        11.4086   12.4300    7.4293 H         1 FF5         0.0285
     49 H20        10.7895   13.6412    8.6026 H         1 FF5         0.0285
     50 H21         9.4217   15.4480    7.8057 H         1 FF5         0.1850
     51 H22         8.4797   17.3538    7.4930 H         1 FF5         0.0467
     52 H23         7.3100   17.1313    6.1481 H         1 FF5         0.0467
     53 H24         8.7531   18.1762    5.9197 H         1 FF5         0.0467
@<TRIPOS>BOND
     1    5    1 ar 
     2    1   19 ar 
     3    3    2 ar 
     4    2   19 ar 
     5    4    3 ar 
     6    4    5 ar 
     7   20    4 1  
     8    6   20 am 
     9    6   21 2  
    10   22    6 am 
    11    8    7 ar 
    12   12    7 ar 
    13    7   22 1  
    14    9    8 ar 
    15   10    9 ar 
    16   10   11 ar 
    17   23   10 1  
    18   11   12 ar 
    19   13   26 1  
    20   27   13 1  
    21   28   14 2  
    22   16   15 2  
    23   16   17 2  
    24   16   18 am 
    25   19   16 1  
    26   24   23 1  
    27   25   24 1  
    28   26   25 1  
    29   27   28 am 
    30   28   29 1  
    31    1   30 1  
    32    2   31 1  
    33    3   32 1  
    34    5   33 1  
    35    8   34 1  
    36    9   35 1  
    37   11   36 1  
    38   12   37 1  
    39   13   38 1  
    40   13   39 1  
    41   18   40 1  
    42   18   41 1  
    43   20   42 1  
    44   22   43 1  
    45   24   44 1  
    46   24   45 1  
    47   25   46 1  
    48   25   47 1  
    49   26   48 1  
    50   26   49 1  
    51   27   50 1  
    52   29   51 1  
    53   29   52 1  
    54   29   53 1  
@<TRIPOS>SUBSTRUCTURE
     1 FF5         1

