### 
### Created by X-TOOL on Mon Aug  2 16:13:36 2021
### 

@<TRIPOS>MOLECULE
6gxe_ligand
   34    35     1     0     0
SMALL
GAST_HUCK


@<TRIPOS>ATOM
      1 C1         15.0280    5.2300   15.7890 C.ar      1 FFH        -0.0491
      2 C2         17.2050    4.2440   15.6950 C.ar      1 FFH        -0.0491
      3 C4         16.8400    6.4900   14.7290 C.ar      1 FFH         0.0672
      4 C9         17.4270    9.0000   14.0580 C.2       1 FFH         0.3141
      5 C11        19.7930   10.2340   13.8430 C.ar      1 FFH         0.0565
      6 C12        19.8820   11.3730   14.6790 C.ar      1 FFH        -0.0493
      7 C13        21.1020   12.0460   14.7860 C.ar      1 FFH        -0.0462
      8 C14        22.2640   11.6040   14.0930 C.ar      1 FFH         0.0722
      9 C16        20.9660    9.8220   13.1800 C.ar      1 FFH        -0.0493
     10 O9         16.5050    9.7020   14.5740 O.2       1 FFH        -0.3815
     11 N4         17.4510    7.5900   14.0430 N.am      1 FFH        -0.2148
     12 C3         17.6620    5.3740   15.0220 C.ar      1 FFH        -0.0397
     13 C          15.8620    4.1280   16.0870 C.ar      1 FFH         0.0922
     14 S8         15.3270    2.7300   16.8910 S.o2      1 FFH         0.0590
     15 N10        15.8970    1.4860   16.1680 N.am      1 FFH        -0.2626
     16 O6         13.8780    2.7580   16.7530 O.2       1 FFH        -0.1524
     17 O7         15.8410    2.8160   18.2260 O.2       1 FFH        -0.1524
     18 C5         15.5010    6.3760   15.1410 C.ar      1 FFH        -0.0397
     19 N9         18.6980    9.3810   13.5420 N.am      1 FFH        -0.2205
     20 C15        22.1770   10.4820   13.2860 C.ar      1 FFH        -0.0462
     21 O14        23.4220   12.3500   14.2700 O.3       1 FFH        -0.3429
     22 H1         13.9829    5.1853   16.0733 H         1 FFH         0.0596
     23 H2         17.8974    3.4409   15.9199 H         1 FFH         0.0596
     24 H3         19.0145   11.7188   15.2293 H         1 FFH         0.0477
     25 H4         21.1651   12.9278   15.4133 H         1 FFH         0.0506
     26 H5         20.9167    8.9395   12.5525 H         1 FFH         0.0477
     27 H6         18.0844    7.2582   13.3439 H         1 FFH         0.2261
     28 H7         18.6987    5.4012   14.7064 H         1 FFH         0.0501
     29 H8         15.6835    0.5695   16.5063 H         1 FFH         0.1633
     30 H9         16.4788    1.5987   15.3625 H         1 FFH         0.1633
     31 H10        14.8181    7.1963   14.9520 H         1 FFH         0.0501
     32 H11        18.8784    8.8877   12.6911 H         1 FFH         0.2225
     33 H12        23.0461   10.1258   12.7448 H         1 FFH         0.0506
     34 H13        23.2457   13.0702   14.8639 H         1 FFH         0.2432
@<TRIPOS>BOND
     1    1   13 ar 
     2   18    1 ar 
     3   12    2 ar 
     4    2   13 ar 
     5   11    3 1  
     6    3   12 ar 
     7    3   18 ar 
     8    4   10 2  
     9    4   11 am 
    10   19    4 am 
    11    5    6 ar 
    12    5    9 ar 
    13    5   19 1  
    14    6    7 ar 
    15    7    8 ar 
    16    8   20 ar 
    17    8   21 1  
    18    9   20 ar 
    19   13   14 1  
    20   14   15 am 
    21   14   16 2  
    22   14   17 2  
    23    1   22 1  
    24    2   23 1  
    25    6   24 1  
    26    7   25 1  
    27    9   26 1  
    28   11   27 1  
    29   12   28 1  
    30   15   29 1  
    31   15   30 1  
    32   18   31 1  
    33   19   32 1  
    34   20   33 1  
    35   21   34 1  
@<TRIPOS>SUBSTRUCTURE
     1 FFH         1

