### 
### Created by X-TOOL on Mon Aug  2 16:13:36 2021
### 

@<TRIPOS>MOLECULE
6gxg_ligand
   27    29     1     0     0
SMALL
GAST_HUCK


@<TRIPOS>ATOM
      1 C01        -1.6910    1.5760   24.6130 C.3       1 FFN         0.0277
      2 C02        -2.1870    0.3220   24.8040 C.2       1 FFN         0.1451
      3 N03        -3.1060   -0.2170   24.0050 N.2       1 FFN        -0.2852
      4 N18        -1.7240   -0.3970   25.8750 N.am      1 FFN        -0.1979
      5 C16        -2.2050   -1.6770   26.1120 C.2       1 FFN         0.2116
      6 O17        -1.6940   -2.2450   27.0810 O.2       1 FFN        -0.4063
      7 C15        -3.1370   -2.2390   25.2900 C.2       1 FFN         0.0498
      8 C04        -3.5650   -1.4510   24.2270 C.2       1 FFN         0.0774
      9 S05        -4.6650   -2.2820   23.3090 S.3       1 FFN        -0.0306
     10 C06        -4.6200   -3.6290   24.2770 C.2       1 FFN        -0.0049
     11 C07        -3.7350   -3.4690   25.2900 C.2       1 FFN        -0.0284
     12 C08        -3.6400   -4.4980   26.2020 C.ar      1 FFN        -0.0374
     13 C09        -3.8590   -4.2570   27.5660 C.ar      1 FFN        -0.0607
     14 C10        -3.8390   -5.2460   28.5560 C.ar      1 FFN        -0.0304
     15 C11        -3.6280   -6.5660   28.1940 C.ar      1 FFN         0.1300
     16 F12        -3.6130   -7.5480   29.1730 F         1 FFN        -0.1852
     17 C13        -3.4370   -6.8510   26.8410 C.ar      1 FFN        -0.0304
     18 C14        -3.4480   -5.8420   25.8560 C.ar      1 FFN        -0.0607
     19 H1         -2.1552    2.0219   23.7210 H         1 FFN         0.0529
     20 H2         -0.6016    1.5217   24.4711 H         1 FFN         0.0529
     21 H3         -1.9157    2.1971   25.4926 H         1 FFN         0.0529
     22 H4         -1.0394    0.0008   26.4858 H         1 FFN         0.2553
     23 H5         -5.2218   -4.5227   24.1189 H         1 FFN         0.0653
     24 H6         -4.0570   -3.2367   27.8741 H         1 FFN         0.0587
     25 H7         -3.9873   -4.9813   29.5967 H         1 FFN         0.0598
     26 H8         -3.2753   -7.8792   26.5383 H         1 FFN         0.0598
     27 H9         -3.3058   -6.1103   24.8154 H         1 FFN         0.0587
@<TRIPOS>BOND
     1    1    2 1  
     2    2    3 2  
     3    2    4 1  
     4    3    8 1  
     5    4    5 am 
     6    5    6 2  
     7    5    7 1  
     8    7    8 2  
     9    7   11 1  
    10    8    9 1  
    11    9   10 1  
    12   10   11 2  
    13   11   12 1  
    14   12   13 ar 
    15   12   18 ar 
    16   13   14 ar 
    17   14   15 ar 
    18   15   16 1  
    19   15   17 ar 
    20   17   18 ar 
    21    1   19 1  
    22    1   20 1  
    23    1   21 1  
    24    4   22 1  
    25   10   23 1  
    26   13   24 1  
    27   14   25 1  
    28   17   26 1  
    29   18   27 1  
@<TRIPOS>SUBSTRUCTURE
     1 FFN         1

