### 
### Created by X-TOOL on Mon Aug  2 16:13:37 2021
### 

@<TRIPOS>MOLECULE
6gxq_ligand
   63    66     1     0     0
SMALL
GAST_HUCK


@<TRIPOS>ATOM
      1 C1        122.8580   13.1980   65.9300 C.3       1 FFZ         0.0609
      2 C12       119.2530   17.8290   59.8570 C.ar      1 FFZ        -0.0210
      3 C13       118.0700   18.5590   59.8300 C.ar      1 FFZ        -0.0584
      4 C16       117.9820   15.8580   59.2900 C.ar      1 FFZ        -0.0685
      5 C17       119.1950   16.4670   59.5850 C.ar      1 FFZ        -0.0584
      6 C10       121.9590   17.3170   61.7680 C.2       1 FFZ         0.2483
      7 C11       120.5720   18.5090   60.1560 C.3       1 FFZ         0.0645
      8 C14       116.8610   17.9430   59.5380 C.ar      1 FFZ        -0.0685
      9 C15       116.8200   16.5930   59.2710 C.ar      1 FFZ        -0.0687
     10 C18       119.9830   10.5210   60.6960 C.2       1 FFZ         0.0455
     11 C19       117.8910   11.3290   57.9270 C.3       1 FFZ         0.0738
     12 C2        121.5230   12.8760   63.9480 C.ar      1 FFZ         0.1117
     13 C20       116.8370   11.9500   58.8400 C.3       1 FFZ        -0.0353
     14 C21       118.6280   12.3540   57.0830 C.3       1 FFZ        -0.0353
     15 C22       119.1490    9.2300   58.3860 C.2       1 FFZ         0.2243
     16 C23       120.1920    8.5170   59.2160 C.3       1 FFZ         0.0759
     17 C24       120.1730    6.9860   59.0740 C.3       1 FFZ        -0.0140
     18 C25       119.0750    6.3550   59.8550 C.2       1 FFZ        -0.0958
     19 C26       118.4650    6.9560   60.8550 C.2       1 FFZ        -0.0963
     20 C27       118.7570    8.3480   61.3180 C.3       1 FFZ        -0.0215
     21 C28       120.0160    8.9840   60.6810 C.3       1 FFZ         0.0297
     22 C3        121.2970   11.5130   64.1390 C.ar      1 FFZ        -0.0288
     23 C4        120.8050   10.7280   63.1070 C.ar      1 FFZ        -0.0607
     24 C5        120.5310   11.2840   61.8590 C.ar      1 FFZ        -0.0159
     25 C6        120.7470   12.6500   61.6590 C.ar      1 FFZ        -0.0438
     26 C7        121.2320   13.4530   62.6910 C.ar      1 FFZ         0.0633
     27 C8        121.4730   14.8440   62.4490 C.1       1 FFZ        -0.0466
     28 C9        121.7290   15.9730   62.1690 C.1       1 FFZ         0.0092
     29 N1        121.6390   17.5740   60.4880 N.am      1 FFZ        -0.2687
     30 N2        119.4950   11.2230   59.7290 N.2       1 FFZ        -0.2033
     31 N3        118.8810   10.5470   58.7150 N.am      1 FFZ        -0.1664
     32 O1        122.0080   13.7310   64.9100 O.3       1 FFZ        -0.3167
     33 O2        122.4410   18.1330   62.5540 O.2       1 FFZ        -0.3765
     34 O3        118.5480    8.6820   57.4750 O.2       1 FFZ        -0.3833
     35 H1        123.1578   14.0042   66.6157 H         1 FFZ         0.0581
     36 H2        123.7538   12.7578   65.4678 H         1 FFZ         0.0581
     37 H3        122.3159   12.4224   66.4908 H         1 FFZ         0.0581
     38 H4        118.0922   19.6223   60.0396 H         1 FFZ         0.0557
     39 H5        117.9512   14.7963   59.0733 H         1 FFZ         0.0599
     40 H6        120.1033   15.8757   59.6033 H         1 FFZ         0.0557
     41 H7        120.4283   19.1914   61.0067 H         1 FFZ         0.0683
     42 H8        120.8763   19.0860   59.2703 H         1 FFZ         0.0683
     43 H9        115.9473   18.5260   59.5201 H         1 FFZ         0.0599
     44 H10       115.8752   16.1113   59.0466 H         1 FFZ         0.0559
     45 H11       117.3721   10.6404   57.2440 H         1 FFZ         0.0635
     46 H12       116.1183   12.5217   58.2345 H         1 FFZ         0.0258
     47 H13       117.3260   12.6223   59.5604 H         1 FFZ         0.0258
     48 H14       116.3071   11.1536   59.3830 H         1 FFZ         0.0258
     49 H15       119.3696   11.8435   56.4510 H         1 FFZ         0.0258
     50 H16       119.1393   13.0717   57.7413 H         1 FFZ         0.0258
     51 H17       117.9090   12.8891   56.4453 H         1 FFZ         0.0258
     52 H18       121.1806    8.8528   58.8696 H         1 FFZ         0.0588
     53 H19       121.1340    6.5867   59.4304 H         1 FFZ         0.0417
     54 H20       120.0416    6.7318   58.0119 H         1 FFZ         0.0417
     55 H21       118.7608    5.3475   59.5865 H         1 FFZ         0.0452
     56 H22       117.6921    6.3995   61.3831 H         1 FFZ         0.0452
     57 H23       118.8978    8.3252   62.4087 H         1 FFZ         0.0413
     58 H24       117.8910    8.9806   61.0732 H         1 FFZ         0.0413
     59 H25       120.8889    8.6527   61.2627 H         1 FFZ         0.0505
     60 H26       121.5078   11.0633   65.1025 H         1 FFZ         0.0550
     61 H27       120.6318    9.6709   63.2729 H         1 FFZ         0.0600
     62 H28       120.5353   13.0903   60.6913 H         1 FFZ         0.0609
     63 H29       122.1403   17.1170   59.7532 H         1 FFZ         0.1877
@<TRIPOS>BOND
     1   32    1 1  
     2    2    3 ar 
     3    2    5 ar 
     4    7    2 1  
     5    3    8 ar 
     6    5    4 ar 
     7    4    9 ar 
     8   28    6 1  
     9    6   29 am 
    10    6   33 2  
    11   29    7 1  
    12    8    9 ar 
    13   10   21 1  
    14   24   10 1  
    15   10   30 2  
    16   11   13 1  
    17   11   14 1  
    18   31   11 1  
    19   12   22 ar 
    20   26   12 ar 
    21   12   32 1  
    22   16   15 1  
    23   15   31 am 
    24   15   34 2  
    25   16   17 1  
    26   21   16 1  
    27   17   18 1  
    28   19   18 2  
    29   20   19 1  
    30   21   20 1  
    31   22   23 ar 
    32   24   23 ar 
    33   25   24 ar 
    34   26   25 ar 
    35   27   26 1  
    36   27   28 3  
    37   30   31 1  
    38    1   35 1  
    39    1   36 1  
    40    1   37 1  
    41    3   38 1  
    42    4   39 1  
    43    5   40 1  
    44    7   41 1  
    45    7   42 1  
    46    8   43 1  
    47    9   44 1  
    48   11   45 1  
    49   13   46 1  
    50   13   47 1  
    51   13   48 1  
    52   14   49 1  
    53   14   50 1  
    54   14   51 1  
    55   16   52 1  
    56   17   53 1  
    57   17   54 1  
    58   18   55 1  
    59   19   56 1  
    60   20   57 1  
    61   20   58 1  
    62   21   59 1  
    63   22   60 1  
    64   23   61 1  
    65   25   62 1  
    66   29   63 1  
@<TRIPOS>SUBSTRUCTURE
     1 FFZ         1

