### 
### Created by X-TOOL on Wed Jan  1 15:39:37 2020
### 

@<TRIPOS>MOLECULE
6gxu_ligand
   32    33     1     0     0
SMALL
GAST_HUCK


@<TRIPOS>ATOM
      1 C1         45.7870   33.1440   85.2430 C.2       1 FG8         0.0084
      2 C2         45.5990   34.3980   85.6130 C.2       1 FG8        -0.0413
      3 C3         44.6350   35.3470   85.0460 C.ar      1 FG8         0.0013
      4 C4         43.7530   34.9090   84.0500 C.ar      1 FG8        -0.0546
      5 C5         42.8010   35.7610   83.5210 C.ar      1 FG8        -0.0642
      6 C6         42.7040   37.0560   83.9730 C.ar      1 FG8        -0.0640
      7 C7         43.5640   37.5210   84.9550 C.ar      1 FG8        -0.0425
      8 N          46.7140   31.0010   85.5500 N.am      1 FG8        -0.1665
      9 C          46.5400   32.1990   86.0940 C.2       1 FG8         0.2112
     10 C8         44.5340   36.6770   85.4970 C.ar      1 FG8         0.0446
     11 C10        45.2850   37.9090   89.3460 C.ar      1 FG8        -0.0466
     12 C11        44.5570   38.0010   90.5180 C.ar      1 FG8        -0.0533
     13 C12        43.2310   37.6330   90.5150 C.ar      1 FG8         0.0334
     14 C13        42.6070   37.2110   89.3630 C.ar      1 FG8        -0.0533
     15 C14        43.3370   37.1250   88.1920 C.ar      1 FG8        -0.0466
     16 C9         44.6820   37.4630   88.1800 C.ar      1 FG8         0.0319
     17 O          46.9880   32.5070   87.2100 O.2       1 FG8        -0.3932
     18 O1         47.8700   30.2810   85.8320 O.3       1 FG8        -0.2726
     19 S          45.6710   37.3070   86.7150 S.3       1 FG8        -0.0372
     20 CL         42.3530   37.6050   92.0190 Cl        1 FG8        -0.0768
     21 H1         45.3796   32.8001   84.2934 H         1 FG8         0.0628
     22 H2         46.2255   34.7659   86.4242 H         1 FG8         0.0736
     23 H3         43.8175   33.8888   83.6892 H         1 FG8         0.0633
     24 H4         42.1291   35.4069   82.7476 H         1 FG8         0.0572
     25 H5         41.9508   37.7166   83.5590 H         1 FG8         0.0627
     26 H6         43.4829   38.5443   85.3034 H         1 FG8         0.0577
     27 H7         46.0186   30.6186   84.9415 H         1 FG8         0.2202
     28 H8         46.3327   38.1871   89.3389 H         1 FG8         0.0570
     29 H9         45.0251   38.3586   91.4280 H         1 FG8         0.0607
     30 H10        41.5552   36.9491   89.3737 H         1 FG8         0.0607
     31 H11        42.8560   36.7920   87.2794 H         1 FG8         0.0570
     32 H12        47.8451   29.4509   85.3708 H         1 FG8         0.2490
@<TRIPOS>BOND
     1    2    1 2  
     2    1    9 1  
     3    3    2 1  
     4    3    4 ar 
     5   10    3 ar 
     6    4    5 ar 
     7    6    5 ar 
     8    7    6 ar 
     9   10    7 ar 
    10    9    8 am 
    11    8   18 1  
    12    9   17 2  
    13   19   10 1  
    14   11   12 ar 
    15   16   11 ar 
    16   12   13 ar 
    17   14   13 ar 
    18   13   20 1  
    19   15   14 ar 
    20   16   15 ar 
    21   16   19 1  
    22    1   21 1  
    23    2   22 1  
    24    4   23 1  
    25    5   24 1  
    26    6   25 1  
    27    7   26 1  
    28    8   27 1  
    29   11   28 1  
    30   12   29 1  
    31   14   30 1  
    32   15   31 1  
    33   18   32 1  
@<TRIPOS>SUBSTRUCTURE
     1 FG8         1

