### 
### Created by X-TOOL on Wed Jan  1 15:39:36 2020
### 

@<TRIPOS>MOLECULE
6gxw_ligand
   35    36     1     0     0
SMALL
GAST_HUCK


@<TRIPOS>ATOM
      1 C1         45.7810   33.7060   84.7720 C.2       1 FGN         0.0056
      2 C2         45.1100   34.6780   85.3910 C.2       1 FGN        -0.0428
      3 C3         43.9730   35.4400   84.8530 C.ar      1 FGN         0.0174
      4 C4         43.4860   35.1790   83.5650 C.ar      1 FGN        -0.0569
      5 C5         42.3910   35.8650   83.0690 C.ar      1 FGN        -0.0682
      6 C6         41.7600   36.8160   83.8410 C.ar      1 FGN        -0.0667
      7 C7         42.2230   37.1020   85.1160 C.ar      1 FGN        -0.0268
      8 C8         43.3280   36.4240   85.6160 C.ar      1 FGN         0.1107
      9 C9         43.0810   37.4420   87.7770 C.3       1 FGN         0.1078
     10 O1         43.8680   36.6720   86.8530 O.3       1 FGN        -0.2988
     11 C10        43.9790   38.4810   88.3970 C.ar      1 FGN         0.0158
     12 C11        44.0770   38.6310   89.7910 C.ar      1 FGN         0.0444
     13 C12        44.8370   39.6230   90.3870 C.ar      1 FGN        -0.0543
     14 C13        45.5360   40.5120   89.5930 C.ar      1 FGN        -0.0677
     15 C14        45.4840   40.4050   88.2160 C.ar      1 FGN        -0.0543
     16 C15        44.7230   39.4010   87.6390 C.ar      1 FGN         0.0444
     17 N          47.1600   31.7950   84.7700 N.am      1 FGN        -0.1670
     18 C          46.6860   32.7930   85.5060 C.2       1 FGN         0.2088
     19 O          46.9330   32.9080   86.7210 O.2       1 FGN        -0.3947
     20 O2         46.8400   30.4810   85.1020 O.3       1 FGN        -0.2727
     21 CL         43.2120   37.5450   90.8330 Cl        1 FGN        -0.0771
     22 CL1        44.7200   39.2890   85.9060 Cl        1 FGN        -0.0771
     23 H1         45.6599   33.5804   83.6971 H         1 FGN         0.0601
     24 H2         45.4374   34.9336   86.3977 H         1 FGN         0.0731
     25 H3         43.9728   34.4309   82.9499 H         1 FGN         0.0622
     26 H4         42.0285   35.6533   82.0696 H         1 FGN         0.0538
     27 H5         40.8974   37.3430   83.4495 H         1 FGN         0.0619
     28 H6         41.7250   37.8515   85.7204 H         1 FGN         0.0552
     29 H7         42.6742   36.7847   88.5596 H         1 FGN         0.0788
     30 H8         42.2535   37.9333   87.2441 H         1 FGN         0.0788
     31 H9         44.8833   39.7016   91.4672 H         1 FGN         0.0607
     32 H10        46.1273   41.2962   90.0518 H         1 FGN         0.0560
     33 H11        46.0340   41.1007   87.5926 H         1 FGN         0.0607
     34 H12        47.7440   31.9859   83.9810 H         1 FGN         0.2201
     35 H13        47.2531   29.8898   84.4837 H         1 FGN         0.2490
@<TRIPOS>BOND
     1    1    2 2  
     2    1   18 1  
     3    2    3 1  
     4    3    4 ar 
     5    3    8 ar 
     6    4    5 ar 
     7    5    6 ar 
     8    6    7 ar 
     9    7    8 ar 
    10    8   10 1  
    11   10    9 1  
    12    9   11 1  
    13   11   12 ar 
    14   11   16 ar 
    15   12   13 ar 
    16   12   21 1  
    17   13   14 ar 
    18   14   15 ar 
    19   15   16 ar 
    20   16   22 1  
    21   18   17 am 
    22   17   20 1  
    23   18   19 2  
    24    1   23 1  
    25    2   24 1  
    26    4   25 1  
    27    5   26 1  
    28    6   27 1  
    29    7   28 1  
    30    9   29 1  
    31    9   30 1  
    32   13   31 1  
    33   14   32 1  
    34   15   33 1  
    35   17   34 1  
    36   20   35 1  
@<TRIPOS>SUBSTRUCTURE
     1 FGN         1

