### 
### Created by X-TOOL on Mon Aug  2 16:10:04 2021
### 

@<TRIPOS>MOLECULE
6gxy_ligand
   27    29     1     0     0
SMALL
GAST_HUCK


@<TRIPOS>ATOM
      1 C01        -1.7980    1.5460   24.2570 C.3       1 FFN         0.0277
      2 C02        -2.2590    0.2820   24.5400 C.2       1 FFN         0.1451
      3 N03        -3.1820   -0.2590   23.7700 N.2       1 FFN        -0.2852
      4 N18        -1.7940   -0.4190   25.6220 N.am      1 FFN        -0.1979
      5 C16        -2.2980   -1.6860   25.8580 C.2       1 FFN         0.2116
      6 O17        -1.8460   -2.2750   26.8200 O.2       1 FFN        -0.4063
      7 C15        -3.2420   -2.2180   25.0580 C.2       1 FFN         0.0498
      8 C04        -3.6640   -1.4700   23.9950 C.2       1 FFN         0.0774
      9 S05        -4.7450   -2.2610   23.1470 S.3       1 FFN        -0.0306
     10 C06        -4.7530   -3.5870   24.0850 C.2       1 FFN        -0.0049
     11 C07        -3.8520   -3.4310   25.0650 C.2       1 FFN        -0.0284
     12 C08        -3.7580   -4.4140   25.9740 C.ar      1 FFN        -0.0374
     13 C09        -4.0130   -4.1430   27.3140 C.ar      1 FFN        -0.0607
     14 C10        -4.0030   -5.1550   28.2780 C.ar      1 FFN        -0.0304
     15 C11        -3.7720   -6.4710   27.9270 C.ar      1 FFN         0.1300
     16 F12        -3.7680   -7.4500   28.8530 F         1 FFN        -0.1852
     17 C13        -3.5510   -6.7450   26.5880 C.ar      1 FFN        -0.0304
     18 C14        -3.5600   -5.7400   25.6390 C.ar      1 FFN        -0.0607
     19 H1         -2.2978    1.9248   23.3533 H         1 FFN         0.0529
     20 H2         -0.7117    1.5108   24.0877 H         1 FFN         0.0529
     21 H3         -2.0157    2.2138   25.1035 H         1 FFN         0.0529
     22 H4         -1.1046   -0.0230   26.2285 H         1 FFN         0.2553
     23 H5         -5.3871   -4.4605   23.9411 H         1 FFN         0.0653
     24 H6         -4.2243   -3.1241   27.6176 H         1 FFN         0.0587
     25 H7         -4.1793   -4.9032   29.3175 H         1 FFN         0.0598
     26 H8         -3.3674   -7.7673   26.2779 H         1 FFN         0.0598
     27 H9         -3.4067   -6.0005   24.5980 H         1 FFN         0.0587
@<TRIPOS>BOND
     1    1    2 1  
     2    2    3 2  
     3    2    4 1  
     4    3    8 1  
     5    4    5 am 
     6    5    6 2  
     7    5    7 1  
     8    7    8 2  
     9    7   11 1  
    10    8    9 1  
    11    9   10 1  
    12   10   11 2  
    13   11   12 1  
    14   12   13 ar 
    15   12   18 ar 
    16   13   14 ar 
    17   14   15 ar 
    18   15   16 1  
    19   15   17 ar 
    20   17   18 ar 
    21    1   19 1  
    22    1   20 1  
    23    1   21 1  
    24    4   22 1  
    25   10   23 1  
    26   13   24 1  
    27   14   25 1  
    28   17   26 1  
    29   18   27 1  
@<TRIPOS>SUBSTRUCTURE
     1 FFN         1

