### 
### Created by X-TOOL on Mon Aug  2 16:13:37 2021
### 

@<TRIPOS>MOLECULE
6gy0_ligand
   38    40     1     0     0
SMALL
GAST_HUCK


@<TRIPOS>ATOM
      1 C1          9.7320  -45.6830  -25.1180 C.ar      1 FGE        -0.0580
      2 C2          8.8210  -46.9300  -23.2960 C.ar      1 FGE        -0.0408
      3 C3          8.6480  -46.3030  -24.5180 C.ar      1 FGE        -0.0333
      4 C7          7.3550  -46.3030  -25.1810 C.2       1 FGE         0.0370
      5 C8          6.8360  -45.4740  -26.1570 C.2       1 FGE        -0.0089
      6 C9          5.0950  -46.8140  -25.9800 C.2       1 FGE         0.2117
      7 C10        12.5170  -46.1700  -22.8970 C.2       1 FGE         0.1970
      8 C11         3.1480  -48.2530  -25.5200 C.2       1 FGE         0.2147
      9 C12        12.2270  -45.0940  -24.9810 C.3       1 FGE         0.0649
     10 C13         7.4690  -44.3190  -26.7940 C.3       1 FGE        -0.0291
     11 C14         1.7740  -48.4770  -26.0600 C.3       1 FGE         0.0344
     12 N18         3.8280  -47.3140  -26.2580 N.am      1 FGE        -0.1902
     13 C4         11.1220  -46.3180  -23.3010 C.ar      1 FGE         0.0700
     14 C5         10.9630  -45.6960  -24.5040 C.ar      1 FGE        -0.0087
     15 C6         10.0590  -46.9380  -22.6810 C.ar      1 FGE         0.1125
     16 N15         5.5740  -45.7640  -26.5980 N.2       1 FGE        -0.3008
     17 N16        13.1250  -45.4820  -23.9220 N.am      1 FGE        -0.2767
     18 N17         8.6140  -48.2380  -20.8800 N.am      1 FGE        -0.2607
     19 O19        13.0060  -46.5690  -21.8510 O.2       1 FGE        -0.3929
     20 O20         3.5450  -48.8580  -24.5380 O.2       1 FGE        -0.3789
     21 O21        11.0730  -48.9090  -21.3490 O.2       1 FGE        -0.1501
     22 O22        10.5820  -46.7250  -20.1590 O.2       1 FGE        -0.1501
     23 S23         6.1720  -47.4990  -24.8210 S.3       1 FGE         0.0124
     24 S24        10.2310  -47.7520  -21.1200 S.o2      1 FGE         0.0654
     25 H1          9.6098  -45.1864  -26.0738 H         1 FGE         0.0487
     26 H2          7.9795  -47.4183  -22.8179 H         1 FGE         0.0522
     27 H3         12.1484  -44.0001  -25.0651 H         1 FGE         0.0693
     28 H4         12.5363  -45.5149  -25.9491 H         1 FGE         0.0693
     29 H5          6.7784  -43.8823  -27.5305 H         1 FGE         0.0396
     30 H6          8.3911  -44.6395  -27.3010 H         1 FGE         0.0396
     31 H7          7.7133  -43.5668  -26.0295 H         1 FGE         0.0396
     32 H8          1.2583  -49.2319  -25.4484 H         1 FGE         0.0475
     33 H9          1.8416  -48.8310  -27.0993 H         1 FGE         0.0475
     34 H10         1.2099  -47.5332  -26.0301 H         1 FGE         0.0475
     35 H11         3.3683  -46.9570  -27.0712 H         1 FGE         0.2448
     36 H12        14.1023  -45.2701  -23.9315 H         1 FGE         0.1867
     37 H13         8.3611  -48.7436  -20.0552 H         1 FGE         0.1635
     38 H14         7.9188  -48.0174  -21.5641 H         1 FGE         0.1635
@<TRIPOS>BOND
     1    1    3 ar 
     2   14    1 ar 
     3    3    2 ar 
     4    2   15 ar 
     5    3    4 1  
     6    4    5 2  
     7    4   23 1  
     8    5   10 1  
     9    5   16 1  
    10    6   12 1  
    11    6   16 2  
    12   23    6 1  
    13    7   13 1  
    14   17    7 am 
    15    7   19 2  
    16    8   11 1  
    17   12    8 am 
    18    8   20 2  
    19    9   14 1  
    20    9   17 1  
    21   13   14 ar 
    22   13   15 ar 
    23   15   24 1  
    24   24   18 am 
    25   24   21 2  
    26   24   22 2  
    27    1   25 1  
    28    2   26 1  
    29    9   27 1  
    30    9   28 1  
    31   10   29 1  
    32   10   30 1  
    33   10   31 1  
    34   11   32 1  
    35   11   33 1  
    36   11   34 1  
    37   12   35 1  
    38   17   36 1  
    39   18   37 1  
    40   18   38 1  
@<TRIPOS>SUBSTRUCTURE
     1 FGE         1

