### 
### Created by X-TOOL on Wed Jan  1 15:39:38 2020
### 

@<TRIPOS>MOLECULE
6gy1_ligand
   34    36     1     0     0
SMALL
GAST_HUCK


@<TRIPOS>ATOM
      1 C4         12.6890   -6.2710  -22.0500 C.ar      1 FGQ         0.0945
      2 C5         13.7070   -5.6440  -21.2970 C.ar      1 FGQ         0.0218
      3 C6         14.9240   -6.3270  -21.0340 C.ar      1 FGQ         0.0820
      4 C8         15.7470   -4.5160  -19.8440 C.ar      1 FGQ         0.0072
      5 C10        13.5660   -4.3450  -20.7880 C.ar      1 FGQ        -0.0387
      6 C13        10.2300   -4.1620  -20.1840 C.ar      1 FGQ        -0.0435
      7 C15         8.9110   -5.2830  -18.4820 C.ar      1 FGQ        -0.0460
      8 C17         9.6570   -6.5410  -20.4170 C.ar      1 FGQ        -0.0435
      9 C1         15.0680   -7.6200  -21.5360 C.ar      1 FGQ         0.1480
     10 C12        10.2730   -5.3730  -20.8790 C.ar      1 FGQ         0.0850
     11 C14         9.5360   -4.1340  -18.9760 C.ar      1 FGQ        -0.0588
     12 C16         8.9740   -6.4820  -19.1990 C.ar      1 FGQ        -0.0588
     13 C18         8.1750   -5.2160  -17.1800 C.3       1 FGQ        -0.0311
     14 C2         14.0450   -8.2230  -22.2780 C.ar      1 FGQ         0.1656
     15 C3         12.8530   -7.5610  -22.5430 C.ar      1 FGQ        -0.0083
     16 C9         14.5990   -3.7750  -20.0510 C.ar      1 FGQ        -0.0356
     17 F21        14.1920   -9.4610  -22.7510 F         1 FGQ        -0.1905
     18 N7         15.9270   -5.7710  -20.3210 N.ar      1 FGQ        -0.2966
     19 O19        10.3470   -6.3470  -23.2300 O.2       1 FGQ        -0.1667
     20 O20        11.4690   -4.0790  -22.7820 O.2       1 FGQ        -0.1667
     21 O22        16.2450   -8.3130  -21.2860 O.3       1 FGQ        -0.3275
     22 S11        11.1450   -5.4440  -22.4140 S.o2      1 FGQ         0.0178
     23 H1         16.5483   -4.0679  -19.2677 H         1 FGQ         0.0835
     24 H2         12.6546   -3.7866  -20.9683 H         1 FGQ         0.0746
     25 H3         10.7192   -3.2754  -20.5708 H         1 FGQ         0.0618
     26 H4          9.7078   -7.4625  -20.9856 H         1 FGQ         0.0618
     27 H5          9.4800   -3.2098  -18.4122 H         1 FGQ         0.0557
     28 H6          8.4907   -7.3701  -18.8082 H         1 FGQ         0.0557
     29 H7          8.2400   -4.1957  -16.7742 H         1 FGQ         0.0391
     30 H8          8.6249   -5.9232  -16.4677 H         1 FGQ         0.0391
     31 H9          7.1194   -5.4798  -17.3415 H         1 FGQ         0.0391
     32 H10        12.0694   -8.0384  -23.1202 H         1 FGQ         0.0626
     33 H11        14.5056   -2.7729  -19.6484 H         1 FGQ         0.0679
     34 H12        16.0473   -9.1068  -20.8031 H         1 FGQ         0.2497
@<TRIPOS>BOND
     1    1    2 ar 
     2    1   15 ar 
     3   22    1 1  
     4    2    3 ar 
     5    2    5 ar 
     6    3    9 ar 
     7    3   18 ar 
     8   16    4 ar 
     9   18    4 ar 
    10    5   16 ar 
    11   10    6 ar 
    12    6   11 ar 
    13   11    7 ar 
    14   12    7 ar 
    15    7   13 1  
    16   10    8 ar 
    17    8   12 ar 
    18    9   14 ar 
    19    9   21 1  
    20   10   22 1  
    21   14   15 ar 
    22   14   17 1  
    23   22   19 2  
    24   22   20 2  
    25    4   23 1  
    26    5   24 1  
    27    6   25 1  
    28    8   26 1  
    29   11   27 1  
    30   12   28 1  
    31   13   29 1  
    32   13   30 1  
    33   13   31 1  
    34   15   32 1  
    35   16   33 1  
    36   21   34 1  
@<TRIPOS>SUBSTRUCTURE
     1 FGQ         1

