### 
### Created by X-TOOL on Mon Aug  2 16:13:38 2021
### 

@<TRIPOS>MOLECULE
6gz9_ligand
   45    46     1     0     0
SMALL
GAST_HUCK


@<TRIPOS>ATOM
      1 CG2         5.1140    4.1970  -15.1550 C.3       1 TXC        -0.0552
      2 CB          3.7390    3.5350  -15.2240 C.3       1 TXC         0.0152
      3 CG1         3.3140    3.0790  -13.8440 C.3       1 TXC        -0.0552
      4 CA          2.6310    4.3830  -15.8910 C.3       1 TXC         0.0786
      5 N           2.3390    5.6960  -15.3230 N.4       1 TXC         0.2392
      6 C           1.2300    3.6530  -15.9490 C.2       1 TXC         0.2830
      7 O           0.4150    3.6690  -15.0650 O.2       1 TXC        -0.3641
      8 OAO         1.0400    3.0590  -17.1340 O.3       1 TXC        -0.2703
      9 CAI        -0.2620    2.4560  -17.3650 C.3       1 TXC         0.1004
     10 CAH        -0.1820    1.4810  -18.5090 C.3       1 TXC         0.0787
     11 OAN        -0.7540    2.0070  -19.6940 O.3       1 TXC        -0.3452
     12 CAJ        -2.0290    1.4990  -19.9710 C.3       1 TXC         0.1821
     13 N9         -3.0890    2.3390  -19.4050 N.pl3     1 TXC        -0.1009
     14 C8         -3.1980    2.7600  -18.1150 C.2       1 TXC         0.1851
     15 N7         -4.1900    3.5940  -17.9170 N.2       1 TXC        -0.1930
     16 C5         -4.7850    3.7160  -19.1650 C.2       1 TXC         0.2558
     17 C4         -4.1240    2.9370  -20.0760 C.2       1 TXC         0.3265
     18 N3         -4.5290    2.8000  -21.3850 N.pl3     1 TXC        -0.1901
     19 C2         -5.6580    3.4870  -21.7440 C.cat     1 TXC         0.2041
     20 N2         -6.1300    3.2700  -22.9700 N.pl3     1 TXC        -0.3327
     21 N1         -6.3230    4.2870  -20.9120 N.am      1 TXC        -0.2478
     22 C6         -5.9570    4.4720  -19.5880 C.2       1 TXC         0.2628
     23 O6         -6.5820    5.2350  -18.8370 O.2       1 TXC        -0.3594
     24 H1          5.8251    3.5150  -14.6660 H         1 TXC         0.0236
     25 H2          5.0433    5.1297  -14.5762 H         1 TXC         0.0236
     26 H3          5.4637    4.4229  -16.1732 H         1 TXC         0.0236
     27 H4          3.8562    2.6351  -15.8457 H         1 TXC         0.0377
     28 H5          2.3236    2.6040  -13.9037 H         1 TXC         0.0236
     29 H6          3.2643    3.9470  -13.1701 H         1 TXC         0.0236
     30 H7          4.0452    2.3547  -13.4558 H         1 TXC         0.0236
     31 H8          2.9712    4.5471  -16.9241 H         1 TXC         0.1117
     32 H9          1.6019    6.1347  -15.8524 H         1 TXC         0.2016
     33 H10         3.1668    6.2699  -15.3604 H         1 TXC         0.2016
     34 H11         2.0467    5.5899  -14.3642 H         1 TXC         0.2016
     35 H12        -0.9903    3.2437  -17.6080 H         1 TXC         0.0636
     36 H13        -0.5844    1.9260  -16.4566 H         1 TXC         0.0636
     37 H14        -0.7205    0.5628  -18.2317 H         1 TXC         0.0587
     38 H15         0.8748    1.2429  -18.6999 H         1 TXC         0.0587
     39 H16        -2.1097    0.4889  -19.5431 H         1 TXC         0.0955
     40 H17        -2.1614    1.4468  -21.0617 H         1 TXC         0.0955
     41 H18        -2.5252    2.4349  -17.3228 H         1 TXC         0.1823
     42 H19        -4.0121    2.2140  -22.0561 H         1 TXC         0.2519
     43 H20        -6.9767    3.7613  -23.2903 H         1 TXC         0.1774
     44 H21        -5.6484    2.6108  -23.5981 H         1 TXC         0.1774
     45 H22        -7.1231    4.7766  -21.2586 H         1 TXC         0.1819
@<TRIPOS>BOND
     1    1    2 1  
     2    2    3 1  
     3    2    4 1  
     4    4    5 1  
     5    4    6 1  
     6    6    7 2  
     7    6    8 1  
     8    8    9 1  
     9    9   10 1  
    10   10   11 1  
    11   11   12 1  
    12   12   13 1  
    13   13   14 1  
    14   13   17 1  
    15   14   15 2  
    16   15   16 1  
    17   16   17 2  
    18   16   22 1  
    19   17   18 1  
    20   18   19 ar 
    21   19   20 ar 
    22   19   21 ar 
    23   21   22 am 
    24   22   23 2  
    25    1   24 1  
    26    1   25 1  
    27    1   26 1  
    28    2   27 1  
    29    3   28 1  
    30    3   29 1  
    31    3   30 1  
    32    4   31 1  
    33    5   32 1  
    34    5   33 1  
    35    5   34 1  
    36    9   35 1  
    37    9   36 1  
    38   10   37 1  
    39   10   38 1  
    40   12   39 1  
    41   12   40 1  
    42   14   41 1  
    43   18   42 1  
    44   20   43 1  
    45   20   44 1  
    46   21   45 1  
@<TRIPOS>SUBSTRUCTURE
     1 TXC         1

