### 
### Created by X-TOOL on Wed Jan  1 15:39:35 2020
### 

@<TRIPOS>MOLECULE
6gzd_ligand
   51    54     1     0     0
SMALL
GAST_HUCK


@<TRIPOS>ATOM
      1 F          -1.7800  -16.1370   -6.6640 F         1 LCI        -0.1844
      2 C6         -2.6690  -16.1640   -7.6530 C.ar      1 LCI         0.1629
      3 C5         -2.7570  -15.1090   -8.5400 C.ar      1 LCI         0.0360
      4 N2         -3.6790  -15.1330   -9.5690 N.ar      1 LCI        -0.2698
      5 C7         -3.5140  -17.2470   -7.8070 C.ar      1 LCI         0.0630
      6 N5         -4.4330  -17.2660   -8.8340 N.ar      1 LCI        -0.2693
      7 C4         -4.5210  -16.2160   -9.7180 C.ar      1 LCI         0.1734
      8 N1         -5.4700  -16.2660  -10.7550 N.pl3     1 LCI        -0.2903
      9 C3         -6.3100  -17.4670  -10.9270 C.3       1 LCI         0.0413
     10 C2         -7.5530  -17.0980  -11.7380 C.3       1 LCI        -0.0247
     11 C1         -8.4840  -18.3110  -11.8600 C.3       1 LCI        -0.0077
     12 C16        -5.5600  -18.6180  -11.6260 C.3       1 LCI        -0.0247
     13 C17        -6.4820  -19.8430  -11.7130 C.3       1 LCI        -0.0077
     14 C          -7.7450  -19.4900  -12.5140 C.3       1 LCI        -0.0242
     15 N          -8.6410  -20.6540  -12.5510 N.4       1 LCI         0.2207
     16 C8         -3.4680  -18.4000   -6.8930 C.2       1 LCI         0.0257
     17 C15        -2.7290  -18.4480   -5.7350 C.2       1 LCI         0.0011
     18 N4         -2.9540  -19.6600   -5.1920 N.2       1 LCI        -0.2222
     19 N3         -3.7440  -20.3160   -5.9190 N.pl3     1 LCI        -0.1977
     20 C14        -4.1940  -21.6820   -5.6110 C.3       1 LCI         0.0616
     21 C9         -4.1080  -19.6040   -6.9950 C.2       1 LCI         0.0935
     22 C10        -5.0420  -20.0390   -8.1030 C.3       1 LCI         0.0206
     23 C11        -6.4940  -19.8180   -7.6860 C.3       1 LCI        -0.0253
     24 C13        -7.3190  -21.0570   -8.0410 C.3       1 LCI        -0.0473
     25 C12        -6.8560  -20.8330   -6.6020 C.3       1 LCI        -0.0473
     26 H1         -2.0978  -14.2557   -8.4281 H         1 LCI         0.0840
     27 H2         -5.5785  -15.4652  -11.3936 H         1 LCI         0.1851
     28 H3         -6.6238  -17.8149   -9.9318 H         1 LCI         0.0558
     29 H4         -7.2476  -16.7716  -12.7431 H         1 LCI         0.0290
     30 H5         -8.0868  -16.2794  -11.2330 H         1 LCI         0.0290
     31 H6         -9.3529  -18.0403  -12.4778 H         1 LCI         0.0320
     32 H7         -8.8252  -18.6084  -10.8574 H         1 LCI         0.0320
     33 H8         -4.6602  -18.8753  -11.0480 H         1 LCI         0.0290
     34 H9         -5.2679  -18.3049  -12.6392 H         1 LCI         0.0290
     35 H10        -6.7691  -20.1564  -10.6985 H         1 LCI         0.0320
     36 H11        -5.9501  -20.6652  -12.2141 H         1 LCI         0.0320
     37 H12        -7.4579  -19.2150  -13.5396 H         1 LCI         0.0850
     38 H13        -9.4698  -20.4234  -13.0763 H         1 LCI         0.1997
     39 H14        -8.8993  -20.9092  -11.6107 H         1 LCI         0.1997
     40 H15        -8.1686  -21.4278  -12.9915 H         1 LCI         0.1997
     41 H16        -2.0890  -17.6625   -5.3360 H         1 LCI         0.0665
     42 H17        -4.8773  -22.0295   -6.3999 H         1 LCI         0.0601
     43 H18        -4.7181  -21.6861   -4.6439 H         1 LCI         0.0601
     44 H19        -3.3231  -22.3520   -5.5590 H         1 LCI         0.0601
     45 H20        -4.8831  -21.1068   -8.3139 H         1 LCI         0.0509
     46 H21        -4.8305  -19.4510   -9.0083 H         1 LCI         0.0509
     47 H22        -6.8567  -18.7806   -7.7331 H         1 LCI         0.0330
     48 H23        -6.8721  -21.8613   -8.6437 H         1 LCI         0.0270
     49 H24        -8.3834  -20.9538   -8.2987 H         1 LCI         0.0270
     50 H25        -7.5874  -20.5691   -5.8240 H         1 LCI         0.0270
     51 H26        -6.0761  -21.4766   -6.1690 H         1 LCI         0.0270
@<TRIPOS>BOND
     1    1    2 1  
     2    2    3 ar 
     3    2    5 ar 
     4    3    4 ar 
     5    4    7 ar 
     6    5    6 ar 
     7    5   16 1  
     8    6    7 ar 
     9    7    8 1  
    10    8    9 1  
    11    9   10 1  
    12    9   12 1  
    13   10   11 1  
    14   11   14 1  
    15   12   13 1  
    16   13   14 1  
    17   14   15 1  
    18   16   17 1  
    19   16   21 2  
    20   17   18 2  
    21   18   19 1  
    22   19   20 1  
    23   19   21 1  
    24   21   22 1  
    25   22   23 1  
    26   23   24 1  
    27   23   25 1  
    28   24   25 1  
    29    3   26 1  
    30    8   27 1  
    31    9   28 1  
    32   10   29 1  
    33   10   30 1  
    34   11   31 1  
    35   11   32 1  
    36   12   33 1  
    37   12   34 1  
    38   13   35 1  
    39   13   36 1  
    40   14   37 1  
    41   15   38 1  
    42   15   39 1  
    43   15   40 1  
    44   17   41 1  
    45   20   42 1  
    46   20   43 1  
    47   20   44 1  
    48   22   45 1  
    49   22   46 1  
    50   23   47 1  
    51   24   48 1  
    52   24   49 1  
    53   25   50 1  
    54   25   51 1  
@<TRIPOS>SUBSTRUCTURE
     1 LCI         1

