### 
### Created by X-TOOL on Wed Jan  1 15:39:35 2020
### 

@<TRIPOS>MOLECULE
6gzh_ligand
   51    54     1     0     0
SMALL
GAST_HUCK


@<TRIPOS>ATOM
      1 F         -37.4920   38.6040   46.5230 F         1 LCI        -0.1844
      2 C6        -38.6250   39.2890   46.4070 C.ar      1 LCI         0.1629
      3 C5        -38.5780   40.6690   46.4410 C.ar      1 LCI         0.0360
      4 N2        -39.7320   41.4190   46.3220 N.ar      1 LCI        -0.2698
      5 C7        -39.8470   38.6480   46.2540 C.ar      1 LCI         0.0630
      6 N5        -40.9950   39.4110   46.1360 N.ar      1 LCI        -0.2693
      7 C4        -40.9500   40.7900   46.1720 C.ar      1 LCI         0.1734
      8 N1        -42.1280   41.5540   46.0390 N.pl3     1 LCI        -0.2903
      9 C3        -43.4220   40.8940   45.7940 C.3       1 LCI         0.0413
     10 C2        -44.5590   41.8420   46.1760 C.3       1 LCI        -0.0247
     11 C1        -45.9100   41.1400   45.9860 C.3       1 LCI        -0.0077
     12 C16       -43.5710   40.4570   44.3240 C.3       1 LCI        -0.0247
     13 C17       -44.9160   39.7420   44.1280 C.3       1 LCI        -0.0077
     14 C         -46.0780   40.6650   44.5330 C.3       1 LCI        -0.0242
     15 N         -47.3500   39.9350   44.4140 N.4       1 LCI         0.2207
     16 C8        -39.9550   37.1700   46.2100 C.2       1 LCI         0.0257
     17 C15       -38.9000   36.3150   46.4510 C.2       1 LCI         0.0011
     18 N4        -39.3710   35.0640   46.3210 N.2       1 LCI        -0.2222
     19 N3        -40.5900   35.0940   46.0290 N.pl3     1 LCI        -0.1977
     20 C14       -41.3820   33.8710   45.8200 C.3       1 LCI         0.0616
     21 C9        -41.0370   36.3610   45.9400 C.2       1 LCI         0.0935
     22 C10       -42.4570   36.7820   45.6070 C.3       1 LCI         0.0206
     23 C11       -43.4430   36.1750   46.6120 C.3       1 LCI        -0.0253
     24 C13       -44.5200   37.1840   47.0200 C.3       1 LCI        -0.0473
     25 C12       -44.8270   36.1250   45.9630 C.3       1 LCI        -0.0473
     26 H1        -37.6242   41.1695   46.5625 H         1 LCI         0.0840
     27 H2        -42.0833   42.5803   46.1137 H         1 LCI         0.1851
     28 H3        -43.4805   39.9975   46.4287 H         1 LCI         0.0558
     29 H4        -44.5192   42.7358   45.5361 H         1 LCI         0.0290
     30 H5        -44.4476   42.1396   47.2291 H         1 LCI         0.0290
     31 H6        -46.7196   41.8430   46.2316 H         1 LCI         0.0320
     32 H7        -45.9626   40.2708   46.6581 H         1 LCI         0.0320
     33 H8        -42.7515   39.7717   44.0618 H         1 LCI         0.0290
     34 H9        -43.5303   41.3432   43.6736 H         1 LCI         0.0290
     35 H10       -44.9389   38.8358   44.7511 H         1 LCI         0.0320
     36 H11       -45.0271   39.4625   43.0699 H         1 LCI         0.0320
     37 H12       -46.0934   41.5391   43.8653 H         1 LCI         0.0850
     38 H13       -48.1109   40.5404   44.6795 H         1 LCI         0.1997
     39 H14       -47.3336   39.1302   45.0207 H         1 LCI         0.1997
     40 H15       -47.4770   39.6344   43.4603 H         1 LCI         0.1997
     41 H16       -37.8788   36.6002   46.6995 H         1 LCI         0.0665
     42 H17       -42.4193   34.1433   45.5754 H         1 LCI         0.0601
     43 H18       -41.3688   33.2643   46.7375 H         1 LCI         0.0601
     44 H19       -40.9498   33.2915   44.9910 H         1 LCI         0.0601
     45 H20       -42.7106   36.4338   44.5948 H         1 LCI         0.0509
     46 H21       -42.5286   37.8790   45.6461 H         1 LCI         0.0509
     47 H22       -43.0252   35.4081   47.2808 H         1 LCI         0.0330
     48 H23       -44.4229   38.2402   46.7283 H         1 LCI         0.0270
     49 H24       -44.9856   37.1195   48.0145 H         1 LCI         0.0270
     50 H25       -45.5141   35.2983   46.1965 H         1 LCI         0.0270
     51 H26       -44.9514   36.4190   44.9104 H         1 LCI         0.0270
@<TRIPOS>BOND
     1    1    2 1  
     2    2    3 ar 
     3    2    5 ar 
     4    3    4 ar 
     5    4    7 ar 
     6    5    6 ar 
     7    5   16 1  
     8    6    7 ar 
     9    7    8 1  
    10    8    9 1  
    11    9   10 1  
    12    9   12 1  
    13   10   11 1  
    14   11   14 1  
    15   12   13 1  
    16   13   14 1  
    17   14   15 1  
    18   16   17 1  
    19   16   21 2  
    20   17   18 2  
    21   18   19 1  
    22   19   20 1  
    23   19   21 1  
    24   21   22 1  
    25   22   23 1  
    26   23   24 1  
    27   23   25 1  
    28   24   25 1  
    29    3   26 1  
    30    8   27 1  
    31    9   28 1  
    32   10   29 1  
    33   10   30 1  
    34   11   31 1  
    35   11   32 1  
    36   12   33 1  
    37   12   34 1  
    38   13   35 1  
    39   13   36 1  
    40   14   37 1  
    41   15   38 1  
    42   15   39 1  
    43   15   40 1  
    44   17   41 1  
    45   20   42 1  
    46   20   43 1  
    47   20   44 1  
    48   22   45 1  
    49   22   46 1  
    50   23   47 1  
    51   24   48 1  
    52   24   49 1  
    53   25   50 1  
    54   25   51 1  
@<TRIPOS>SUBSTRUCTURE
     1 LCI         1

