### 
### Created by X-TOOL on Wed Jan  1 15:39:36 2020
### 

@<TRIPOS>MOLECULE
6gzm_ligand
   51    54     1     0     0
SMALL
GAST_HUCK


@<TRIPOS>ATOM
      1 F          -2.9930    2.9020   -4.6430 F         1 LCI        -0.1844
      2 C6         -1.9450    2.8290   -3.8320 C.ar      1 LCI         0.1629
      3 C5         -1.9660    1.7900   -2.9240 C.ar      1 LCI         0.0360
      4 N2         -0.9130    1.6080   -2.0440 N.ar      1 LCI        -0.2698
      5 C7         -0.8780    3.7230   -3.8430 C.ar      1 LCI         0.0630
      6 N5          0.1820    3.5310   -2.9760 N.ar      1 LCI        -0.2693
      7 C4          0.1510    2.4940   -2.0880 C.ar      1 LCI         0.1734
      8 N1          1.2240    2.3310   -1.2420 N.pl3     1 LCI        -0.2903
      9 C3          2.4010    3.1660   -1.3340 C.3       1 LCI         0.0413
     10 C2          3.0870    2.9980    0.0290 C.3       1 LCI        -0.0247
     11 C1          4.4270    3.6950    0.0310 C.3       1 LCI        -0.0077
     12 C16         3.3570    2.7510   -2.4820 C.3       1 LCI        -0.0247
     13 C17         4.7020    3.4580   -2.4640 C.3       1 LCI        -0.0077
     14 C           5.3630    3.2260   -1.0930 C.3       1 LCI        -0.0242
     15 N           6.5930    4.0240   -1.0290 N.4       1 LCI         0.2207
     16 C8         -0.7910    4.8290   -4.8430 C.2       1 LCI         0.0257
     17 C15        -1.8860    5.2730   -5.6120 C.2       1 LCI         0.0011
     18 N4         -1.4490    6.2180   -6.4360 N.2       1 LCI        -0.2222
     19 N3         -0.1890    6.3570   -6.2610 N.pl3     1 LCI        -0.1977
     20 C14         0.5640    7.3200   -7.0960 C.3       1 LCI         0.0616
     21 C9          0.3150    5.5360   -5.3100 C.2       1 LCI         0.0935
     22 C10         1.7680    5.4550   -4.8640 C.3       1 LCI         0.0206
     23 C11         2.0660    6.3430   -3.6310 C.3       1 LCI        -0.0253
     24 C13         3.5280    6.8080   -3.5860 C.3       1 LCI        -0.0473
     25 C12         2.4380    7.7610   -4.0350 C.3       1 LCI        -0.0473
     26 H1         -2.8119    1.1125   -2.8997 H         1 LCI         0.0840
     27 H2          1.1878    1.5939   -0.5234 H         1 LCI         0.1851
     28 H3          2.1042    4.2141   -1.4869 H         1 LCI         0.0558
     29 H4          3.2349    1.9269    0.2313 H         1 LCI         0.0290
     30 H5          2.4498    3.4345    0.8122 H         1 LCI         0.0290
     31 H6          4.9182    3.5025    0.9962 H         1 LCI         0.0320
     32 H7          4.2576    4.7756   -0.0852 H         1 LCI         0.0320
     33 H8          2.8632    2.9749   -3.4391 H         1 LCI         0.0290
     34 H9          3.5362    1.6684   -2.4063 H         1 LCI         0.0290
     35 H10         4.5558    4.5360   -2.6268 H         1 LCI         0.0320
     36 H11         5.3448    3.0511   -3.2585 H         1 LCI         0.0320
     37 H12         5.5951    2.1583   -0.9660 H         1 LCI         0.0850
     38 H13         7.0388    3.8831   -0.1360 H         1 LCI         0.1997
     39 H14         6.3667    4.9998   -1.1413 H         1 LCI         0.1997
     40 H15         7.2184    3.7371   -1.7656 H         1 LCI         0.1997
     41 H16        -2.9089    4.9060   -5.5425 H         1 LCI         0.0665
     42 H17         1.6252    7.3044   -6.8070 H         1 LCI         0.0601
     43 H18         0.1580    8.3312   -6.9460 H         1 LCI         0.0601
     44 H19         0.4684    7.0399   -8.1554 H         1 LCI         0.0601
     45 H20         2.4099    5.7811   -5.6956 H         1 LCI         0.0509
     46 H21         2.0001    4.4104   -4.6094 H         1 LCI         0.0509
     47 H22         1.4747    6.0913   -2.7383 H         1 LCI         0.0330
     48 H23         4.2527    6.4174   -4.3156 H         1 LCI         0.0270
     49 H24         4.0278    6.9601   -2.6180 H         1 LCI         0.0270
     50 H25         2.1510    8.6068   -3.3930 H         1 LCI         0.0270
     51 H26         2.3759    8.0642   -5.0905 H         1 LCI         0.0270
@<TRIPOS>BOND
     1    1    2 1  
     2    2    3 ar 
     3    2    5 ar 
     4    3    4 ar 
     5    4    7 ar 
     6    5    6 ar 
     7    5   16 1  
     8    6    7 ar 
     9    7    8 1  
    10    8    9 1  
    11    9   10 1  
    12    9   12 1  
    13   10   11 1  
    14   11   14 1  
    15   12   13 1  
    16   13   14 1  
    17   14   15 1  
    18   16   17 1  
    19   16   21 2  
    20   17   18 2  
    21   18   19 1  
    22   19   20 1  
    23   19   21 1  
    24   21   22 1  
    25   22   23 1  
    26   23   24 1  
    27   23   25 1  
    28   24   25 1  
    29    3   26 1  
    30    8   27 1  
    31    9   28 1  
    32   10   29 1  
    33   10   30 1  
    34   11   31 1  
    35   11   32 1  
    36   12   33 1  
    37   12   34 1  
    38   13   35 1  
    39   13   36 1  
    40   14   37 1  
    41   15   38 1  
    42   15   39 1  
    43   15   40 1  
    44   17   41 1  
    45   20   42 1  
    46   20   43 1  
    47   20   44 1  
    48   22   45 1  
    49   22   46 1  
    50   23   47 1  
    51   24   48 1  
    52   24   49 1  
    53   25   50 1  
    54   25   51 1  
@<TRIPOS>SUBSTRUCTURE
     1 LCI         1

