### 
### Created by X-TOOL on Mon Aug  2 16:10:04 2021
### 

@<TRIPOS>MOLECULE
6gzy_ligand
   38    39     1     0     0
SMALL
GAST_HUCK


@<TRIPOS>ATOM
      1 C         144.1010  116.9750   40.7470 C.2       1 FHH         0.1748
      2 O         144.6760  118.0480   40.5700 O.2       1 FHH        -0.4107
      3 C1        143.1690  117.0350   38.4590 C.3       1 FHH         0.0312
      4 C10       144.6500  114.9300   44.4550 C.2       1 FHH         0.0937
      5 C11       146.7240  115.9470   45.0250 C.3       1 FHH        -0.0290
      6 C12       143.2650  115.2720   42.5110 C.2       1 FHH         0.2027
      7 C13       146.3210  114.9590   46.1250 C.3       1 FHH        -0.0319
      8 C14       144.9810  114.2930   45.7670 C.3       1 FHH         0.0242
      9 C2        142.2680  118.2920   38.4090 C.3       1 FHH        -0.0147
     10 C3        141.4820  118.5700   39.6820 C.3       1 FHH         0.0505
     11 C4        141.9220  119.8010   40.4270 C.2       1 FHH         0.2335
     12 C6        143.8190  120.6010   41.6310 C.3       1 FHH         0.0658
     13 C7        144.2580  116.2430   42.0660 C.2       1 FHH         0.0802
     14 C8        145.3800  116.4940   42.8170 C.2       1 FHH        -0.0593
     15 C9        145.5960  115.8320   44.0450 C.2       1 FHH        -0.0119
     16 N11       143.5270  114.6550   43.7270 N.am      1 FHH        -0.2153
     17 NA        143.3550  116.4250   39.7860 N.am      1 FHH        -0.2940
     18 O13       142.2330  114.9880   41.8870 O.2       1 FHH        -0.4244
     19 O2        141.1270  120.5210   41.0560 O.2       1 FHH        -0.3704
     20 O4        143.2500  120.1110   40.3920 O.3       1 FHH        -0.2802
     21 H1        144.1611  117.3169   38.0765 H         1 FHH         0.0518
     22 H2        142.7238  116.2757   37.7993 H         1 FHH         0.0518
     23 H3        147.6801  115.6583   44.5641 H         1 FHH         0.0337
     24 H4        146.8020  116.9703   45.4208 H         1 FHH         0.0337
     25 H5        146.2171  115.4975   47.0785 H         1 FHH         0.0309
     26 H6        147.0975  114.1860   46.2231 H         1 FHH         0.0309
     27 H7        145.0924  113.2035   45.6642 H         1 FHH         0.0532
     28 H8        144.2122  114.5133   46.5222 H         1 FHH         0.0532
     29 H9        141.5500  118.1648   37.5854 H         1 FHH         0.0310
     30 H10       142.9083  119.1631   38.2061 H         1 FHH         0.0310
     31 H11       141.5937  117.7043   40.3514 H         1 FHH         0.0519
     32 H12       140.4224  118.6911   39.4127 H         1 FHH         0.0519
     33 H13       144.8876  120.8165   41.4837 H         1 FHH         0.0577
     34 H14       143.7035  119.8378   42.4147 H         1 FHH         0.0577
     35 H15       143.2980  121.5208   41.9353 H         1 FHH         0.0577
     36 H16       146.1142  117.2146   42.4598 H         1 FHH         0.0682
     37 H17       142.8723  113.9875   44.0816 H         1 FHH         0.2567
     38 H18       142.8999  115.5553   39.9771 H         1 FHH         0.1824
@<TRIPOS>BOND
     1    1    2 2  
     2   13    1 1  
     3    1   17 am 
     4    3    9 1  
     5   17    3 1  
     6    4    8 1  
     7    4   15 2  
     8   16    4 1  
     9    5    7 1  
    10   15    5 1  
    11    6   13 1  
    12    6   16 am 
    13    6   18 2  
    14    7    8 1  
    15    9   10 1  
    16   10   11 1  
    17   11   19 2  
    18   11   20 1  
    19   20   12 1  
    20   13   14 2  
    21   14   15 1  
    22    3   21 1  
    23    3   22 1  
    24    5   23 1  
    25    5   24 1  
    26    7   25 1  
    27    7   26 1  
    28    8   27 1  
    29    8   28 1  
    30    9   29 1  
    31    9   30 1  
    32   10   31 1  
    33   10   32 1  
    34   12   33 1  
    35   12   34 1  
    36   12   35 1  
    37   14   36 1  
    38   16   37 1  
    39   17   38 1  
@<TRIPOS>SUBSTRUCTURE
     1 FHH         1

