### 
### Created by X-TOOL on Mon Aug  2 16:10:05 2021
### 

@<TRIPOS>MOLECULE
6h0u_ligand
   44    46     1     0     0
SMALL
GAST_HUCK


@<TRIPOS>ATOM
      1 C2         -2.9280  -27.1220  -14.5700 C.3       1 FKB         0.1075
      2 C3         -3.4140  -28.0650  -13.4830 C.3       1 FKB         0.1969
      3 C5         -4.7560  -27.7600  -13.1150 C.1       1 FKB         0.1198
      4 N2         -5.7410  -27.4590  -12.7610 N.1       1 FKB        -0.3001
      5 C4         -2.6160  -27.8890  -12.2240 C.2       1 FKB         0.2074
      6 O1         -2.2110  -26.7760  -11.8990 O.2       1 FKB        -0.3942
      7 N1         -2.4950  -29.0040  -11.5130 N.am      1 FKB        -0.2986
      8 C1         -3.9060  -27.2380  -15.7360 C.2       1 FKB         0.2321
      9 N7         -4.3440  -26.2050  -16.4580 N.2       1 FKB        -0.1145
     10 N8         -4.3980  -28.3840  -16.2040 N.pl3     1 FKB        -0.1657
     11 C16        -5.1540  -28.0570  -17.2580 C.ar      1 FKB         0.2886
     12 N6         -5.8770  -28.7690  -18.1220 N.ar      1 FKB        -0.1563
     13 N5         -5.1350  -26.7320  -17.4130 N.ar      1 FKB        -0.1308
     14 C15        -5.7700  -26.0980  -18.3720 C.ar      1 FKB         0.2448
     15 N9         -5.6650  -24.7910  -18.4450 N.pl3     1 FKB        -0.2745
     16 N4         -6.5020  -26.8250  -19.2370 N.ar      1 FKB        -0.1930
     17 C14        -6.5560  -28.1660  -19.1110 C.ar      1 FKB         0.2312
     18 N3         -7.2750  -28.9160  -19.9620 N.pl3     1 FKB        -0.2631
     19 C13        -7.3250  -30.4050  -19.8410 C.3       1 FKB         0.0535
     20 C12        -6.3260  -31.1040  -20.7610 C.3       1 FKB        -0.0268
     21 C11        -6.3840  -32.5570  -20.4230 C.3       1 FKB        -0.0507
     22 C10        -7.6660  -33.1060  -21.0310 C.3       1 FKB        -0.0529
     23 C9         -8.9090  -32.4800  -20.3980 C.3       1 FKB        -0.0507
     24 C8         -8.7370  -30.9570  -20.1020 C.3       1 FKB        -0.0268
     25 H1         -1.9175  -27.4101  -14.8953 H         1 FKB         0.0723
     26 H2         -2.9112  -26.0887  -14.1932 H         1 FKB         0.0723
     27 H3         -3.3401  -29.1021  -13.8420 H         1 FKB         0.0888
     28 H4         -1.9816  -28.9966  -10.6549 H         1 FKB         0.1815
     29 H5         -2.9173  -29.8511  -11.8357 H         1 FKB         0.1815
     30 H6         -4.2305  -29.3292  -15.8305 H         1 FKB         0.2597
     31 H7         -6.1555  -24.2757  -19.1899 H         1 FKB         0.2084
     32 H8         -5.0922  -24.2811  -17.7574 H         1 FKB         0.2084
     33 H9         -7.8042  -28.4545  -20.7155 H         1 FKB         0.2088
     34 H10        -7.0539  -30.6549  -18.8046 H         1 FKB         0.0595
     35 H11        -5.3123  -30.7137  -20.5878 H         1 FKB         0.0290
     36 H12        -6.6045  -30.9472  -21.8135 H         1 FKB         0.0290
     37 H13        -6.3968  -32.6904  -19.3312 H         1 FKB         0.0266
     38 H14        -5.5124  -33.0780  -20.8459 H         1 FKB         0.0266
     39 H15        -7.6966  -34.1943  -20.8743 H         1 FKB         0.0265
     40 H16        -7.6691  -32.8905  -22.1097 H         1 FKB         0.0265
     41 H17        -9.1211  -32.9998  -19.4521 H         1 FKB         0.0266
     42 H18        -9.7571  -32.6104  -21.0862 H         1 FKB         0.0266
     43 H19        -9.1416  -30.4123  -20.9678 H         1 FKB         0.0290
     44 H20        -9.3417  -30.7310  -19.2113 H         1 FKB         0.0290
@<TRIPOS>BOND
     1    1    2 1  
     2    1    8 1  
     3    2    3 1  
     4    2    5 1  
     5    3    4 3  
     6    5    6 2  
     7    5    7 am 
     8    8    9 2  
     9    8   10 1  
    10    9   13 1  
    11   10   11 1  
    12   11   12 ar 
    13   11   13 ar 
    14   12   17 ar 
    15   13   14 ar 
    16   14   15 1  
    17   14   16 ar 
    18   16   17 ar 
    19   17   18 1  
    20   18   19 1  
    21   19   20 1  
    22   19   24 1  
    23   20   21 1  
    24   21   22 1  
    25   22   23 1  
    26   23   24 1  
    27    1   25 1  
    28    1   26 1  
    29    2   27 1  
    30    7   28 1  
    31    7   29 1  
    32   10   30 1  
    33   15   31 1  
    34   15   32 1  
    35   18   33 1  
    36   19   34 1  
    37   20   35 1  
    38   20   36 1  
    39   21   37 1  
    40   21   38 1  
    41   22   39 1  
    42   22   40 1  
    43   23   41 1  
    44   23   42 1  
    45   24   43 1  
    46   24   44 1  
@<TRIPOS>SUBSTRUCTURE
     1 FKB         1

