### 
### Created by X-TOOL on Mon Aug  2 16:13:38 2021
### 

@<TRIPOS>MOLECULE
6h12_ligand
   84    91     1     0     0
SMALL
GAST_HUCK


@<TRIPOS>ATOM
      1 CAC        86.3360  218.8720   69.1310 C.ar      1 FJK        -0.0615
      2 CAD        91.9130  215.2650   67.8000 C.ar      1 FJK        -0.0615
      3 CAE        85.5790  218.0610   68.2890 C.ar      1 FJK        -0.0598
      4 CAF        91.4000  214.9740   66.7610 C.ar      1 FJK        -0.0598
      5 CAG        77.2690  203.6280   68.1380 C.ar      1 FJK        -0.0772
      6 CAH        82.4320  207.7070   68.0340 C.ar      1 FJK        -0.0146
      7 CAI        78.5970  203.7420   68.5390 C.ar      1 FJK        -0.0433
      8 CAJ        76.4710  204.7760   68.0960 C.ar      1 FJK        -0.0641
      9 CAK        83.3540  208.5750   68.5950 C.ar      1 FJK        -0.0468
     10 CAL        87.6950  218.6250   69.2860 C.ar      1 FJK        -0.0497
     11 CAM        91.4620  216.2110   68.3480 C.ar      1 FJK        -0.0497
     12 CAN        86.2120  217.0180   67.6160 C.ar      1 FJK        -0.0468
     13 CAO        90.2590  214.7080   66.8410 C.ar      1 FJK        -0.0468
     14 CAP        83.2690  207.2850   70.6230 C.ar      1 FJK        -0.0114
     15 CAQ        85.4490  212.0930   68.6670 C.2       1 FJK         0.0717
     16 CAR        79.6030  209.5570   68.4810 C.3       1 FJK        -0.0475
     17 CAS        78.6610  210.0210   69.5890 C.3       1 FJK        -0.0322
     18 CAT        86.3870  214.1320   66.5500 C.3       1 FJK         0.0646
     19 CAU        79.2780  208.1140   68.0180 C.3       1 FJK        -0.0208
     20 CAV        77.2730  209.5510   69.2350 C.3       1 FJK         0.0356
     21 CAW        86.5270  212.6220   66.4970 C.3       1 FJK         0.0969
     22 CAX        84.6950  209.1950   70.4860 C.3       1 FJK         0.0867
     23 CAY        85.0640  211.3570   71.0670 C.3       1 FJK         0.0853
     24 CBH        80.7500  204.8640   70.4070 C.2       1 FJK         0.3195
     25 CBI        76.4600  207.2030   68.5100 C.2       1 FJK         0.2008
     26 CBJ        83.7760  208.3510   69.8960 C.ar      1 FJK        -0.0123
     27 CBK        85.9020  211.5970   69.8070 C.2       1 FJK         0.0627
     28 CBL        82.3490  206.4240   70.0510 C.ar      1 FJK         0.1308
     29 CBM        79.0290  205.0220   68.8740 C.ar      1 FJK         0.0780
     30 CBN        76.9730  205.9730   68.4310 C.ar      1 FJK         0.0408
     31 CBO        88.2720  215.7030   67.1360 C.ar      1 FJK         0.0977
     32 CBP        78.2360  206.0810   68.8140 C.ar      1 FJK         0.0246
     33 CBQ        88.3200  217.5720   68.6240 C.ar      1 FJK         0.0172
     34 CBR        90.3080  216.3660   68.1900 C.ar      1 FJK         0.0172
     35 CBS        87.5770  216.7490   67.7740 C.ar      1 FJK         0.0377
     36 CBT        89.6510  215.5390   67.3420 C.ar      1 FJK         0.0377
     37 CBU        78.5290  207.4180   69.1200 C.3       1 FJK         0.0778
     38 NAZ        81.9330  206.6330   68.7890 N.ar      1 FJK        -0.2947
     39 NBA        87.2040  211.3550   69.6840 N.2       1 FJK        -0.2242
     40 NBB        87.5390  211.6970   68.5190 N.2       1 FJK        -0.1018
     41 NBC        89.6420  217.3660   68.8070 N.ar      1 FJK        -0.3395
     42 NBD        87.6640  214.8400   66.2940 N.pl3     1 FJK        -0.2935
     43 NBE        81.8960  205.4120   70.7910 N.am      1 FJK        -0.2002
     44 NBF        80.2300  205.3840   69.2940 N.am      1 FJK        -0.2155
     45 NBV        77.3070  208.0850   69.0070 N.am      1 FJK        -0.2607
     46 NBW        86.5260  212.1320   67.8850 N.pl3     1 FJK        -0.1791
     47 OAA        80.2280  203.9380   71.0300 O.2       1 FJK        -0.3793
     48 OAB        75.2910  207.4830   68.3110 O.2       1 FJK        -0.3885
     49 OBG        84.0340  210.4160   70.7870 O.3       1 FJK        -0.3569
     50 H1         85.8675  219.6921   69.6630 H         1 FJK         0.0657
     51 H2         92.7391  214.6981   68.2140 H         1 FJK         0.0657
     52 H3         84.5174  218.2379   68.1597 H         1 FJK         0.0582
     53 H4         91.9425  214.9569   65.8227 H         1 FJK         0.0582
     54 H5         76.8590  202.6632   67.8622 H         1 FJK         0.0532
     55 H6         82.0962  207.8563   67.0142 H         1 FJK         0.0754
     56 H7         79.2568  202.8833   68.5876 H         1 FJK         0.0512
     57 H8         75.4344  204.6968   67.7889 H         1 FJK         0.0518
     58 H9         83.7386  209.4143   68.0269 H         1 FJK         0.0524
     59 H10        88.2802  219.2656   69.9358 H         1 FJK         0.0582
     60 H11        92.0655  216.8820   68.9485 H         1 FJK         0.0582
     61 H12        85.6286  216.3944   66.9483 H         1 FJK         0.0675
     62 H13        89.8296  213.7801   66.4810 H         1 FJK         0.0675
     63 H14        83.5948  207.1252   71.6445 H         1 FJK         0.0526
     64 H15        84.4321  212.3982   68.4247 H         1 FJK         0.0899
     65 H16        80.6365  209.5864   68.8564 H         1 FJK         0.0268
     66 H17        79.5053  210.2373   67.6221 H         1 FJK         0.0268
     67 H18        78.6783  211.1185   69.6607 H         1 FJK         0.0285
     68 H19        78.9702  209.5858   70.5507 H         1 FJK         0.0285
     69 H20        86.0227  214.4157   67.5484 H         1 FJK         0.0569
     70 H21        85.6549  214.4433   65.7903 H         1 FJK         0.0569
     71 H22        80.2119  207.5733   67.8049 H         1 FJK         0.0308
     72 H23        78.6575  208.1462   67.1103 H         1 FJK         0.0308
     73 H24        76.9327  210.0593   68.3208 H         1 FJK         0.0523
     74 H25        76.5833  209.7806   70.0606 H         1 FJK         0.0523
     75 H26        87.4708  212.3488   66.0024 H         1 FJK         0.0670
     76 H27        85.6829  212.1851   65.9433 H         1 FJK         0.0670
     77 H28        85.5292  209.3821   69.7939 H         1 FJK         0.0748
     78 H29        85.0805  208.7406   71.4106 H         1 FJK         0.0748
     79 H30        84.6132  212.3061   71.3924 H         1 FJK         0.0679
     80 H31        85.7099  210.9647   71.8663 H         1 FJK         0.0679
     81 H32        79.0177  207.5163   70.1005 H         1 FJK         0.0706
     82 H33        88.1291  214.6573   65.3933 H         1 FJK         0.1943
     83 H34        82.3937  205.0830   71.5935 H         1 FJK         0.2313
     84 H35        80.7545  206.0557   68.7708 H         1 FJK         0.2242
@<TRIPOS>BOND
     1    3    1 ar 
     2    1   10 ar 
     3    4    2 ar 
     4    2   11 ar 
     5   12    3 ar 
     6   13    4 ar 
     7    7    5 ar 
     8    5    8 ar 
     9    9    6 ar 
    10    6   38 ar 
    11   29    7 ar 
    12   30    8 ar 
    13   26    9 ar 
    14   10   33 ar 
    15   11   34 ar 
    16   35   12 ar 
    17   36   13 ar 
    18   26   14 ar 
    19   14   28 ar 
    20   15   27 2  
    21   46   15 1  
    22   17   16 1  
    23   16   19 1  
    24   20   17 1  
    25   18   21 1  
    26   42   18 1  
    27   19   37 1  
    28   45   20 1  
    29   21   46 1  
    30   22   26 1  
    31   49   22 1  
    32   27   23 1  
    33   23   49 1  
    34   43   24 am 
    35   24   44 am 
    36   24   47 2  
    37   30   25 1  
    38   25   45 am 
    39   25   48 2  
    40   27   39 1  
    41   28   38 ar 
    42   28   43 1  
    43   29   32 ar 
    44   44   29 1  
    45   32   30 ar 
    46   31   35 ar 
    47   31   36 ar 
    48   31   42 1  
    49   32   37 1  
    50   33   35 ar 
    51   33   41 ar 
    52   34   36 ar 
    53   34   41 ar 
    54   37   45 1  
    55   39   40 2  
    56   40   46 1  
    57    1   50 1  
    58    2   51 1  
    59    3   52 1  
    60    4   53 1  
    61    5   54 1  
    62    6   55 1  
    63    7   56 1  
    64    8   57 1  
    65    9   58 1  
    66   10   59 1  
    67   11   60 1  
    68   12   61 1  
    69   13   62 1  
    70   14   63 1  
    71   15   64 1  
    72   16   65 1  
    73   16   66 1  
    74   17   67 1  
    75   17   68 1  
    76   18   69 1  
    77   18   70 1  
    78   19   71 1  
    79   19   72 1  
    80   20   73 1  
    81   20   74 1  
    82   21   75 1  
    83   21   76 1  
    84   22   77 1  
    85   22   78 1  
    86   23   79 1  
    87   23   80 1  
    88   37   81 1  
    89   42   82 1  
    90   43   83 1  
    91   44   84 1  
@<TRIPOS>SUBSTRUCTURE
     1 FJK         1

