### 
### Created by X-TOOL on Mon Aug  2 16:13:39 2021
### 

@<TRIPOS>MOLECULE
6h13_ligand
   89    96     1     0     0
SMALL
GAST_HUCK


@<TRIPOS>ATOM
      1 CAA       -44.6920  162.4630   83.5490 C.ar      1 FJN        -0.0468
      2 CAB       -46.1930  162.7360   83.6650 C.ar      1 FJN        -0.0598
      3 CAC       -46.7210  163.0130   82.2730 C.ar      1 FJN        -0.0615
      4 CAD       -46.1190  164.3300   81.8240 C.ar      1 FJN        -0.0497
      5 CAE       -44.7210  164.3920   82.0420 C.ar      1 FJN         0.0172
      6 CAF       -44.0290  163.5080   82.8830 C.ar      1 FJN         0.0377
      7 CAG       -42.6400  163.6610   83.0280 C.ar      1 FJN         0.0977
      8 CAH       -41.9570  164.7060   82.3700 C.ar      1 FJN         0.0377
      9 CAI       -42.7190  165.5510   81.5640 C.ar      1 FJN         0.0172
     10 CAJ       -42.1150  166.6000   80.8730 C.ar      1 FJN        -0.0497
     11 CAK       -40.7450  166.8320   80.9710 C.ar      1 FJN        -0.0615
     12 CAL       -39.9660  166.0070   81.7720 C.ar      1 FJN        -0.0598
     13 CAM       -40.5820  164.9690   82.4610 C.ar      1 FJN        -0.0468
     14 CAO       -40.6420  162.2520   83.7630 C.3       1 FJN         0.0646
     15 CAQ       -40.6270  160.7400   83.7190 C.3       1 FJN         0.0969
     16 CAR       -39.9770  159.5420   80.4690 C.2       1 FJN         0.0810
     17 CAS       -39.4960  159.9050   81.6450 C.2       1 FJN         0.0745
     18 CAW       -39.1510  159.0220   79.3170 C.3       1 FJN         0.0047
     19 CAX       -37.4910  157.4920   79.9710 C.3       1 FJN         0.0058
     20 CAY       -36.8800  156.2330   80.1570 C.ar      1 FJN         0.0065
     21 CAZ       -36.1520  155.9250   81.3110 C.ar      1 FJN        -0.0440
     22 CBA       -35.5420  154.6710   81.4190 C.ar      1 FJN        -0.0145
     23 CBB       -36.3480  154.0460   79.2530 C.ar      1 FJN         0.1309
     24 CBC       -36.9250  155.2890   79.1470 C.ar      1 FJN        -0.0086
     25 CBE       -35.6280  152.2550   77.9970 C.2       1 FJN         0.3195
     26 CBI       -33.6530  151.2680   79.2690 C.ar      1 FJN         0.0780
     27 CBJ       -33.3130  150.1510   78.5660 C.ar      1 FJN         0.0246
     28 CBK       -32.2160  149.4480   78.9480 C.ar      1 FJN         0.0408
     29 CBL       -31.4630  149.8120   79.9950 C.ar      1 FJN        -0.0641
     30 CBM       -31.7650  150.9300   80.7520 C.ar      1 FJN        -0.0772
     31 CBN       -32.8790  151.6540   80.3720 C.ar      1 FJN        -0.0433
     32 CBO       -32.0430  148.4060   78.1220 C.2       1 FJN         0.2008
     33 CBP       -33.8380  149.4770   77.4330 C.3       1 FJN         0.0778
     34 CBQ       -35.1670  148.8210   77.7270 C.3       1 FJN        -0.0208
     35 CBR       -35.6270  148.0580   76.4700 C.3       1 FJN        -0.0475
     36 CBS       -34.6760  146.9060   76.1340 C.3       1 FJN        -0.0322
     37 CBT       -33.2370  147.4410   76.0170 C.3       1 FJN         0.0356
     38 CBX       -39.5150  156.8730   78.4560 C.3       1 FJN        -0.0405
     39 NAN       -44.0400  165.3750   81.4290 N.ar      1 FJN        -0.3395
     40 NAP       -42.0240  162.7760   83.8510 N.pl3     1 FJN        -0.2935
     41 NAT       -40.5830  160.2530   82.3280 N.pl3     1 FJN        -0.1790
     42 NAU       -41.6210  160.0790   81.5800 N.2       1 FJN        -0.1017
     43 NAV       -41.2960  159.6500   80.4650 N.2       1 FJN        -0.2212
     44 NBD       -35.6500  153.7360   80.3630 N.ar      1 FJN        -0.2947
     45 NBF       -36.4920  153.2580   78.1840 N.am      1 FJN        -0.2002
     46 NBH       -34.7220  152.0990   79.0230 N.am      1 FJN        -0.2155
     47 NBV       -32.9460  148.3770   77.1510 N.am      1 FJN        -0.2607
     48 NBW       -38.9310  157.6000   79.5980 N.4       1 FJN         0.2551
     49 OBG       -35.7380  151.5950   76.9630 O.2       1 FJN        -0.3793
     50 OBU       -31.1130  147.6060   78.2180 O.2       1 FJN        -0.3885
     51 H1        -44.2017  161.5754   83.9322 H         1 FJN         0.0675
     52 H2        -46.7744  162.7319   84.5799 H         1 FJN         0.0582
     53 H3        -47.4007  162.3880   81.7051 H         1 FJN         0.0657
     54 H4        -46.6954  165.1359   81.3843 H         1 FJN         0.0582
     55 H5        -42.7216  167.2462   80.2488 H         1 FJN         0.0582
     56 H6        -40.2899  167.6509   80.4258 H         1 FJN         0.0657
     57 H7        -38.8977  166.1696   81.8581 H         1 FJN         0.0582
     58 H8        -39.9737  164.3352   83.0961 H         1 FJN         0.0675
     59 H9        -40.1691  162.6414   82.8494 H         1 FJN         0.0569
     60 H10       -40.0744  162.5902   84.6424 H         1 FJN         0.0569
     61 H11       -41.5359  160.3568   84.2058 H         1 FJN         0.0670
     62 H12       -39.7404  160.3731   84.2569 H         1 FJN         0.0670
     63 H13       -38.4585  159.9165   81.9757 H         1 FJN         0.0900
     64 H14       -38.1905  159.5553   79.2620 H         1 FJN         0.0931
     65 H15       -39.6942  159.1461   78.3686 H         1 FJN         0.0931
     66 H16       -36.9236  158.0007   79.1777 H         1 FJN         0.1003
     67 H17       -37.3712  158.0405   80.9169 H         1 FJN         0.1003
     68 H18       -36.0617  156.6496   82.1121 H         1 FJN         0.0525
     69 H19       -34.9855  154.4152   82.3134 H         1 FJN         0.0754
     70 H20       -37.4403  155.5417   78.2274 H         1 FJN         0.0527
     71 H21       -30.5959  149.2158   80.2553 H         1 FJN         0.0518
     72 H22       -31.1580  151.2234   81.6009 H         1 FJN         0.0532
     73 H23       -33.1592  152.5358   80.9368 H         1 FJN         0.0512
     74 H24       -33.9220  150.1673   76.5807 H         1 FJN         0.0706
     75 H25       -35.9101  149.5893   77.9868 H         1 FJN         0.0308
     76 H26       -35.0562  148.1191   78.5667 H         1 FJN         0.0308
     77 H27       -35.6582  148.7553   75.6199 H         1 FJN         0.0268
     78 H28       -36.6333  147.6507   76.6473 H         1 FJN         0.0268
     79 H29       -34.9759  146.4506   75.1787 H         1 FJN         0.0285
     80 H30       -34.7215  146.1495   76.9312 H         1 FJN         0.0285
     81 H31       -33.1239  147.9774   75.0634 H         1 FJN         0.0523
     82 H32       -32.5309  146.5982   76.0496 H         1 FJN         0.0523
     83 H33       -40.5865  157.1100   78.3797 H         1 FJN         0.0778
     84 H34       -39.3887  155.7908   78.6069 H         1 FJN         0.0778
     85 H35       -39.0057  157.1759   77.5293 H         1 FJN         0.0778
     86 H36       -42.5893  162.4239   84.6367 H         1 FJN         0.1943
     87 H37       -37.2348  153.4159   77.5334 H         1 FJN         0.2313
     88 H38       -34.8791  152.7459   79.7693 H         1 FJN         0.2242
     89 H39       -39.4587  157.3238   80.4112 H         1 FJN         0.2058
@<TRIPOS>BOND
     1    1    2 ar 
     2    6    1 ar 
     3    2    3 ar 
     4    4    3 ar 
     5    5    4 ar 
     6    6    5 ar 
     7    5   39 ar 
     8    7    6 ar 
     9    7    8 ar 
    10   40    7 1  
    11    8    9 ar 
    12    8   13 ar 
    13    9   10 ar 
    14    9   39 ar 
    15   10   11 ar 
    16   12   11 ar 
    17   13   12 ar 
    18   15   14 1  
    19   14   40 1  
    20   41   15 1  
    21   16   17 2  
    22   18   16 1  
    23   16   43 1  
    24   17   41 1  
    25   48   18 1  
    26   20   19 1  
    27   19   48 1  
    28   20   21 ar 
    29   24   20 ar 
    30   22   21 ar 
    31   44   22 ar 
    32   23   24 ar 
    33   23   44 ar 
    34   45   23 1  
    35   25   45 am 
    36   46   25 am 
    37   25   49 2  
    38   26   27 ar 
    39   26   31 ar 
    40   26   46 1  
    41   27   28 ar 
    42   27   33 1  
    43   28   29 ar 
    44   28   32 1  
    45   29   30 ar 
    46   30   31 ar 
    47   32   47 am 
    48   32   50 2  
    49   33   34 1  
    50   33   47 1  
    51   34   35 1  
    52   35   36 1  
    53   36   37 1  
    54   37   47 1  
    55   48   38 1  
    56   41   42 1  
    57   42   43 2  
    58    1   51 1  
    59    2   52 1  
    60    3   53 1  
    61    4   54 1  
    62   10   55 1  
    63   11   56 1  
    64   12   57 1  
    65   13   58 1  
    66   14   59 1  
    67   14   60 1  
    68   15   61 1  
    69   15   62 1  
    70   17   63 1  
    71   18   64 1  
    72   18   65 1  
    73   19   66 1  
    74   19   67 1  
    75   21   68 1  
    76   22   69 1  
    77   24   70 1  
    78   29   71 1  
    79   30   72 1  
    80   31   73 1  
    81   33   74 1  
    82   34   75 1  
    83   34   76 1  
    84   35   77 1  
    85   35   78 1  
    86   36   79 1  
    87   36   80 1  
    88   37   81 1  
    89   37   82 1  
    90   38   83 1  
    91   38   84 1  
    92   38   85 1  
    93   40   86 1  
    94   45   87 1  
    95   46   88 1  
    96   48   89 1  
@<TRIPOS>SUBSTRUCTURE
     1 FJN         1

