### 
### Created by X-TOOL on Mon Aug  2 16:13:39 2021
### 

@<TRIPOS>MOLECULE
6h14_ligand
   81    88     1     0     0
SMALL
GAST_HUCK


@<TRIPOS>ATOM
      1 OBT       -13.8960  224.0880   79.3570 O.2       1 FW8        -0.3885
      2 CBM       -13.1280  223.2130   78.9640 C.2       1 FW8         0.2008
      3 NBS       -12.6390  223.1560   77.7400 N.am      1 FW8        -0.2607
      4 CBR       -12.7640  224.0840   76.5990 C.3       1 FW8         0.0356
      5 CBQ       -11.3700  224.5000   76.1390 C.3       1 FW8        -0.0322
      6 CBP       -10.4510  223.2780   76.0770 C.3       1 FW8        -0.0475
      7 CBO       -10.3910  222.6000   77.4490 C.3       1 FW8        -0.0208
      8 CBN       -11.7550  222.0110   77.7060 C.3       1 FW8         0.0778
      9 CBG       -11.8770  221.4220   78.9800 C.ar      1 FW8         0.0246
     10 CBH       -12.7210  222.1800   79.7030 C.ar      1 FW8         0.0408
     11 CBI       -13.0400  221.8570   80.9540 C.ar      1 FW8        -0.0641
     12 CBJ       -12.5090  220.7240   81.5500 C.ar      1 FW8        -0.0772
     13 CBK       -11.6480  219.9360   80.8090 C.ar      1 FW8        -0.0433
     14 CBF       -11.3440  220.3020   79.5010 C.ar      1 FW8         0.0780
     15 NBE       -10.5070  219.6260   78.6850 N.am      1 FW8        -0.2155
     16 CBC        -9.6330  218.6540   79.0740 C.2       1 FW8         0.3194
     17 OBL        -9.5290  218.2510   80.2330 O.2       1 FW8        -0.3793
     18 NBD        -8.8970  218.1550   78.0500 N.am      1 FW8        -0.2001
     19 CAY        -7.9130  217.2280   78.1080 C.ar      1 FW8         0.1318
     20 CAX        -7.5590  216.3970   79.1860 C.ar      1 FW8        -0.0147
     21 NBB        -7.1990  217.1480   76.9700 N.ar      1 FW8        -0.2934
     22 CAZ        -6.1360  216.2690   76.8140 C.ar      1 FW8        -0.0135
     23 CBA        -5.7750  215.4470   77.8600 C.ar      1 FW8        -0.0502
     24 CAW        -6.4800  215.5040   79.0570 C.ar      1 FW8        -0.0157
     25 CAS        -6.0570  214.6680   80.0170 C.2       1 FW8         0.0757
     26 CAR        -6.7830  214.0530   80.9440 C.2       1 FW8         0.0921
     27 NAV        -4.7830  214.3010   80.1670 N.2       1 FW8        -0.2135
     28 NAU        -4.7160  213.5250   81.1240 N.2       1 FW8        -0.0883
     29 NAT        -5.8880  213.3390   81.6300 N.pl3     1 FW8        -0.1623
     30 CAQ        -6.1200  212.4390   82.7820 C.3       1 FW8         0.1006
     31 CAP        -4.7720  211.9230   83.2620 C.3       1 FW8         0.0581
     32 NAO        -4.6560  210.4500   83.2610 N.pl3     1 FW8        -0.3113
     33 CAG        -3.8880  209.6810   82.4550 C.ar      1 FW8         0.0690
     34 CAH        -2.4870  209.8260   82.3300 C.ar      1 FW8         0.0054
     35 CAM        -1.7420  210.8190   83.0120 C.3       1 FW8        -0.0210
     36 CAL        -0.2690  210.5090   83.0730 C.3       1 FW8        -0.0439
     37 CAK         0.1780  210.2700   81.6470 C.3       1 FW8        -0.0400
     38 CAJ        -0.4520  208.9610   81.2210 C.3       1 FW8        -0.0081
     39 CAI        -1.8370  208.9410   81.4540 C.ar      1 FW8         0.0105
     40 NAN        -2.5300  207.9920   80.8040 N.ar      1 FW8        -0.3281
     41 CAE        -3.8540  207.8380   80.9220 C.ar      1 FW8         0.0179
     42 CAF        -4.5670  208.6810   81.7620 C.ar      1 FW8         0.0197
     43 CAA        -5.9410  208.5260   81.8970 C.ar      1 FW8        -0.0528
     44 CAB        -6.6000  207.5250   81.1910 C.ar      1 FW8        -0.0632
     45 CAC        -5.8810  206.6800   80.3480 C.ar      1 FW8        -0.0640
     46 CAD        -4.5030  206.8310   80.2140 C.ar      1 FW8        -0.0521
     47 H1        -13.3307  224.9745   76.9087 H         1 FW8         0.0523
     48 H2        -13.2903  223.5834   75.7729 H         1 FW8         0.0523
     49 H3        -10.9557  225.2313   76.8486 H         1 FW8         0.0285
     50 H4        -11.4373  224.9558   75.1401 H         1 FW8         0.0285
     51 H5         -9.4400  223.5966   75.7833 H         1 FW8         0.0268
     52 H6        -10.8410  222.5657   75.3351 H         1 FW8         0.0268
     53 H7        -10.1456  223.3391   78.2259 H         1 FW8         0.0308
     54 H8         -9.6304  221.8054   77.4454 H         1 FW8         0.0308
     55 H9        -12.0251  221.2925   76.9181 H         1 FW8         0.0706
     56 H10       -13.7226  222.4869   81.5129 H         1 FW8         0.0518
     57 H11       -12.7623  220.4624   82.5710 H         1 FW8         0.0532
     58 H12       -11.2141  219.0421   81.2423 H         1 FW8         0.0512
     59 H13       -10.5300  219.8579   77.7125 H         1 FW8         0.2242
     60 H14        -9.1071  218.5161   77.1414 H         1 FW8         0.2312
     61 H15        -8.1166  216.4446   80.1144 H         1 FW8         0.0543
     62 H16        -5.5936  216.2293   75.8763 H         1 FW8         0.0754
     63 H17        -4.9447  214.7589   77.7497 H         1 FW8         0.0541
     64 H18        -7.8580  214.1166   81.1064 H         1 FW8         0.1112
     65 H19        -6.7532  211.5943   82.4729 H         1 FW8         0.0677
     66 H20        -6.6168  212.9923   83.5926 H         1 FW8         0.0677
     67 H21        -4.6104  212.2817   84.2892 H         1 FW8         0.0551
     68 H22        -3.9911  212.3316   82.6038 H         1 FW8         0.0551
     69 H23        -5.2275  209.9492   83.9563 H         1 FW8         0.1816
     70 H24        -2.1259  210.9019   84.0395 H         1 FW8         0.0386
     71 H25        -1.8773  211.7785   82.4915 H         1 FW8         0.0386
     72 H26        -0.0946  209.6096   83.6819 H         1 FW8         0.0284
     73 H27         0.2805  211.3576   83.5065 H         1 FW8         0.0284
     74 H28         1.2746  210.1992   81.5978 H         1 FW8         0.0292
     75 H29        -0.1662  211.0881   80.9972 H         1 FW8         0.0292
     76 H30         0.0148  208.1417   81.7874 H         1 FW8         0.0453
     77 H31        -0.2710  208.8134   80.1461 H         1 FW8         0.0453
     78 H32        -6.4992  209.1849   82.5522 H         1 FW8         0.0636
     79 H33        -7.6719  207.4024   81.2965 H         1 FW8         0.0585
     80 H34        -6.3958  205.9028   79.7948 H         1 FW8         0.0621
     81 H35        -3.9411  206.1701   79.5640 H         1 FW8         0.0590
@<TRIPOS>BOND
     1    1    2 2  
     2    2    3 am 
     3    2   10 1  
     4    3    4 1  
     5    3    8 1  
     6    4    5 1  
     7    5    6 1  
     8    6    7 1  
     9    7    8 1  
    10    8    9 1  
    11    9   10 ar 
    12    9   14 ar 
    13   10   11 ar 
    14   11   12 ar 
    15   12   13 ar 
    16   13   14 ar 
    17   14   15 1  
    18   15   16 am 
    19   16   17 2  
    20   16   18 am 
    21   18   19 1  
    22   19   20 ar 
    23   19   21 ar 
    24   20   24 ar 
    25   21   22 ar 
    26   22   23 ar 
    27   23   24 ar 
    28   24   25 1  
    29   25   26 2  
    30   25   27 1  
    31   26   29 1  
    32   27   28 2  
    33   28   29 1  
    34   29   30 1  
    35   30   31 1  
    36   31   32 1  
    37   32   33 1  
    38   33   34 ar 
    39   33   42 ar 
    40   34   35 1  
    41   34   39 ar 
    42   35   36 1  
    43   36   37 1  
    44   37   38 1  
    45   38   39 1  
    46   39   40 ar 
    47   40   41 ar 
    48   41   42 ar 
    49   41   46 ar 
    50   42   43 ar 
    51   43   44 ar 
    52   44   45 ar 
    53   45   46 ar 
    54    4   47 1  
    55    4   48 1  
    56    5   49 1  
    57    5   50 1  
    58    6   51 1  
    59    6   52 1  
    60    7   53 1  
    61    7   54 1  
    62    8   55 1  
    63   11   56 1  
    64   12   57 1  
    65   13   58 1  
    66   15   59 1  
    67   18   60 1  
    68   20   61 1  
    69   22   62 1  
    70   23   63 1  
    71   26   64 1  
    72   30   65 1  
    73   30   66 1  
    74   31   67 1  
    75   31   68 1  
    76   32   69 1  
    77   35   70 1  
    78   35   71 1  
    79   36   72 1  
    80   36   73 1  
    81   37   74 1  
    82   37   75 1  
    83   38   76 1  
    84   38   77 1  
    85   43   78 1  
    86   44   79 1  
    87   45   80 1  
    88   46   81 1  
@<TRIPOS>SUBSTRUCTURE
     1 FW8         1

