### 
### Created by X-TOOL on Wed Jan  1 15:39:35 2020
### 

@<TRIPOS>MOLECULE
6h1u_ligand
   15    14     1     0     0
SMALL
GAST_HUCK


@<TRIPOS>ATOM
      1 N         -13.7950  -14.5400   14.8780 N.4       1 ASP         0.2339
      2 CA        -12.5970  -15.0140   14.1950 C.3       1 ASP         0.0398
      3 C         -12.1650  -14.0180   13.1260 C.2       1 ASP         0.0862
      4 O         -11.3180  -14.3340   12.2860 O.co2     1 ASP        -0.5642
      5 CB        -12.8400  -16.4060   13.5700 C.3       1 ASP         0.0552
      6 CG        -13.8200  -16.3660   12.4110 C.2       1 ASP         0.0419
      7 OD1       -13.9170  -17.3740   11.6790 O.co2     1 ASP        -0.5687
      8 OD2       -14.5100  -15.3440   12.2330 O.co2     1 ASP        -0.5687
      9 OXT       -12.6830  -12.8920   13.1160 O.co2     1 ASP        -0.5642
     10 H1        -14.0677  -15.2088   15.5811 H         1 ASP         0.2011
     11 H2        -14.5419  -14.4314   14.2099 H         1 ASP         0.2011
     12 H3        -13.6035  -13.6522   15.3152 H         1 ASP         0.2011
     13 H4        -11.7879  -15.1026   14.9349 H         1 ASP         0.1043
     14 H5        -13.2402  -17.0750   14.3460 H         1 ASP         0.0505
     15 H6        -11.8800  -16.8003   13.2054 H         1 ASP         0.0505
@<TRIPOS>BOND
     1    1    2 1  
     2    2    3 1  
     3    2    5 1  
     4    3    4 ar 
     5    3    9 ar 
     6    5    6 1  
     7    6    7 ar 
     8    6    8 ar 
     9    1   10 1  
    10    1   11 1  
    11    1   12 1  
    12    2   13 1  
    13    5   14 1  
    14    5   15 1  
@<TRIPOS>SUBSTRUCTURE
     1 ASP         1

