### 
### Created by X-TOOL on Wed Jan  1 15:39:35 2020
### 

@<TRIPOS>MOLECULE
6h29_ligand
   20    20     1     0     0
SMALL
GAST_HUCK


@<TRIPOS>ATOM
      1 C1         -5.6460    1.0500   16.7870 C.2       1 FK8         0.3190
      2 C3         -6.3480    4.0010   16.0240 C.ar      1 FK8        -0.0130
      3 C5         -5.0020    4.7200   14.1610 C.ar      1 FK8        -0.0685
      4 C7         -5.9280    6.3350   15.6680 C.ar      1 FK8        -0.0685
      5 C4         -5.5900    3.7120   14.9050 C.ar      1 FK8        -0.0578
      6 C2         -7.0350    2.9430   16.8240 C.3       1 FK8         0.1113
      7 C6         -5.1920    6.0180   14.5670 C.ar      1 FK8        -0.0687
      8 C8         -6.4960    5.3200   16.3820 C.ar      1 FK8        -0.0578
      9 N1         -5.3440   -0.0560   16.1250 N.am      1 FK8        -0.2762
     10 O1         -5.0440    1.5020   17.7400 O.2       1 FK8        -0.3776
     11 O2         -6.7330    1.6480   16.2760 O.3       1 FK8        -0.2508
     12 H1         -4.4086    4.4915   13.2831 H         1 FK8         0.0599
     13 H2         -6.0595    7.3678   15.9698 H         1 FK8         0.0599
     14 H3         -5.4539    2.6792   14.6053 H         1 FK8         0.0557
     15 H4         -8.1220    3.1088   16.7926 H         1 FK8         0.0776
     16 H5         -6.6870    2.9890   17.8665 H         1 FK8         0.0776
     17 H6         -4.7406    6.8178   13.9912 H         1 FK8         0.0559
     18 H7         -7.0833    5.5619   17.2604 H         1 FK8         0.0557
     19 H8         -4.5537   -0.6034   16.4002 H         1 FK8         0.1831
     20 H9         -5.9062   -0.3440   15.3498 H         1 FK8         0.1831
@<TRIPOS>BOND
     1    1    9 am 
     2    1   10 2  
     3   11    1 1  
     4    2    5 ar 
     5    6    2 1  
     6    2    8 ar 
     7    5    3 ar 
     8    3    7 ar 
     9    4    7 ar 
    10    8    4 ar 
    11    6   11 1  
    12    3   12 1  
    13    4   13 1  
    14    5   14 1  
    15    6   15 1  
    16    6   16 1  
    17    7   17 1  
    18    8   18 1  
    19    9   19 1  
    20    9   20 1  
@<TRIPOS>SUBSTRUCTURE
     1 FK8         1

