### 
### Created by X-TOOL on Wed Jan  1 15:39:35 2020
### 

@<TRIPOS>MOLECULE
6h2t_ligand
   18    17     1     0     0
SMALL
GAST_HUCK


@<TRIPOS>ATOM
      1 N         -13.0910  -13.7440   14.7760 N.4       1 GLU         0.2328
      2 CA        -11.7840  -14.0720   14.1880 C.3       1 GLU         0.0298
      3 C         -11.5030  -13.1820   12.9790 C.2       1 GLU         0.0845
      4 O         -10.7040  -13.5050   12.0910 O.co2     1 GLU        -0.5643
      5 CB        -11.7120  -15.5620   13.7900 C.3       1 GLU         0.0139
      6 CG        -13.0230  -16.1840   13.3120 C.3       1 GLU         0.0069
      7 CD        -13.5190  -15.6030   11.9990 C.2       1 GLU         0.0351
      8 OE1       -13.5830  -16.3410   10.9800 O.co2     1 GLU        -0.5690
      9 OE2       -13.8850  -14.4130   11.9940 O.co2     1 GLU        -0.5690
     10 OXT       -12.0960  -12.1020   12.8930 O.co2     1 GLU        -0.5643
     11 H1        -13.2605  -14.3395   15.5714 H         1 GLU         0.2010
     12 H2        -13.8142  -13.8875   14.0887 H         1 GLU         0.2010
     13 H3        -13.0943  -12.7802   15.0711 H         1 GLU         0.2010
     14 H4        -11.0093  -13.8811   14.9452 H         1 GLU         0.1025
     15 H5        -11.3686  -16.1300   14.6672 H         1 GLU         0.0356
     16 H6        -10.9759  -15.6599   12.9785 H         1 GLU         0.0356
     17 H7        -13.7909  -16.0146   14.0811 H         1 GLU         0.0433
     18 H8        -12.8689  -17.2651   13.1795 H         1 GLU         0.0433
@<TRIPOS>BOND
     1    1    2 1  
     2    2    3 1  
     3    2    5 1  
     4    3    4 ar 
     5    3   10 ar 
     6    5    6 1  
     7    6    7 1  
     8    7    8 ar 
     9    7    9 ar 
    10    1   11 1  
    11    1   12 1  
    12    1   13 1  
    13    2   14 1  
    14    5   15 1  
    15    5   16 1  
    16    6   17 1  
    17    6   18 1  
@<TRIPOS>SUBSTRUCTURE
     1 GLU         1

