### 
### Created by X-TOOL on Wed Jan  1 15:39:36 2020
### 

@<TRIPOS>MOLECULE
6h2z_ligand
   44    46     1     0     0
SMALL
GAST_HUCK


@<TRIPOS>ATOM
      1 C1         -5.1660    2.3790   15.5540 C.ar      1 FKE         0.1122
      2 C2         -6.0170    3.3990   15.1590 C.ar      1 FKE        -0.0295
      3 C3         -5.5480    4.3850   14.3090 C.ar      1 FKE        -0.0401
      4 C4         -4.2370    4.3630   13.8470 C.ar      1 FKE         0.0501
      5 C5         -3.3960    3.3360   14.2590 C.ar      1 FKE        -0.0401
      6 C6         -3.8540    2.3470   15.1100 C.ar      1 FKE        -0.0295
      7 C7         -3.7460    5.4080   12.8960 C.2       1 FKE         0.2074
      8 C8         -1.8540    6.4810   11.7970 C.3       1 FKE         0.0354
      9 C9         -1.8200    7.9650   12.1220 C.3       1 FKE        -0.0199
     10 C10        -1.0440    8.2310   13.4120 C.3       1 FKE        -0.0037
     11 C11        -1.6850    7.4030   14.5240 C.3       1 FKE        -0.0199
     12 C12        -1.7180    5.9290   14.1600 C.3       1 FKE         0.0354
     13 C13        -1.0340    9.7160   13.7620 C.ar      1 FKE        -0.0398
     14 C14        -1.9680   10.5880   13.2140 C.ar      1 FKE        -0.0601
     15 C15        -1.9240   11.9440   13.4910 C.ar      1 FKE        -0.0686
     16 C16        -0.9480   12.4510   14.3220 C.ar      1 FKE        -0.0687
     17 C17        -0.0170   11.6000   14.8800 C.ar      1 FKE        -0.0686
     18 C18        -0.0610   10.2430   14.6020 C.ar      1 FKE        -0.0601
     19 S1         -5.7770    1.0710   16.5720 S.o2      1 FKE         0.0677
     20 O1         -5.2030    1.2450   17.8730 O.2       1 FKE        -0.1499
     21 O2         -7.2040    1.0640   16.4530 O.2       1 FKE        -0.1499
     22 O3         -4.5250    5.9340   12.1200 O.2       1 FKE        -0.3845
     23 N2         -2.4350    5.6970   12.8980 N.am      1 FKE        -0.2721
     24 N1         -5.2380   -0.3210   15.9910 N.am      1 FKE        -0.2605
     25 H1         -7.0413    3.4242   15.5129 H         1 FKE         0.0649
     26 H2         -6.2112    5.1847   13.9995 H         1 FKE         0.0670
     27 H3         -2.3702    3.3100   13.9095 H         1 FKE         0.0670
     28 H4         -3.1902    1.5511   15.4279 H         1 FKE         0.0649
     29 H5         -0.8269    6.1323   11.6142 H         1 FKE         0.0523
     30 H6         -2.4599    6.3279   10.8918 H         1 FKE         0.0523
     31 H7         -2.8508    8.3298   12.2418 H         1 FKE         0.0309
     32 H8         -1.3347    8.5026   11.2941 H         1 FKE         0.0309
     33 H9         -0.0031    7.9022   13.2764 H         1 FKE         0.0462
     34 H10        -2.7141    7.7557   14.6866 H         1 FKE         0.0309
     35 H11        -1.1029    7.5315   15.4485 H         1 FKE         0.0309
     36 H12        -2.2233    5.3743   14.9643 H         1 FKE         0.0523
     37 H13        -0.6855    5.5643   14.0557 H         1 FKE         0.0523
     38 H14        -2.7416   10.2009   12.5607 H         1 FKE         0.0557
     39 H15        -2.6595   12.6090   13.0529 H         1 FKE         0.0599
     40 H16        -0.9124   13.5131   14.5358 H         1 FKE         0.0559
     41 H17         0.7503   11.9932   15.5370 H         1 FKE         0.0599
     42 H18         0.6749    9.5828   15.0467 H         1 FKE         0.0557
     43 H19        -5.4835   -1.1794   16.4414 H         1 FKE         0.1635
     44 H20        -4.6560   -0.3316   15.1778 H         1 FKE         0.1635
@<TRIPOS>BOND
     1    2    1 ar 
     2    6    1 ar 
     3    1   19 1  
     4    3    2 ar 
     5    4    3 ar 
     6    4    5 ar 
     7    7    4 1  
     8    5    6 ar 
     9    7   22 2  
    10   23    7 am 
    11    8    9 1  
    12    8   23 1  
    13    9   10 1  
    14   10   11 1  
    15   10   13 1  
    16   11   12 1  
    17   12   23 1  
    18   13   14 ar 
    19   13   18 ar 
    20   14   15 ar 
    21   15   16 ar 
    22   16   17 ar 
    23   17   18 ar 
    24   19   20 2  
    25   19   21 2  
    26   19   24 am 
    27    2   25 1  
    28    3   26 1  
    29    5   27 1  
    30    6   28 1  
    31    8   29 1  
    32    8   30 1  
    33    9   31 1  
    34    9   32 1  
    35   10   33 1  
    36   11   34 1  
    37   11   35 1  
    38   12   36 1  
    39   12   37 1  
    40   14   38 1  
    41   15   39 1  
    42   16   40 1  
    43   17   41 1  
    44   18   42 1  
    45   24   43 1  
    46   24   44 1  
@<TRIPOS>SUBSTRUCTURE
     1 FKE         1

