### 
### Created by X-TOOL on Wed Jan  1 15:39:35 2020
### 

@<TRIPOS>MOLECULE
6h33_ligand
   45    47     1     0     0
SMALL
GAST_HUCK


@<TRIPOS>ATOM
      1 C3         -5.5850    4.3590   14.3100 C.ar      1 FKQ        -0.0401
      2 C2         -6.0600    3.3820   15.1690 C.ar      1 FKQ        -0.0295
      3 C1         -5.2090    2.3720   15.5920 C.ar      1 FKQ         0.1122
      4 S1         -5.8190    1.0940   16.6550 S.o2      1 FKQ         0.0677
      5 O1         -5.1920    1.2740   17.9320 O.2       1 FKQ        -0.1499
      6 O2         -7.2480    1.1300   16.5910 O.2       1 FKQ        -0.1499
      7 C6         -3.8910    2.3420   15.1660 C.ar      1 FKQ        -0.0295
      8 C5         -3.4270    3.3230   14.3070 C.ar      1 FKQ        -0.0401
      9 C4         -4.2670    4.3400   13.8670 C.ar      1 FKQ         0.0501
     10 C7         -3.7710    5.3670   12.8930 C.2       1 FKQ         0.2074
     11 O3         -4.5370    5.8290   12.0650 O.2       1 FKQ        -0.3845
     12 N2         -2.4670    5.6890   12.9180 N.am      1 FKQ        -0.2737
     13 C12        -1.7780    5.9570   14.1900 C.3       1 FKQ         0.0286
     14 C11        -1.7530    7.4400   14.5170 C.3       1 FKQ        -0.0271
     15 C8         -1.8740    6.4560   11.8080 C.3       1 FKQ         0.0286
     16 C9         -1.8300    7.9480   12.1030 C.3       1 FKQ        -0.0271
     17 C10        -1.0780    8.2350   13.4020 C.3       1 FKQ         0.0601
     18 O4          0.2440    7.7200   13.2520 O.3       1 FKQ        -0.4230
     19 C13        -1.0390    9.7280   13.7180 C.ar      1 FKQ        -0.0218
     20 C14        -1.8390   10.6300   13.0270 C.ar      1 FKQ        -0.0371
     21 C15        -1.7480   11.9920   13.2660 C.ar      1 FKQ        -0.0323
     22 C16        -0.8570   12.4730   14.2030 C.ar      1 FKQ        -0.0340
     23 C17        -0.0580   11.5930   14.9010 C.ar      1 FKQ        -0.0323
     24 C18        -0.1490   10.2310   14.6610 C.ar      1 FKQ        -0.0371
     25 N1         -5.3410   -0.3210   16.0850 N.am      1 FKQ        -0.2605
     26 H1         -6.2493    5.1489   13.9786 H         1 FKQ         0.0670
     27 H2         -7.0893    3.4066   15.5082 H         1 FKQ         0.0649
     28 H3         -3.2269    1.5546   15.5036 H         1 FKQ         0.0649
     29 H4         -2.3960    3.2982   13.9731 H         1 FKQ         0.0670
     30 H5         -0.7432    5.5908   14.1184 H         1 FKQ         0.0515
     31 H6         -2.3008    5.4233   14.9974 H         1 FKQ         0.0515
     32 H7         -1.1977    7.5924   15.4542 H         1 FKQ         0.0217
     33 H8         -2.7856    7.7987   14.6401 H         1 FKQ         0.0217
     34 H9         -2.4753    6.2912   10.9018 H         1 FKQ         0.0515
     35 H10        -0.8481    6.0977   11.6375 H         1 FKQ         0.0515
     36 H11        -2.8591    8.3259   12.1937 H         1 FKQ         0.0217
     37 H12        -1.3222    8.4624   11.2739 H         1 FKQ         0.0217
     38 H13         0.2019    6.7847   13.0910 H         1 FKQ         0.1962
     39 H14        -2.5445   10.2629   12.2904 H         1 FKQ         0.0851
     40 H15        -2.3783   12.6810   12.7155 H         1 FKQ         0.0698
     41 H16        -0.7855   13.5384   14.3895 H         1 FKQ         0.0856
     42 H17         0.6427   11.9668   15.6388 H         1 FKQ         0.0698
     43 H18         0.4829    9.5476   15.2166 H         1 FKQ         0.0851
     44 H19        -5.5946   -1.1632   16.5608 H         1 FKQ         0.1635
     45 H20        -4.7884   -0.3639   15.2527 H         1 FKQ         0.1635
@<TRIPOS>BOND
     1    1    2 ar 
     2    1    9 ar 
     3    2    3 ar 
     4    3    4 1  
     5    3    7 ar 
     6    4    5 2  
     7    4    6 2  
     8    4   25 am 
     9    7    8 ar 
    10    8    9 ar 
    11    9   10 1  
    12   10   11 2  
    13   10   12 am 
    14   12   13 1  
    15   12   15 1  
    16   13   14 1  
    17   14   17 1  
    18   15   16 1  
    19   16   17 1  
    20   17   18 1  
    21   17   19 1  
    22   19   20 ar 
    23   19   24 ar 
    24   20   21 ar 
    25   21   22 ar 
    26   22   23 ar 
    27   23   24 ar 
    28    1   26 1  
    29    2   27 1  
    30    7   28 1  
    31    8   29 1  
    32   13   30 1  
    33   13   31 1  
    34   14   32 1  
    35   14   33 1  
    36   15   34 1  
    37   15   35 1  
    38   16   36 1  
    39   16   37 1  
    40   18   38 1  
    41   20   39 1  
    42   21   40 1  
    43   22   41 1  
    44   23   42 1  
    45   24   43 1  
    46   25   44 1  
    47   25   45 1  
@<TRIPOS>SUBSTRUCTURE
     1 FKQ         1

