### 
### Created by X-TOOL on Wed Jan  1 15:39:35 2020
### 

@<TRIPOS>MOLECULE
6h34_ligand
   47    49     1     0     0
SMALL
GAST_HUCK


@<TRIPOS>ATOM
      1 C1         -5.4890    2.3530   15.7160 C.ar      1 FKK         0.1122
      2 N2         -3.4340    5.8910   12.6870 N.am      1 FKK        -0.2622
      3 C2         -6.3680    3.4170   15.6130 C.ar      1 FKK        -0.0295
      4 O2         -5.2440    1.1900   18.0000 O.2       1 FKK        -0.1499
      5 N3         -0.7750    6.7190   12.0260 N.4       1 FKK         0.2495
      6 C3         -6.0750    4.4600   14.7600 C.ar      1 FKK        -0.0401
      7 O3         -5.6550    6.0450   12.4450 O.2       1 FKK        -0.3845
      8 S1         -5.9220    1.0000   16.7510 S.o2      1 FKK         0.0677
      9 O1         -7.3530    0.9300   16.7570 O.2       1 FKK        -0.1499
     10 C6         -4.3140    2.3320   14.9790 C.ar      1 FKK        -0.0295
     11 C5         -4.0300    3.3860   14.1250 C.ar      1 FKK        -0.0401
     12 C4         -4.9120    4.4570   14.0030 C.ar      1 FKK         0.0501
     13 C7         -4.6900    5.5310   12.9880 C.2       1 FKK         0.2078
     14 C11        -2.3470    5.7600   13.6560 C.3       1 FKK         0.0736
     15 C10        -1.0390    5.5830   12.9170 C.3       1 FKK        -0.0096
     16 C8         -3.1970    7.0710   11.8560 C.3       1 FKK         0.0736
     17 C9         -1.9010    6.8980   11.1030 C.3       1 FKK        -0.0096
     18 C12         0.4720    6.5140   11.2740 C.3       1 FKK         0.0003
     19 C13         1.7130    6.6520   12.1220 C.ar      1 FKK        -0.0024
     20 C14         2.5170    5.5530   12.3840 C.ar      1 FKK        -0.0570
     21 C15         3.6960    5.6830   13.0970 C.ar      1 FKK        -0.0347
     22 C16         4.0480    6.9280   13.5410 C.ar      1 FKK         0.1248
     23 F           5.2160    7.0690   14.2240 F         1 FKK        -0.1893
     24 C17         3.2840    8.0400   13.3150 C.ar      1 FKK        -0.0347
     25 C18         2.1100    7.8920   12.5990 C.ar      1 FKK        -0.0570
     26 N1         -5.3730   -0.3570   16.1020 N.am      1 FKK        -0.2605
     27 H1         -7.2801    3.4303   16.1986 H         1 FKK         0.0649
     28 H2         -0.6789    7.5519   12.5855 H         1 FKK         0.2049
     29 H3         -6.7628    5.2940   14.6796 H         1 FKK         0.0670
     30 H4         -3.6252    1.5000   15.0701 H         1 FKK         0.0649
     31 H5         -3.1131    3.3767   13.5468 H         1 FKK         0.0670
     32 H6         -2.5288    4.8844   14.2965 H         1 FKK         0.0575
     33 H7         -2.2980    6.6657   14.2783 H         1 FKK         0.0575
     34 H8         -0.2215    5.5032   13.6486 H         1 FKK         0.0835
     35 H9         -1.0869    4.6612   12.3187 H         1 FKK         0.0835
     36 H10        -3.1343    7.9641   12.4951 H         1 FKK         0.0575
     37 H11        -4.0245    7.1892   11.1410 H         1 FKK         0.0575
     38 H12        -1.9778    6.0133   10.4539 H         1 FKK         0.0835
     39 H13        -1.7218    7.7910   10.4862 H         1 FKK         0.0835
     40 H14         0.5179    7.2582   10.4653 H         1 FKK         0.0972
     41 H15         0.4561    5.5028   10.8414 H         1 FKK         0.0972
     42 H16         2.2169    4.5755   12.0242 H         1 FKK         0.0549
     43 H17         4.3232    4.8220   13.2980 H         1 FKK         0.0587
     44 H18         3.5905    9.0109   13.6870 H         1 FKK         0.0587
     45 H19         1.4897    8.7601   12.4075 H         1 FKK         0.0549
     46 H20        -5.5310   -1.2308   16.5618 H         1 FKK         0.1635
     47 H21        -4.8721   -0.3306   15.2369 H         1 FKK         0.1635
@<TRIPOS>BOND
     1    3    1 ar 
     2    1    8 1  
     3   10    1 ar 
     4    2   13 am 
     5   14    2 1  
     6    2   16 1  
     7    6    3 ar 
     8    8    4 2  
     9   15    5 1  
    10    5   17 1  
    11    5   18 1  
    12   12    6 ar 
    13   13    7 2  
    14    8    9 2  
    15    8   26 am 
    16   11   10 ar 
    17   12   11 ar 
    18   13   12 1  
    19   14   15 1  
    20   16   17 1  
    21   18   19 1  
    22   19   20 ar 
    23   19   25 ar 
    24   20   21 ar 
    25   21   22 ar 
    26   22   23 1  
    27   22   24 ar 
    28   24   25 ar 
    29    3   27 1  
    30    5   28 1  
    31    6   29 1  
    32   10   30 1  
    33   11   31 1  
    34   14   32 1  
    35   14   33 1  
    36   15   34 1  
    37   15   35 1  
    38   16   36 1  
    39   16   37 1  
    40   17   38 1  
    41   17   39 1  
    42   18   40 1  
    43   18   41 1  
    44   20   42 1  
    45   21   43 1  
    46   24   44 1  
    47   25   45 1  
    48   26   46 1  
    49   26   47 1  
@<TRIPOS>SUBSTRUCTURE
     1 FKK         1

