### 
### Created by X-TOOL on Wed Jan  1 15:39:37 2020
### 

@<TRIPOS>MOLECULE
6h36_ligand
   44    46     1     0     0
SMALL
GAST_HUCK


@<TRIPOS>ATOM
      1 C1         16.3760   26.4320    6.8610 C.ar      1 FKE         0.1122
      2 C2         16.6640   27.1440    5.7080 C.ar      1 FKE        -0.0295
      3 C3         16.9570   26.4640    4.5390 C.ar      1 FKE        -0.0401
      4 C4         16.9600   25.0750    4.5050 C.ar      1 FKE         0.0501
      5 C5         16.6630   24.3760    5.6710 C.ar      1 FKE        -0.0401
      6 C6         16.3720   25.0470    6.8480 C.ar      1 FKE        -0.0295
      7 C7         17.2560   24.3470    3.2290 C.2       1 FKE         0.2074
      8 C8         18.3180   22.4970    2.0540 C.3       1 FKE         0.0354
      9 C9         19.6980   22.9000    1.5590 C.3       1 FKE        -0.0199
     10 C10        20.7600   22.6450    2.6260 C.3       1 FKE        -0.0037
     11 C11        20.3510   23.4110    3.8810 C.3       1 FKE        -0.0199
     12 C12        18.9650   22.9960    4.3430 C.3       1 FKE         0.0354
     13 C13        22.1490   23.0570    2.1470 C.ar      1 FKE        -0.0398
     14 C14        22.4840   24.3970    1.9820 C.ar      1 FKE        -0.0601
     15 C15        23.7590   24.7660    1.5890 C.ar      1 FKE        -0.0686
     16 C16        24.7180   23.8020    1.3530 C.ar      1 FKE        -0.0687
     17 C17        24.4030   22.4690    1.5100 C.ar      1 FKE        -0.0686
     18 C18        23.1270   22.0990    1.9030 C.ar      1 FKE        -0.0601
     19 S1         16.0240   27.3030    8.3630 S.o2      1 FKE         0.0677
     20 O1         17.2590   27.8590    8.8270 O.2       1 FKE        -0.1499
     21 O2         14.9350   28.1920    8.0900 O.2       1 FKE        -0.1499
     22 O3         16.8140   24.7740    2.1750 O.2       1 FKE        -0.3845
     23 N2         17.9570   23.2040    3.2930 N.am      1 FKE        -0.2721
     24 N1         15.5260   26.2560    9.4690 N.am      1 FKE        -0.2605
     25 H1         16.6598   28.2279    5.7215 H         1 FKE         0.0649
     26 H2         17.1871   27.0219    3.6385 H         1 FKE         0.0670
     27 H3         16.6592   23.2921    5.6584 H         1 FKE         0.0670
     28 H4         16.1432   24.4926    7.7510 H         1 FKE         0.0649
     29 H5         18.3103   21.4140    2.2463 H         1 FKE         0.0523
     30 H6         17.5766   22.7369    1.2777 H         1 FKE         0.0523
     31 H7         19.6911   23.9708    1.3076 H         1 FKE         0.0309
     32 H8         19.9430   22.3140    0.6609 H         1 FKE         0.0309
     33 H9         20.7823   21.5696    2.8562 H         1 FKE         0.0462
     34 H10        20.3492   24.4886    3.6604 H         1 FKE         0.0309
     35 H11        21.0750   23.2020    4.6823 H         1 FKE         0.0309
     36 H12        18.6895   23.5930    5.2249 H         1 FKE         0.0523
     37 H13        18.9836   21.9299    4.6131 H         1 FKE         0.0523
     38 H14        21.7374   25.1617    2.1634 H         1 FKE         0.0557
     39 H15        24.0048   25.8146    1.4663 H         1 FKE         0.0599
     40 H16        25.7161   24.0921    1.0451 H         1 FKE         0.0559
     41 H17        25.1544   21.7097    1.3258 H         1 FKE         0.0599
     42 H18        22.8878   21.0484    2.0219 H         1 FKE         0.0557
     43 H19        15.2813   26.5746   10.3848 H         1 FKE         0.1635
     44 H20        15.4599   25.2840    9.2435 H         1 FKE         0.1635
@<TRIPOS>BOND
     1    2    1 ar 
     2    6    1 ar 
     3    1   19 1  
     4    3    2 ar 
     5    4    3 ar 
     6    4    5 ar 
     7    7    4 1  
     8    5    6 ar 
     9    7   22 2  
    10   23    7 am 
    11    8    9 1  
    12    8   23 1  
    13    9   10 1  
    14   10   11 1  
    15   10   13 1  
    16   11   12 1  
    17   12   23 1  
    18   13   14 ar 
    19   13   18 ar 
    20   14   15 ar 
    21   15   16 ar 
    22   16   17 ar 
    23   17   18 ar 
    24   19   20 2  
    25   19   21 2  
    26   19   24 am 
    27    2   25 1  
    28    3   26 1  
    29    5   27 1  
    30    6   28 1  
    31    8   29 1  
    32    8   30 1  
    33    9   31 1  
    34    9   32 1  
    35   10   33 1  
    36   11   34 1  
    37   11   35 1  
    38   12   36 1  
    39   12   37 1  
    40   14   38 1  
    41   15   39 1  
    42   16   40 1  
    43   17   41 1  
    44   18   42 1  
    45   24   43 1  
    46   24   44 1  
@<TRIPOS>SUBSTRUCTURE
     1 FKE         1

