### 
### Created by X-TOOL on Wed Jan  1 15:39:36 2020
### 

@<TRIPOS>MOLECULE
6h37_ligand
   45    47     1     0     0
SMALL
GAST_HUCK


@<TRIPOS>ATOM
      1 C3         16.6110   26.5880    4.5930 C.ar      1 FKQ        -0.0401
      2 C2         16.3370   27.2210    5.7930 C.ar      1 FKQ        -0.0295
      3 C1         15.9580   26.4680    6.8920 C.ar      1 FKQ         0.1122
      4 S1         15.6560   27.2710    8.4390 S.o2      1 FKQ         0.0677
      5 O1         16.9070   27.8030    8.8900 O.2       1 FKQ        -0.1499
      6 O2         14.5620   28.1750    8.2420 O.2       1 FKQ        -0.1499
      7 C6         15.8440   25.0900    6.7960 C.ar      1 FKQ        -0.0295
      8 C5         16.1190   24.4680    5.5900 C.ar      1 FKQ        -0.0401
      9 C4         16.5070   25.2070    4.4780 C.ar      1 FKQ         0.0501
     10 C7         16.7790   24.5320    3.1670 C.2       1 FKQ         0.2074
     11 O3         16.4150   25.0600    2.1310 O.2       1 FKQ        -0.3845
     12 N2         17.3750   23.3280    3.1780 N.am      1 FKQ        -0.2737
     13 C12        18.3640   22.9820    4.2090 C.3       1 FKQ         0.0286
     14 C11        19.7760   23.3360    3.7710 C.3       1 FKQ        -0.0271
     15 C8         17.6840   22.6580    1.9050 C.3       1 FKQ         0.0286
     16 C9         19.0800   23.0100    1.4160 C.3       1 FKQ        -0.0271
     17 C10        20.1400   22.6460    2.4560 C.3       1 FKQ         0.0601
     18 O4         20.0550   21.2390    2.6750 O.3       1 FKQ        -0.4230
     19 C13        21.5400   23.0350    1.9890 C.ar      1 FKQ        -0.0218
     20 C14        21.8740   24.3620    1.7490 C.ar      1 FKQ        -0.0371
     21 C15        23.1470   24.7120    1.3290 C.ar      1 FKQ        -0.0323
     22 C16        24.1070   23.7390    1.1430 C.ar      1 FKQ        -0.0340
     23 C17        23.7940   22.4170    1.3760 C.ar      1 FKQ        -0.0323
     24 C18        22.5210   22.0670    1.7960 C.ar      1 FKQ        -0.0371
     25 N1         15.1850   26.1740    9.5040 N.am      1 FKQ        -0.2605
     26 H1         16.9101   27.1762    3.7330 H         1 FKQ         0.0670
     27 H2         16.4185   28.2990    5.8722 H         1 FKQ         0.0649
     28 H3         15.5423   24.5047    7.6571 H         1 FKQ         0.0649
     29 H4         16.0306   23.3904    5.5117 H         1 FKQ         0.0670
     30 H5         18.3117   21.9010    4.4054 H         1 FKQ         0.0515
     31 H6         18.1272   23.5340    5.1305 H         1 FKQ         0.0515
     32 H7         20.4834   23.0170    4.5506 H         1 FKQ         0.0217
     33 H8         19.8465   24.4253    3.6353 H         1 FKQ         0.0217
     34 H9         16.9502   22.9721    1.1481 H         1 FKQ         0.0515
     35 H10        17.6194   21.5694    2.0488 H         1 FKQ         0.0515
     36 H11        19.1285   24.0909    1.2178 H         1 FKQ         0.0217
     37 H12        19.2845   22.4574    0.4872 H         1 FKQ         0.0217
     38 H13        20.7036   20.9801    3.3190 H         1 FKQ         0.1962
     39 H14        21.1276   25.1349    1.8925 H         1 FKQ         0.0851
     40 H15        23.3892   25.7527    1.1462 H         1 FKQ         0.0698
     41 H16        25.1032   24.0129    0.8150 H         1 FKQ         0.0856
     42 H17        24.5455   21.6495    1.2303 H         1 FKQ         0.0698
     43 H18        22.2858   21.0244    1.9768 H         1 FKQ         0.0851
     44 H19        14.9681   26.4477   10.4411 H         1 FKQ         0.1635
     45 H20        15.1075   25.2147    9.2326 H         1 FKQ         0.1635
@<TRIPOS>BOND
     1    1    2 ar 
     2    1    9 ar 
     3    2    3 ar 
     4    3    4 1  
     5    3    7 ar 
     6    4    5 2  
     7    4    6 2  
     8    4   25 am 
     9    7    8 ar 
    10    8    9 ar 
    11    9   10 1  
    12   10   11 2  
    13   10   12 am 
    14   12   13 1  
    15   12   15 1  
    16   13   14 1  
    17   14   17 1  
    18   15   16 1  
    19   16   17 1  
    20   17   18 1  
    21   17   19 1  
    22   19   20 ar 
    23   19   24 ar 
    24   20   21 ar 
    25   21   22 ar 
    26   22   23 ar 
    27   23   24 ar 
    28    1   26 1  
    29    2   27 1  
    30    7   28 1  
    31    8   29 1  
    32   13   30 1  
    33   13   31 1  
    34   14   32 1  
    35   14   33 1  
    36   15   34 1  
    37   15   35 1  
    38   16   36 1  
    39   16   37 1  
    40   18   38 1  
    41   20   39 1  
    42   21   40 1  
    43   22   41 1  
    44   23   42 1  
    45   24   43 1  
    46   25   44 1  
    47   25   45 1  
@<TRIPOS>SUBSTRUCTURE
     1 FKQ         1

