### 
### Created by X-TOOL on Wed Jan  1 15:39:36 2020
### 

@<TRIPOS>MOLECULE
6h38_ligand
   47    49     1     0     0
SMALL
GAST_HUCK


@<TRIPOS>ATOM
      1 C1         15.9810   26.6210    6.9270 C.ar      1 FKK         0.1122
      2 N2         17.7900   23.8910    2.9970 N.am      1 FKK        -0.2622
      3 C2         15.8700   27.3550    5.7580 C.ar      1 FKK        -0.0295
      4 O2         16.7210   27.9680    9.0000 O.2       1 FKK        -0.1499
      5 N3         19.9220   22.0220    2.5690 N.4       1 FKK         0.2495
      6 C3         16.1910   26.7660    4.5500 C.ar      1 FKK        -0.0401
      7 O3         16.0050   25.0210    2.2630 O.2       1 FKK        -0.3845
      8 S1         15.5330   27.3700    8.4650 S.o2      1 FKK         0.0677
      9 O1         14.4010   28.2110    8.2090 O.2       1 FKK        -0.1499
     10 C6         16.4190   25.3060    6.8930 C.ar      1 FKK        -0.0295
     11 C5         16.7350   24.7250    5.6750 C.ar      1 FKK        -0.0401
     12 C4         16.6180   25.4440    4.4900 C.ar      1 FKK         0.0501
     13 C7         16.7920   24.7760    3.1600 C.2       1 FKK         0.2078
     14 C11        18.9950   23.9300    3.8230 C.3       1 FKK         0.0736
     15 C10        19.5940   22.5420    3.9030 C.3       1 FKK        -0.0096
     16 C8         18.1480   23.4480    1.6500 C.3       1 FKK         0.0736
     17 C9         18.7290   22.0580    1.7170 C.3       1 FKK        -0.0096
     18 C12        20.4330   20.6470    2.6590 C.3       1 FKK         0.0003
     19 C13        21.8700   20.5660    3.1160 C.ar      1 FKK        -0.0024
     20 C14        22.8970   21.0490    2.3180 C.ar      1 FKK        -0.0570
     21 C15        24.2210   20.9070    2.6930 C.ar      1 FKK        -0.0347
     22 C16        24.4950   20.2780    3.8770 C.ar      1 FKK         0.1248
     23 F          25.7930   20.1310    4.2510 F         1 FKK        -0.1893
     24 C17        23.5180   19.7900    4.6990 C.ar      1 FKK        -0.0347
     25 C18        22.1990   19.9390    4.3090 C.ar      1 FKK        -0.0570
     26 N1         15.0670   26.2260    9.4860 N.am      1 FKK        -0.2605
     27 H1         15.5335   28.3849    5.7904 H         1 FKK         0.0649
     28 H2         20.6342   22.6058    2.1591 H         1 FKK         0.2049
     29 H3         16.1088   27.3428    3.6359 H         1 FKK         0.0670
     30 H4         16.5135   24.7373    7.8110 H         1 FKK         0.0649
     31 H5         17.0777   23.6970    5.6455 H         1 FKK         0.0670
     32 H6         18.7359   24.2768    4.8342 H         1 FKK         0.0575
     33 H7         19.7253   24.6197    3.3747 H         1 FKK         0.0575
     34 H8         20.5124   22.5829    4.5069 H         1 FKK         0.0835
     35 H9         18.8698   21.8668    4.3822 H         1 FKK         0.0835
     36 H10        18.8921   24.1364    1.2230 H         1 FKK         0.0575
     37 H11        17.2495   23.4398    1.0155 H         1 FKK         0.0575
     38 H12        17.9733   21.3728    2.1287 H         1 FKK         0.0835
     39 H13        19.0031   21.7345    0.7020 H         1 FKK         0.0835
     40 H14        20.3573   20.1818    1.6651 H         1 FKK         0.0972
     41 H15        19.8089   20.0898    3.3732 H         1 FKK         0.0972
     42 H16        22.6579   21.5461    1.3848 H         1 FKK         0.0549
     43 H17        25.0204   21.2841    2.0654 H         1 FKK         0.0587
     44 H18        23.7701   19.2991    5.6320 H         1 FKK         0.0587
     45 H19        21.4089   19.5592    4.9467 H         1 FKK         0.0549
     46 H20        14.7762   26.4698   10.4112 H         1 FKK         0.1635
     47 H21        15.0670   25.2684    9.1979 H         1 FKK         0.1635
@<TRIPOS>BOND
     1    3    1 ar 
     2    1    8 1  
     3   10    1 ar 
     4    2   13 am 
     5   14    2 1  
     6    2   16 1  
     7    6    3 ar 
     8    8    4 2  
     9   15    5 1  
    10    5   17 1  
    11    5   18 1  
    12   12    6 ar 
    13   13    7 2  
    14    8    9 2  
    15    8   26 am 
    16   11   10 ar 
    17   12   11 ar 
    18   13   12 1  
    19   14   15 1  
    20   16   17 1  
    21   18   19 1  
    22   19   20 ar 
    23   19   25 ar 
    24   20   21 ar 
    25   21   22 ar 
    26   22   23 1  
    27   22   24 ar 
    28   24   25 ar 
    29    3   27 1  
    30    5   28 1  
    31    6   29 1  
    32   10   30 1  
    33   11   31 1  
    34   14   32 1  
    35   14   33 1  
    36   15   34 1  
    37   15   35 1  
    38   16   36 1  
    39   16   37 1  
    40   17   38 1  
    41   17   39 1  
    42   18   40 1  
    43   18   41 1  
    44   20   42 1  
    45   21   43 1  
    46   24   44 1  
    47   25   45 1  
    48   26   46 1  
    49   26   47 1  
@<TRIPOS>SUBSTRUCTURE
     1 FKK         1

