### 
### Created by X-TOOL on Wed Jan  1 15:39:37 2020
### 

@<TRIPOS>MOLECULE
6h3k_ligand
   63    66     1     0     0
SMALL
GAST_HUCK


@<TRIPOS>ATOM
      1 C12         1.2960  -36.1020  -12.8470 C.ar      1 FMW         0.1356
      2 C13         1.7320  -38.5000  -13.5210 C.3       1 FMW         0.0342
      3 C8          0.8480  -33.7970  -12.1130 C.ar      1 FMW         0.0195
      4 C9          0.1990  -32.9820  -11.1480 C.ar      1 FMW         0.0324
      5 C10         1.6500  -33.3950  -13.2040 C.ar      1 FMW        -0.0407
      6 C11         2.1950  -34.3280  -14.0600 C.ar      1 FMW         0.0068
      7 C14         0.9120  -39.7700  -13.7480 C.3       1 FMW        -0.0172
      8 C15         0.5430  -40.4180  -12.4150 C.3       1 FMW        -0.0582
      9 N3          1.9400  -35.6450  -13.9300 N.ar      1 FMW        -0.2818
     10 C1         -1.9510  -38.3450   -7.0390 C.ar      1 FMW        -0.0261
     11 C2         -2.2620  -39.2690   -8.0360 C.ar      1 FMW         0.0126
     12 C3         -2.2860  -38.8630   -9.3720 C.ar      1 FMW        -0.0654
     13 C4         -2.0160  -37.5520   -9.7210 C.ar      1 FMW        -0.0405
     14 C7          0.6820  -35.1880  -11.8970 C.ar      1 FMW         0.0910
     15 N1         -0.0420  -35.6760  -10.8520 N.ar      1 FMW        -0.2551
     16 N2         -0.5140  -33.4350  -10.1400 N.ar      1 FMW        -0.2384
     17 C5         -1.7040  -36.6150   -8.7350 C.ar      1 FMW         0.1005
     18 C6         -0.6090  -34.7720  -10.0390 C.ar      1 FMW         0.2105
     19 C23        -1.6190  -34.7100   -4.5610 C.3       1 FMW        -0.0375
     20 C22        -2.1940  -35.8270   -5.3310 C.3       1 FMW         0.0653
     21 O          -1.3550  -36.0410   -6.4780 O.3       1 FMW        -0.3213
     22 C          -1.6780  -37.0270   -7.3780 C.ar      1 FMW         0.1198
     23 C19        -2.6270  -40.6510   -7.6700 C.2       1 FMW         0.1478
     24 N7         -3.5850  -40.9560   -6.8240 N.2       1 FMW        -0.2579
     25 N6         -3.6610  -42.3430   -6.7800 N.2       1 FMW        -0.2569
     26 C20        -2.7500  -42.8020   -7.5910 C.2       1 FMW         0.1184
     27 N5         -2.0600  -41.7950   -8.1820 N.pl3     1 FMW        -0.2215
     28 C21        -0.9600  -41.9600   -9.1320 C.3       1 FMW         0.0521
     29 N          -1.3930  -35.2750   -9.0410 N.pl3     1 FMW        -0.2425
     30 C18         3.0700  -33.9260  -15.2090 C.3       1 FMW        -0.0219
     31 N4          1.1620  -37.4910  -12.6450 N.pl3     1 FMW        -0.3012
     32 C17        -0.3670  -39.4360  -14.5080 C.3       1 FMW        -0.0582
     33 C16         1.7330  -40.7610  -14.5660 C.3       1 FMW        -0.0582
     34 H1          1.8960  -38.0318  -14.5027 H         1 FMW         0.0530
     35 H2          2.6991  -38.8023  -13.0927 H         1 FMW         0.0530
     36 H3          0.2986  -31.9074  -11.2497 H         1 FMW         0.0979
     37 H4          1.8391  -32.3406  -13.3701 H         1 FMW         0.0515
     38 H5         -0.0457  -41.3285  -12.6005 H         1 FMW         0.0236
     39 H6         -0.0519  -39.7124  -11.8165 H         1 FMW         0.0236
     40 H7          1.4608  -40.6798  -11.8681 H         1 FMW         0.0236
     41 H8         -1.9225  -38.6556   -6.0008 H         1 FMW         0.0536
     42 H9         -2.5194  -39.5851  -10.1461 H         1 FMW         0.0537
     43 H10        -2.0468  -37.2519  -10.7622 H         1 FMW         0.0518
     44 H11        -2.2393  -34.5192   -3.6729 H         1 FMW         0.0255
     45 H12        -1.5910  -33.8076   -5.1893 H         1 FMW         0.0255
     46 H13        -0.5975  -34.9693   -4.2459 H         1 FMW         0.0255
     47 H14        -3.2143  -35.5736   -5.6546 H         1 FMW         0.0606
     48 H15        -2.2209  -36.7353   -4.7112 H         1 FMW         0.0606
     49 H16        -2.5661  -43.8601   -7.7713 H         1 FMW         0.1305
     50 H17        -0.5935  -40.9709   -9.4439 H         1 FMW         0.0586
     51 H18        -1.3164  -42.5135  -10.0132 H         1 FMW         0.0586
     52 H19        -0.1429  -42.5195   -8.6533 H         1 FMW         0.0586
     53 H20        -1.8198  -34.5721   -8.4208 H         1 FMW         0.2166
     54 H21         3.3922  -34.8242  -15.7562 H         1 FMW         0.0406
     55 H22         3.9532  -33.3922  -14.8281 H         1 FMW         0.0406
     56 H23         2.5067  -33.2668  -15.8858 H         1 FMW         0.0406
     57 H24         0.6265  -37.8102  -11.8251 H         1 FMW         0.1851
     58 H25        -0.1103  -38.9685  -15.4701 H         1 FMW         0.0236
     59 H26        -0.9759  -38.7396  -13.9129 H         1 FMW         0.0236
     60 H27        -0.9374  -40.3589  -14.6894 H         1 FMW         0.0236
     61 H28         2.6578  -41.0067  -14.0235 H         1 FMW         0.0236
     62 H29         1.9862  -40.3130  -15.5382 H         1 FMW         0.0236
     63 H30         1.1473  -41.6782  -14.7263 H         1 FMW         0.0236
@<TRIPOS>BOND
     1    1    9 ar 
     2   14    1 ar 
     3    1   31 1  
     4    2    7 1  
     5   31    2 1  
     6    4    3 ar 
     7    3    5 ar 
     8   14    3 ar 
     9   16    4 ar 
    10    5    6 ar 
    11    9    6 ar 
    12    6   30 1  
    13    7    8 1  
    14    7   32 1  
    15    7   33 1  
    16   10   11 ar 
    17   22   10 ar 
    18   11   12 ar 
    19   11   23 1  
    20   13   12 ar 
    21   17   13 ar 
    22   15   14 ar 
    23   18   15 ar 
    24   18   16 ar 
    25   22   17 ar 
    26   17   29 1  
    27   29   18 1  
    28   20   19 1  
    29   21   20 1  
    30   21   22 1  
    31   23   24 2  
    32   23   27 1  
    33   24   25 1  
    34   25   26 2  
    35   26   27 1  
    36   27   28 1  
    37    2   34 1  
    38    2   35 1  
    39    4   36 1  
    40    5   37 1  
    41    8   38 1  
    42    8   39 1  
    43    8   40 1  
    44   10   41 1  
    45   12   42 1  
    46   13   43 1  
    47   19   44 1  
    48   19   45 1  
    49   19   46 1  
    50   20   47 1  
    51   20   48 1  
    52   26   49 1  
    53   28   50 1  
    54   28   51 1  
    55   28   52 1  
    56   29   53 1  
    57   30   54 1  
    58   30   55 1  
    59   30   56 1  
    60   31   57 1  
    61   32   58 1  
    62   32   59 1  
    63   32   60 1  
    64   33   61 1  
    65   33   62 1  
    66   33   63 1  
@<TRIPOS>SUBSTRUCTURE
     1 FMW         1

