### 
### Created by X-TOOL on Mon Aug  2 16:13:39 2021
### 

@<TRIPOS>MOLECULE
6h4a_ligand
   52    55     1     0     0
SMALL
GAST_HUCK


@<TRIPOS>ATOM
      1 C2        -24.9310  -17.4070   20.2030 C.2       1 FNB         0.1457
      2 C11       -28.2680  -16.0390   20.2810 C.3       1 FNB         0.1602
      3 C14       -26.2010  -13.1020   18.0760 C.2       1 FNB         0.3104
      4 C17       -26.6270  -10.9340   16.9360 C.ar      1 FNB         0.0895
      5 C18       -27.2580   -9.7150   17.1680 C.ar      1 FNB         0.0265
      6 C20       -26.5520   -8.9270   15.0280 C.ar      1 FNB         0.2070
      7 C21       -25.8570  -10.1170   14.7330 C.ar      1 FNB         0.0952
      8 C22       -25.8980  -11.1280   15.7260 C.ar      1 FNB        -0.0099
      9 C26       -27.2940   -6.7060   12.5240 C.2       1 FNB         0.0355
     10 C27       -26.6300   -5.8210   13.4870 C.2       1 FNB         0.0355
     11 C29       -28.3500  -14.3780   21.9900 C.3       1 FNB         0.0404
     12 C30       -29.0200  -16.6730   19.0690 C.3       1 FNB         0.0969
     13 N1        -26.2120  -17.1930   20.3200 N.pl3     1 FNB        -0.1425
     14 N3        -26.7820  -18.3770   20.5630 N.2       1 FNB        -0.2090
     15 C4        -25.9000  -19.2660   20.6360 C.2       1 FNB         0.0743
     16 C5        -24.5920  -18.6790   20.3950 C.2       1 FNB        -0.0338
     17 CL6       -26.2240  -20.9230   20.9530 Cl        1 FNB        -0.0731
     18 N7        -24.0490  -16.3370   19.8410 N.2       1 FNB        -0.2852
     19 C8        -24.5220  -15.2360   19.4410 C.2       1 FNB         0.0315
     20 C9        -26.0070  -15.0480   19.4990 C.2       1 FNB         0.1374
     21 C10       -26.7570  -16.0410   20.0550 C.2       1 FNB         0.1800
     22 N12       -26.5070  -13.8380   19.1520 N.am      1 FNB        -0.2192
     23 O13       -28.7740  -14.7340   20.6580 O.3       1 FNB        -0.3582
     24 N15       -26.7880  -11.8820   17.9910 N.am      1 FNB        -0.2120
     25 O16       -25.4330  -13.5230   17.2140 O.2       1 FNB        -0.3833
     26 N19       -27.2020   -8.7800   16.2140 N.ar      1 FNB        -0.2781
     27 CL2       -24.9210  -10.3420   13.2270 Cl        1 FNB        -0.0668
     28 N24       -26.6540   -7.8470   14.2160 N.pl3     1 FNB        -0.0715
     29 N25       -27.3130   -7.8660   13.0470 N.2       1 FNB        -0.1628
     30 N28       -26.2930   -6.5650   14.4590 N.2       1 FNB        -0.1628
     31 C31       -30.5360  -16.8830   19.3210 C.3       1 FNB        -0.0338
     32 O32       -28.7300  -15.8970   17.8930 O.3       1 FNB        -0.3748
     33 C33       -28.8750  -16.6760   16.6940 C.3       1 FNB         0.0372
     34 H1        -28.4564  -16.6982   21.1412 H         1 FNB         0.0862
     35 H2        -27.7816   -9.5286   18.0987 H         1 FNB         0.0690
     36 H3        -25.3687  -12.0599   15.5634 H         1 FNB         0.0613
     37 H4        -27.6932   -6.4250   11.5505 H         1 FNB         0.0729
     38 H5        -26.4613   -4.7496   13.3888 H         1 FNB         0.0729
     39 H6        -28.7478  -13.3855   22.2484 H         1 FNB         0.0526
     40 H7        -27.2510  -14.3546   22.0310 H         1 FNB         0.0526
     41 H8        -28.7279  -15.1223   22.7063 H         1 FNB         0.0526
     42 H9        -28.5940  -17.6746   18.9099 H         1 FNB         0.0649
     43 H10       -23.6098  -19.1489   20.3768 H         1 FNB         0.0187
     44 H11       -23.8705  -14.4482   19.0657 H         1 FNB         0.0912
     45 H12       -27.1859  -13.4475   19.7738 H         1 FNB         0.2172
     46 H13       -27.3940  -11.6207   18.7424 H         1 FNB         0.2269
     47 H14       -30.9974  -17.3310   18.4286 H         1 FNB         0.0257
     48 H15       -31.0105  -15.9132   19.5314 H         1 FNB         0.0257
     49 H16       -30.6752  -17.5538   20.1816 H         1 FNB         0.0257
     50 H17       -28.6454  -16.0493   15.8196 H         1 FNB         0.0524
     51 H18       -29.9085  -17.0452   16.6193 H         1 FNB         0.0524
     52 H19       -28.1820  -17.5297   16.7253 H         1 FNB         0.0524
@<TRIPOS>BOND
     1   13    1 1  
     2    1   16 2  
     3   18    1 1  
     4    2   12 1  
     5   21    2 1  
     6    2   23 1  
     7    3   22 am 
     8   24    3 am 
     9    3   25 2  
    10    5    4 ar 
    11    8    4 ar 
    12    4   24 1  
    13   26    5 ar 
    14    6    7 ar 
    15    6   26 ar 
    16   28    6 1  
    17    7    8 ar 
    18    7   27 1  
    19    9   10 1  
    20   29    9 2  
    21   10   30 2  
    22   23   11 1  
    23   12   31 1  
    24   12   32 1  
    25   13   14 1  
    26   21   13 1  
    27   14   15 2  
    28   15   16 1  
    29   15   17 1  
    30   19   18 2  
    31   20   19 1  
    32   20   21 2  
    33   22   20 am 
    34   28   29 1  
    35   28   30 1  
    36   32   33 1  
    37    2   34 1  
    38    5   35 1  
    39    8   36 1  
    40    9   37 1  
    41   10   38 1  
    42   11   39 1  
    43   11   40 1  
    44   11   41 1  
    45   12   42 1  
    46   16   43 1  
    47   19   44 1  
    48   22   45 1  
    49   24   46 1  
    50   31   47 1  
    51   31   48 1  
    52   31   49 1  
    53   33   50 1  
    54   33   51 1  
    55   33   52 1  
@<TRIPOS>SUBSTRUCTURE
     1 FNB         1

