### 
### Created by X-TOOL on Mon Aug  2 16:13:40 2021
### 

@<TRIPOS>MOLECULE
6h4o_ligand
   38    40     1     0     0
SMALL
GAST_HUCK


@<TRIPOS>ATOM
      1 N1          4.6320  -14.3430  -52.3520 N.pl3     1 FQH        -0.1561
      2 N3          5.6680  -13.3750  -54.1580 N.ar      1 FQH        -0.2697
      3 N4          5.8750  -16.8840  -53.0750 N.2       1 FQH        -0.2870
      4 O           8.9800  -16.8030  -55.6820 O.2       1 FQH        -0.3809
      5 C21         8.0110  -16.8030  -54.9390 C.2       1 FQH         0.2454
      6 C18         7.2380  -15.6070  -54.6310 C.ar      1 FQH         0.0795
      7 C17         7.4860  -14.4210  -55.3100 C.ar      1 FQH        -0.0297
      8 C16         6.6610  -13.3510  -55.0500 C.ar      1 FQH         0.0012
      9 N5          7.6120  -17.9180  -54.2990 N.am      1 FQH        -0.1966
     10 C20         6.5890  -17.9300  -53.4200 C.2       1 FQH         0.1280
     11 C19         6.2040  -15.6970  -53.6890 C.ar      1 FQH         0.0907
     12 C15         5.4850  -14.5010  -53.4670 C.ar      1 FQH         0.1980
     13 C13         4.2800  -15.2790  -51.4490 C.2       1 FQH         0.0638
     14 N2          4.1140  -13.1210  -52.0470 N.2       1 FQH        -0.2074
     15 C14         3.4450  -13.3240  -50.9300 C.2       1 FQH         0.0004
     16 C12         3.5070  -14.6590  -50.5040 C.2       1 FQH        -0.0239
     17 C11         2.8590  -15.2860  -49.2970 C.3       1 FQH         0.0077
     18 C10         3.4650  -14.8160  -47.9860 C.3       1 FQH        -0.0277
     19 N           2.6320  -15.1710  -46.8350 N.4       1 FQH         0.2318
     20 C9          2.9120  -16.5300  -46.3750 C.3       1 FQH        -0.0432
     21 C22         2.8430  -14.2430  -45.7250 C.3       1 FQH        -0.0432
     22 H1          8.3012  -14.3412  -56.0201 H         1 FQH         0.0671
     23 H2          6.8273  -12.4334  -55.6026 H         1 FQH         0.0739
     24 H3          8.0948  -18.7742  -54.4831 H         1 FQH         0.2564
     25 H4          6.3351  -18.8838  -52.9597 H         1 FQH         0.1519
     26 H5          4.5582  -16.3317  -51.4673 H         1 FQH         0.0886
     27 H6          2.9046  -12.5429  -50.3973 H         1 FQH         0.0642
     28 H7          2.9744  -16.3778  -49.3648 H         1 FQH         0.0408
     29 H8          1.7894  -15.0293  -49.3005 H         1 FQH         0.0408
     30 H9          3.5767  -13.7222  -48.0189 H         1 FQH         0.0830
     31 H10         4.4540  -15.2822  -47.8652 H         1 FQH         0.0830
     32 H11         1.6661  -15.1200  -47.1185 H         1 FQH         0.2029
     33 H12         2.2714  -16.7643  -45.5120 H         1 FQH         0.0777
     34 H13         3.9686  -16.6065  -46.0787 H         1 FQH         0.0777
     35 H14         2.7067  -17.2419  -47.1880 H         1 FQH         0.0777
     36 H15         2.6348  -13.2164  -46.0608 H         1 FQH         0.0777
     37 H16         3.8860  -14.3122  -45.3823 H         1 FQH         0.0777
     38 H17         2.1670  -14.5021  -44.8969 H         1 FQH         0.0777
@<TRIPOS>BOND
     1   12    1 1  
     2    1   13 1  
     3    1   14 1  
     4    8    2 ar 
     5    2   12 ar 
     6    3   10 2  
     7   11    3 1  
     8    5    4 2  
     9    6    5 1  
    10    5    9 am 
    11    7    6 ar 
    12    6   11 ar 
    13    7    8 ar 
    14    9   10 1  
    15   11   12 ar 
    16   13   16 2  
    17   14   15 2  
    18   15   16 1  
    19   16   17 1  
    20   17   18 1  
    21   18   19 1  
    22   19   20 1  
    23   19   21 1  
    24    7   22 1  
    25    8   23 1  
    26    9   24 1  
    27   10   25 1  
    28   13   26 1  
    29   15   27 1  
    30   17   28 1  
    31   17   29 1  
    32   18   30 1  
    33   18   31 1  
    34   19   32 1  
    35   20   33 1  
    36   20   34 1  
    37   20   35 1  
    38   21   36 1  
    39   21   37 1  
    40   21   38 1  
@<TRIPOS>SUBSTRUCTURE
     1 FQH         1

