### 
### Created by X-TOOL on Mon Aug  2 16:13:40 2021
### 

@<TRIPOS>MOLECULE
6h4p_ligand
   26    28     1     0     0
SMALL
GAST_HUCK


@<TRIPOS>ATOM
      1 N2          3.7060  -14.0210  -52.0170 N.2       1 FQ5        -0.2074
      2 C13         3.0200  -14.2080  -50.9040 C.2       1 FQ5        -0.0001
      3 C14         5.0410  -15.4350  -53.4350 C.ar      1 FQ5         0.1980
      4 C15         6.3650  -14.3730  -54.9480 C.ar      1 FQ5         0.0012
      5 O           8.3540  -18.0440  -55.5930 O.2       1 FQ5        -0.3809
      6 C20         7.3690  -17.9570  -54.8710 C.2       1 FQ5         0.2454
      7 C17         6.6920  -16.6960  -54.5780 C.ar      1 FQ5         0.0795
      8 C16         7.0710  -15.5240  -55.2260 C.ar      1 FQ5        -0.0297
      9 N3          5.3570  -14.3060  -54.0730 N.ar      1 FQ5        -0.2697
     10 N5          6.8610  -19.0390  -54.2450 N.am      1 FQ5        -0.1966
     11 C19         5.8160  -18.9680  -53.3920 C.2       1 FQ5         0.1280
     12 N4          5.1850  -17.8670  -53.0620 N.2       1 FQ5        -0.2870
     13 C18         5.6310  -16.7040  -53.6630 C.ar      1 FQ5         0.0907
     14 N1          4.1690  -15.2620  -52.3350 N.pl3     1 FQ5        -0.1561
     15 C12         3.7660  -16.1920  -51.4470 C.2       1 FQ5         0.0634
     16 C11         3.0210  -15.5560  -50.4920 C.2       1 FQ5        -0.0320
     17 C10         2.3770  -16.1820  -49.2820 C.3       1 FQ5        -0.0450
     18 H1          2.5108  -13.4103  -50.3651 H         1 FQ5         0.0642
     19 H2          6.6448  -13.4660  -55.4716 H         1 FQ5         0.0739
     20 H3          7.8967  -15.5165  -55.9283 H         1 FQ5         0.0671
     21 H4          7.2760  -19.9318  -54.4201 H         1 FQ5         0.2564
     22 H5          5.4705  -19.8981  -52.9432 H         1 FQ5         0.1519
     23 H6          3.9923  -17.2566  -51.4830 H         1 FQ5         0.0886
     24 H7          1.8468  -15.4083  -48.7073 H         1 FQ5         0.0320
     25 H8          3.1518  -16.6413  -48.6506 H         1 FQ5         0.0320
     26 H9          1.6622  -16.9533  -49.6048 H         1 FQ5         0.0320
@<TRIPOS>BOND
     1    1    2 2  
     2   14    1 1  
     3    2   16 1  
     4    9    3 ar 
     5    3   13 ar 
     6    3   14 1  
     7    8    4 ar 
     8    4    9 ar 
     9    6    5 2  
    10    7    6 1  
    11    6   10 am 
    12    7    8 ar 
    13    7   13 ar 
    14   10   11 1  
    15   11   12 2  
    16   12   13 1  
    17   14   15 1  
    18   15   16 2  
    19   16   17 1  
    20    2   18 1  
    21    4   19 1  
    22    8   20 1  
    23   10   21 1  
    24   11   22 1  
    25   15   23 1  
    26   17   24 1  
    27   17   25 1  
    28   17   26 1  
@<TRIPOS>SUBSTRUCTURE
     1 FQ5         1

