### 
### Created by X-TOOL on Mon Aug  2 16:13:40 2021
### 

@<TRIPOS>MOLECULE
6h4q_ligand
   42    45     1     0     0
SMALL
GAST_HUCK


@<TRIPOS>ATOM
      1 C1        -24.3140  -13.9320  -16.2360 C.ar      1 FO2         0.0012
      2 N1        -25.4790  -18.4850  -16.4380 N.am      1 FO2        -0.1966
      3 C2        -23.3220  -15.2830  -17.7700 C.ar      1 FO2         0.1980
      4 N2        -23.7800  -17.6830  -17.8160 N.2       1 FO2        -0.2870
      5 C3        -24.0380  -16.4290  -17.3580 C.ar      1 FO2         0.0907
      6 N3        -22.6240  -15.2840  -18.9940 N.pl3     1 FO2        -0.1561
      7 C4        -25.0110  -16.1840  -16.3830 C.ar      1 FO2         0.0795
      8 N4        -21.7910  -14.2490  -19.2830 N.2       1 FO2        -0.2074
      9 C5        -25.8160  -17.3020  -15.9220 C.2       1 FO2         0.2454
     10 C6        -24.4970  -18.6360  -17.3300 C.2       1 FO2         0.1280
     11 C7        -21.4380  -14.4590  -20.5350 C.2       1 FO2         0.0004
     12 C8        -22.0160  -15.6070  -21.0670 C.2       1 FO2        -0.0255
     13 C9        -22.7630  -16.1180  -20.0360 C.2       1 FO2         0.0639
     14 C10       -21.8430  -16.0950  -22.4750 C.3       1 FO2        -0.0113
     15 C11       -22.4640  -15.1550  -23.5010 C.3       1 FO2        -0.0046
     16 O         -26.7920  -17.1800  -15.2100 O.2       1 FO2        -0.3809
     17 C         -25.1610  -14.9260  -15.8200 C.ar      1 FO2        -0.0297
     18 N         -23.4050  -14.0750  -17.2030 N.ar      1 FO2        -0.2697
     19 C14       -20.3760  -16.3130  -22.8250 C.3       1 FO2        -0.0046
     20 C13       -20.2690  -16.8460  -24.2430 C.3       1 FO2        -0.0308
     21 N5        -20.8530  -15.9140  -25.2010 N.4       1 FO2         0.2332
     22 C15       -20.6750  -16.3980  -26.5640 C.3       1 FO2        -0.0431
     23 C12       -22.2690  -15.7310  -24.8990 C.3       1 FO2        -0.0308
     24 H1        -24.3870  -12.9668  -15.7479 H         1 FO2         0.0739
     25 H2        -25.9849  -19.2957  -16.1433 H         1 FO2         0.2564
     26 H3        -24.2852  -19.6471  -17.6745 H         1 FO2         0.1519
     27 H4        -20.7677  -13.8059  -21.0918 H         1 FO2         0.0642
     28 H5        -23.3576  -17.0300  -20.0589 H         1 FO2         0.0886
     29 H6        -22.3578  -17.0641  -22.5506 H         1 FO2         0.0394
     30 H7        -21.9773  -14.1705  -23.4386 H         1 FO2         0.0334
     31 H8        -23.5392  -15.0463  -23.2956 H         1 FO2         0.0334
     32 H9        -25.9241  -14.7346  -15.0743 H         1 FO2         0.0671
     33 H10       -19.9360  -17.0394  -22.1259 H         1 FO2         0.0334
     34 H11       -19.8351  -15.3581  -22.7502 H         1 FO2         0.0334
     35 H12       -20.8011  -17.8066  -24.3066 H         1 FO2         0.0815
     36 H13       -19.2080  -16.9974  -24.4906 H         1 FO2         0.0815
     37 H14       -20.3859  -15.0250  -25.1140 H         1 FO2         0.2030
     38 H15       -21.1219  -15.6814  -27.2688 H         1 FO2         0.0777
     39 H16       -21.1676  -17.3755  -26.6733 H         1 FO2         0.0777
     40 H17       -19.6012  -16.5024  -26.7788 H         1 FO2         0.0777
     41 H18       -22.7068  -15.0413  -25.6356 H         1 FO2         0.0815
     42 H19       -22.7777  -16.7044  -24.9603 H         1 FO2         0.0815
@<TRIPOS>BOND
     1    1   17 ar 
     2   18    1 ar 
     3    2    9 am 
     4   10    2 1  
     5    5    3 ar 
     6    3    6 1  
     7    3   18 ar 
     8    4    5 1  
     9    4   10 2  
    10    5    7 ar 
    11    6    8 1  
    12    6   13 1  
    13    7    9 1  
    14    7   17 ar 
    15    8   11 2  
    16    9   16 2  
    17   11   12 1  
    18   12   13 2  
    19   12   14 1  
    20   14   15 1  
    21   14   19 1  
    22   15   23 1  
    23   19   20 1  
    24   20   21 1  
    25   21   22 1  
    26   21   23 1  
    27    1   24 1  
    28    2   25 1  
    29   10   26 1  
    30   11   27 1  
    31   13   28 1  
    32   14   29 1  
    33   15   30 1  
    34   15   31 1  
    35   17   32 1  
    36   19   33 1  
    37   19   34 1  
    38   20   35 1  
    39   20   36 1  
    40   21   37 1  
    41   22   38 1  
    42   22   39 1  
    43   22   40 1  
    44   23   41 1  
    45   23   42 1  
@<TRIPOS>SUBSTRUCTURE
     1 FO2         1

