### 
### Created by X-TOOL on Mon Aug  2 16:13:40 2021
### 

@<TRIPOS>MOLECULE
6h4r_ligand
   38    40     1     0     0
SMALL
GAST_HUCK


@<TRIPOS>ATOM
      1 C14       -20.5150  -15.4070  -21.2850 C.3       1 FQB         0.0077
      2 C15       -21.0050  -14.7670  -20.0120 C.2       1 FQB        -0.0239
      3 C18       -22.7430  -14.5400  -16.8990 C.ar      1 FQB         0.1980
      4 C19       -23.8310  -13.3700  -15.2730 C.ar      1 FQB         0.0012
      5 C20       -24.6140  -14.4490  -14.9310 C.ar      1 FQB        -0.0297
      6 C21       -24.3940  -15.6470  -15.6000 C.ar      1 FQB         0.0795
      7 C22       -23.4230  -15.7450  -16.6050 C.ar      1 FQB         0.0907
      8 C24       -25.1300  -16.8510  -15.2250 C.2       1 FQB         0.2454
      9 C25       -20.1390  -14.4780  -24.7890 C.3       1 FQB        -0.0432
     10 O         -26.0830  -16.8480  -14.4600 O.2       1 FQB        -0.3809
     11 N4        -22.9010  -13.3940  -16.2340 N.ar      1 FQB        -0.2697
     12 N6        -24.7490  -17.9710  -15.8560 N.am      1 FQB        -0.1966
     13 C23       -23.7830  -17.9860  -16.7980 C.2       1 FQB         0.1280
     14 N5        -23.1180  -16.9390  -17.2130 N.2       1 FQB        -0.2870
     15 N2        -21.9570  -14.4280  -18.0700 N.pl3     1 FQB        -0.1561
     16 C16       -21.7430  -15.3580  -19.0210 C.2       1 FQB         0.0638
     17 N3        -21.3780  -13.2370  -18.3860 N.2       1 FQB        -0.2074
     18 C17       -20.8130  -13.4530  -19.5570 C.2       1 FQB         0.0004
     19 C13       -21.0130  -14.7070  -22.5400 C.3       1 FQB        -0.0277
     20 N1        -20.6610  -15.4050  -23.7830 N.4       1 FQB         0.2318
     21 C12       -19.6700  -16.4560  -23.5510 C.3       1 FQB        -0.0432
     22 H1        -20.8611  -16.4509  -21.3068 H         1 FQB         0.0408
     23 H2        -19.4152  -15.3852  -21.2861 H         1 FQB         0.0408
     24 H3        -23.9771  -12.4433  -14.7299 H         1 FQB         0.0739
     25 H4        -25.3769  -14.3671  -14.1653 H         1 FQB         0.0671
     26 H5        -19.8866  -15.0340  -25.7040 H         1 FQB         0.0777
     27 H6        -19.2366  -13.9841  -24.3994 H         1 FQB         0.0777
     28 H7        -20.9016  -13.7195  -25.0195 H         1 FQB         0.0777
     29 H8        -25.1997  -18.8315  -15.6185 H         1 FQB         0.2564
     30 H9        -23.5375  -18.9465  -17.2487 H         1 FQB         0.1519
     31 H10       -22.0923  -16.3893  -19.0048 H         1 FQB         0.0886
     32 H11       -20.2588  -12.6962  -20.1101 H         1 FQB         0.0642
     33 H12       -20.5755  -13.6983  -22.5721 H         1 FQB         0.0830
     34 H13       -22.1088  -14.6298  -22.4832 H         1 FQB         0.0830
     35 H14       -21.4987  -15.8318  -24.1464 H         1 FQB         0.2029
     36 H15       -19.4335  -16.9536  -24.5031 H         1 FQB         0.0777
     37 H16       -20.0763  -17.1933  -22.8430 H         1 FQB         0.0777
     38 H17       -18.7550  -16.0114  -23.1326 H         1 FQB         0.0777
@<TRIPOS>BOND
     1    1    2 1  
     2   19    1 1  
     3    2   16 2  
     4    2   18 1  
     5    3    7 ar 
     6    3   11 ar 
     7   15    3 1  
     8    4    5 ar 
     9   11    4 ar 
    10    6    5 ar 
    11    7    6 ar 
    12    6    8 1  
    13    7   14 1  
    14    8   10 2  
    15    8   12 am 
    16   20    9 1  
    17   13   12 1  
    18   14   13 2  
    19   16   15 1  
    20   17   15 1  
    21   18   17 2  
    22   19   20 1  
    23   20   21 1  
    24    1   22 1  
    25    1   23 1  
    26    4   24 1  
    27    5   25 1  
    28    9   26 1  
    29    9   27 1  
    30    9   28 1  
    31   12   29 1  
    32   13   30 1  
    33   16   31 1  
    34   18   32 1  
    35   19   33 1  
    36   19   34 1  
    37   20   35 1  
    38   21   36 1  
    39   21   37 1  
    40   21   38 1  
@<TRIPOS>SUBSTRUCTURE
     1 FQB         1

