### 
### Created by X-TOOL on Mon Aug  2 16:13:40 2021
### 

@<TRIPOS>MOLECULE
6h4s_ligand
   45    48     1     0     0
SMALL
GAST_HUCK


@<TRIPOS>ATOM
      1 N6          7.2580  -18.6470  -54.5610 N.am      1 FQE        -0.1966
      2 C10         2.6670  -17.3870  -44.5150 C.3       1 FQE        -0.0434
      3 C11         1.9780  -17.8950  -45.7780 C.3       1 FQE        -0.0123
      4 C12         2.7880  -17.5460  -47.0190 C.3       1 FQE        -0.0318
      5 C14         2.6830  -15.8200  -49.5700 C.3       1 FQE         0.0077
      6 C15         3.2720  -15.2510  -50.8340 C.2       1 FQE        -0.0239
      7 C16         4.0160  -15.9140  -51.7660 C.2       1 FQE         0.0638
      8 C20         7.1180  -15.2250  -55.7410 C.ar      1 FQE        -0.0297
      9 C21         6.8680  -16.3780  -55.0120 C.ar      1 FQE         0.0795
     10 C22         5.8520  -16.4280  -54.0490 C.ar      1 FQE         0.0907
     11 C23         6.2590  -18.6210  -53.6710 C.2       1 FQE         0.1280
     12 C24         7.6370  -17.5830  -55.2640 C.2       1 FQE         0.2454
     13 C25         3.7480  -15.6480  -45.9720 C.3       1 FQE        -0.0318
     14 O           8.5890  -17.6270  -56.0250 O.2       1 FQE        -0.3809
     15 C19         6.3070  -14.1450  -55.5050 C.ar      1 FQE         0.0012
     16 N4          5.3260  -14.1320  -54.5980 N.ar      1 FQE        -0.2697
     17 N5          5.5490  -17.5770  -53.3730 N.2       1 FQE        -0.2870
     18 C18         5.1460  -15.2270  -53.8660 C.ar      1 FQE         0.1980
     19 N2          4.3200  -15.0340  -52.7370 N.pl3     1 FQE        -0.1561
     20 N3          3.7940  -13.8030  -52.4890 N.2       1 FQE        -0.2074
     21 C17         3.1720  -13.9470  -51.3350 C.2       1 FQE         0.0004
     22 C13         3.6260  -15.7360  -48.3850 C.3       1 FQE        -0.0272
     23 N1          2.9820  -16.1050  -47.1250 N.4       1 FQE         0.2361
     24 C26         2.9840  -15.9030  -44.6770 C.3       1 FQE        -0.0123
     25 H1          7.7438  -19.5091  -54.7048 H         1 FQE         0.2564
     26 H2          3.6002  -17.9469  -44.3547 H         1 FQE         0.0269
     27 H3          2.0014  -17.5285  -43.6508 H         1 FQE         0.0269
     28 H4          0.9831  -17.4324  -45.8560 H         1 FQE         0.0317
     29 H5          1.8703  -18.9878  -45.7143 H         1 FQE         0.0317
     30 H6          2.2528  -17.9039  -47.9109 H         1 FQE         0.0814
     31 H7          3.7699  -18.0381  -46.9584 H         1 FQE         0.0814
     32 H8          2.4334  -16.8770  -49.7447 H         1 FQE         0.0408
     33 H9          1.7664  -15.2618  -49.3284 H         1 FQE         0.0408
     34 H10         4.3095  -16.9621  -51.7304 H         1 FQE         0.0886
     35 H11         7.9214  -15.1795  -56.4674 H         1 FQE         0.0671
     36 H12         6.0231  -19.5508  -53.1555 H         1 FQE         0.1519
     37 H13         3.9394  -14.5693  -46.0710 H         1 FQE         0.0814
     38 H14         4.7053  -16.1887  -45.9380 H         1 FQE         0.0814
     39 H15         6.4717  -13.2472  -56.0897 H         1 FQE         0.0739
     40 H16         2.6405  -13.1426  -50.8287 H         1 FQE         0.0642
     41 H17         3.9960  -14.7035  -48.3020 H         1 FQE         0.0830
     42 H18         4.4727  -16.4160  -48.5599 H         1 FQE         0.0830
     43 H19         2.0775  -15.6608  -47.1008 H         1 FQE         0.2034
     44 H20         3.5966  -15.5706  -43.8260 H         1 FQE         0.0317
     45 H21         2.0430  -15.3337  -44.6960 H         1 FQE         0.0317
@<TRIPOS>BOND
     1   11    1 1  
     2   12    1 am 
     3    3    2 1  
     4   24    2 1  
     5    4    3 1  
     6   23    4 1  
     7    5    6 1  
     8   22    5 1  
     9    6    7 2  
    10    6   21 1  
    11    7   19 1  
    12    9    8 ar 
    13   15    8 ar 
    14   10    9 ar 
    15    9   12 1  
    16   10   17 1  
    17   18   10 ar 
    18   17   11 2  
    19   12   14 2  
    20   23   13 1  
    21   13   24 1  
    22   16   15 ar 
    23   18   16 ar 
    24   19   18 1  
    25   20   19 1  
    26   21   20 2  
    27   22   23 1  
    28    1   25 1  
    29    2   26 1  
    30    2   27 1  
    31    3   28 1  
    32    3   29 1  
    33    4   30 1  
    34    4   31 1  
    35    5   32 1  
    36    5   33 1  
    37    7   34 1  
    38    8   35 1  
    39   11   36 1  
    40   13   37 1  
    41   13   38 1  
    42   15   39 1  
    43   21   40 1  
    44   22   41 1  
    45   22   42 1  
    46   23   43 1  
    47   24   44 1  
    48   24   45 1  
@<TRIPOS>SUBSTRUCTURE
     1 FQE         1

