### 
### Created by X-TOOL on Mon Aug  2 16:13:40 2021
### 

@<TRIPOS>MOLECULE
6h4t_ligand
   59    64     1     0     0
SMALL
GAST_HUCK


@<TRIPOS>ATOM
      1 N6        -24.7320  -18.6060  -15.9320 N.am      1 FOW        -0.1966
      2 C10       -19.8160  -17.3860  -25.8860 C.3       1 FOW        -0.0298
      3 C11       -20.6350  -16.0920  -25.7420 C.3       1 FOW        -0.0334
      4 C12       -21.2880  -15.9810  -24.3790 C.3       1 FOW        -0.0397
      5 C14       -19.9730  -15.8550  -20.8350 C.3       1 FOW         0.0077
      6 C15       -20.5950  -15.2660  -19.5960 C.2       1 FOW        -0.0239
      7 C16       -21.3700  -15.9120  -18.6790 C.2       1 FOW         0.0638
      8 C20       -24.5860  -15.1700  -14.7680 C.ar      1 FOW        -0.0297
      9 C21       -24.3520  -16.3230  -15.5060 C.ar      1 FOW         0.0795
     10 C22       -23.3400  -16.3800  -16.4740 C.ar      1 FOW         0.0907
     11 C23       -23.7350  -18.5820  -16.8220 C.2       1 FOW         0.1280
     12 C24       -25.1150  -17.5260  -15.2380 C.2       1 FOW         0.2454
     13 C25       -19.5990  -17.3230  -23.3590 C.3       1 FOW        -0.0397
     14 O         -26.0600  -17.5660  -14.4640 O.2       1 FOW        -0.3809
     15 C19       -23.7660  -14.0950  -15.0080 C.ar      1 FOW         0.0012
     16 N4        -22.7940  -14.0870  -15.9240 N.ar      1 FOW        -0.2697
     17 N5        -23.0350  -17.5340  -17.1360 N.2       1 FOW        -0.2870
     18 C18       -22.6190  -15.1820  -16.6600 C.ar      1 FOW         0.1980
     19 N2        -21.7540  -15.0030  -17.7640 N.pl3     1 FOW        -0.1561
     20 N3        -21.2490  -13.7680  -18.0340 N.2       1 FOW        -0.2074
     21 C17       -20.5540  -13.9420  -19.1420 C.2       1 FOW         0.0004
     22 C13       -20.9300  -15.8300  -22.0130 C.3       1 FOW        -0.0272
     23 N1        -20.2920  -16.0330  -23.3130 N.4       1 FOW         0.2350
     24 C26       -18.8720  -17.5090  -24.6770 C.3       1 FOW        -0.0334
     25 C1        -20.7200  -18.6200  -25.9940 C.3       1 FOW        -0.0592
     26 C2        -19.0620  -17.4380  -27.1990 C.ar      1 FOW        -0.0450
     27 C4        -19.1960  -18.6730  -27.8110 C.ar      1 FOW        -0.0175
     28 C5        -20.0890  -19.5720  -27.0050 C.3       1 FOW        -0.0115
     29 C3        -18.3000  -16.4420  -27.7900 C.ar      1 FOW        -0.0458
     30 C6        -18.5510  -18.9120  -29.0170 C.ar      1 FOW        -0.0295
     31 C8        -17.7880  -17.9210  -29.6040 C.ar      1 FOW        -0.0406
     32 C9        -17.6650  -16.6920  -28.9940 C.ar      1 FOW        -0.0395
     33 H1        -25.2135  -19.4687  -15.7773 H         1 FOW         0.2564
     34 H2        -21.4192  -16.0806  -26.5132 H         1 FOW         0.0215
     35 H3        -19.9662  -15.2307  -25.8863 H         1 FOW         0.0215
     36 H4        -21.9953  -16.8136  -24.2506 H         1 FOW         0.0806
     37 H5        -21.8306  -15.0261  -24.3173 H         1 FOW         0.0806
     38 H6        -19.6886  -16.8975  -20.6295 H         1 FOW         0.0408
     39 H7        -19.0753  -15.2741  -21.0933 H         1 FOW         0.0408
     40 H8        -21.6304  -16.9694  -18.6858 H         1 FOW         0.0886
     41 H9        -25.3820  -15.1208  -14.0338 H         1 FOW         0.0671
     42 H10       -23.4899  -19.5166  -17.3244 H         1 FOW         0.1519
     43 H11       -20.3361  -18.1306  -23.2389 H         1 FOW         0.0806
     44 H12       -18.8690  -17.3675  -22.5374 H         1 FOW         0.0806
     45 H13       -23.9168  -13.1982  -14.4180 H         1 FOW         0.0739
     46 H14       -20.0096  -13.1453  -19.6468 H         1 FOW         0.0642
     47 H15       -21.4344  -14.8525  -22.0261 H         1 FOW         0.0830
     48 H16       -21.6757  -16.6255  -21.8676 H         1 FOW         0.0830
     49 H17       -19.6186  -15.2973  -23.4590 H         1 FOW         0.2034
     50 H18       -18.0884  -16.7415  -24.7603 H         1 FOW         0.0215
     51 H19       -18.4102  -18.5073  -24.6886 H         1 FOW         0.0215
     52 H20       -21.7219  -18.3213  -26.3359 H         1 FOW         0.0196
     53 H21       -20.7988  -19.1133  -25.0140 H         1 FOW         0.0196
     54 H22       -20.8565  -20.0382  -27.6403 H         1 FOW         0.0496
     55 H23       -19.5064  -20.3557  -26.4987 H         1 FOW         0.0496
     56 H24       -18.2022  -15.4739  -27.3123 H         1 FOW         0.0817
     57 H25       -18.6463  -19.8782  -29.4991 H         1 FOW         0.0636
     58 H26       -17.2856  -18.1108  -30.5456 H         1 FOW         0.0834
     59 H27       -17.0676  -15.9165  -29.4596 H         1 FOW         0.0648
@<TRIPOS>BOND
     1   11    1 1  
     2   12    1 am 
     3    3    2 1  
     4   24    2 1  
     5    2   25 1  
     6    2   26 1  
     7    4    3 1  
     8   23    4 1  
     9    5    6 1  
    10   22    5 1  
    11    6    7 2  
    12    6   21 1  
    13    7   19 1  
    14    9    8 ar 
    15   15    8 ar 
    16   10    9 ar 
    17    9   12 1  
    18   10   17 1  
    19   18   10 ar 
    20   17   11 2  
    21   12   14 2  
    22   23   13 1  
    23   13   24 1  
    24   16   15 ar 
    25   18   16 ar 
    26   19   18 1  
    27   20   19 1  
    28   21   20 2  
    29   22   23 1  
    30   25   28 1  
    31   26   27 ar 
    32   26   29 ar 
    33   27   28 1  
    34   27   30 ar 
    35   29   32 ar 
    36   30   31 ar 
    37   31   32 ar 
    38    1   33 1  
    39    3   34 1  
    40    3   35 1  
    41    4   36 1  
    42    4   37 1  
    43    5   38 1  
    44    5   39 1  
    45    7   40 1  
    46    8   41 1  
    47   11   42 1  
    48   13   43 1  
    49   13   44 1  
    50   15   45 1  
    51   21   46 1  
    52   22   47 1  
    53   22   48 1  
    54   23   49 1  
    55   24   50 1  
    56   24   51 1  
    57   25   52 1  
    58   25   53 1  
    59   28   54 1  
    60   28   55 1  
    61   29   56 1  
    62   30   57 1  
    63   31   58 1  
    64   32   59 1  
@<TRIPOS>SUBSTRUCTURE
     1 FOW         1

