### 
### Created by X-TOOL on Mon Aug  2 16:13:41 2021
### 

@<TRIPOS>MOLECULE
6h4u_ligand
   42    45     1     0     0
SMALL
GAST_HUCK


@<TRIPOS>ATOM
      1 C1        -24.9600  -22.3480  -16.3970 C.ar      1 FO2         0.0012
      2 N1        -26.0820  -26.9150  -16.7170 N.am      1 FO2        -0.1966
      3 C2        -23.9610  -23.6320  -18.0110 C.ar      1 FO2         0.1980
      4 N2        -24.4320  -26.0350  -18.1540 N.2       1 FO2        -0.2870
      5 C3        -24.6780  -24.7980  -17.6130 C.ar      1 FO2         0.0907
      6 N3        -23.2440  -23.5630  -19.2300 N.pl3     1 FO2        -0.1561
      7 C4        -25.6180  -24.6080  -16.5920 C.ar      1 FO2         0.0795
      8 N4        -22.6040  -22.4080  -19.5670 N.2       1 FO2        -0.2074
      9 C5        -26.4000  -25.7550  -16.1430 C.2       1 FO2         0.2454
     10 C6        -25.1330  -27.0270  -17.6680 C.2       1 FO2         0.1280
     11 C7        -22.1260  -22.6440  -20.7740 C.2       1 FO2         0.0004
     12 C8        -22.4310  -23.9290  -21.2440 C.2       1 FO2        -0.0255
     13 C9        -23.1470  -24.4930  -20.2010 C.2       1 FO2         0.0639
     14 C10       -22.0700  -24.4570  -22.6080 C.3       1 FO2        -0.0113
     15 C11       -21.9930  -25.9830  -22.6730 C.3       1 FO2        -0.0046
     16 O         -27.3370  -25.6660  -15.3630 O.2       1 FO2        -0.3809
     17 C         -25.7740  -23.3730  -15.9770 C.ar      1 FO2        -0.0297
     18 N         -24.0700  -22.4580  -17.3860 N.ar      1 FO2        -0.2697
     19 C14       -23.0120  -23.9460  -23.6990 C.3       1 FO2        -0.0046
     20 C13       -22.5630  -24.4720  -25.0540 C.3       1 FO2        -0.0308
     21 N5        -22.5640  -25.9350  -25.0720 N.4       1 FO2         0.2332
     22 C15       -22.2260  -26.4340  -26.4080 C.3       1 FO2        -0.0431
     23 C12       -21.6020  -26.4210  -24.0810 C.3       1 FO2        -0.0308
     24 H1        -25.0460  -21.3915  -15.8942 H         1 FO2         0.0739
     25 H2        -26.5693  -27.7395  -16.4293 H         1 FO2         0.2564
     26 H3        -24.9341  -28.0222  -18.0630 H         1 FO2         0.1519
     27 H4        -21.5535  -21.9155  -21.3462 H         1 FO2         0.0642
     28 H5        -23.5561  -25.5018  -20.1710 H         1 FO2         0.0886
     29 H6        -21.0650  -24.0726  -22.8365 H         1 FO2         0.0394
     30 H7        -22.9742  -26.4094  -22.4172 H         1 FO2         0.0334
     31 H8        -21.2393  -26.3415  -21.9565 H         1 FO2         0.0334
     32 H9        -26.5098  -23.2228  -15.1953 H         1 FO2         0.0671
     33 H10       -22.9955  -22.8462  -23.7103 H         1 FO2         0.0334
     34 H11       -24.0343  -24.2953  -23.4920 H         1 FO2         0.0334
     35 H12       -21.5453  -24.1099  -25.2618 H         1 FO2         0.0815
     36 H13       -23.2495  -24.1018  -25.8297 H         1 FO2         0.0815
     37 H14       -23.4839  -26.2662  -24.8268 H         1 FO2         0.2030
     38 H15       -22.2320  -27.5340  -26.4009 H         1 FO2         0.0777
     39 H16       -21.2257  -26.0747  -26.6914 H         1 FO2         0.0777
     40 H17       -22.9666  -26.0680  -27.1343 H         1 FO2         0.0777
     41 H18       -21.5712  -27.5199  -24.1196 H         1 FO2         0.0815
     42 H19       -20.6067  -26.0176  -24.3191 H         1 FO2         0.0815
@<TRIPOS>BOND
     1    1   17 ar 
     2   18    1 ar 
     3    2    9 am 
     4   10    2 1  
     5    5    3 ar 
     6    3    6 1  
     7    3   18 ar 
     8    4    5 1  
     9    4   10 2  
    10    5    7 ar 
    11    6    8 1  
    12    6   13 1  
    13    7    9 1  
    14    7   17 ar 
    15    8   11 2  
    16    9   16 2  
    17   11   12 1  
    18   12   13 2  
    19   12   14 1  
    20   14   15 1  
    21   14   19 1  
    22   15   23 1  
    23   19   20 1  
    24   20   21 1  
    25   21   22 1  
    26   21   23 1  
    27    1   24 1  
    28    2   25 1  
    29   10   26 1  
    30   11   27 1  
    31   13   28 1  
    32   14   29 1  
    33   15   30 1  
    34   15   31 1  
    35   17   32 1  
    36   19   33 1  
    37   19   34 1  
    38   20   35 1  
    39   20   36 1  
    40   21   37 1  
    41   22   38 1  
    42   22   39 1  
    43   22   40 1  
    44   23   41 1  
    45   23   42 1  
@<TRIPOS>SUBSTRUCTURE
     1 FO2         1

