### 
### Created by X-TOOL on Mon Aug  2 16:13:41 2021
### 

@<TRIPOS>MOLECULE
6h4v_ligand
   39    42     1     0     0
SMALL
GAST_HUCK


@<TRIPOS>ATOM
      1 C5          8.0570  -20.3730  -55.7580 C.2       1 FQN         0.2454
      2 C7          3.6930  -16.9710  -51.4800 C.2       1 FQN         0.0004
      3 C8          4.1190  -18.1900  -50.9170 C.2       1 FQN        -0.0255
      4 C3          6.3050  -19.2910  -54.4140 C.ar      1 FQN         0.0907
      5 N1          7.7370  -21.4860  -55.0660 N.am      1 FQN        -0.1966
      6 C6          6.7760  -21.5040  -54.1160 C.2       1 FQN         0.1280
      7 C11         2.5880  -19.4850  -49.3620 C.3       1 FQN        -0.0047
      8 C10         3.9200  -18.7600  -49.5430 C.3       1 FQN        -0.0113
      9 C9          4.8410  -18.7820  -51.9060 C.2       1 FQN         0.0639
     10 C14         4.1080  -17.7430  -48.4210 C.3       1 FQN        -0.0047
     11 O           8.9870  -20.3630  -56.5540 O.2       1 FQN        -0.3809
     12 C4          7.2640  -19.1920  -55.4300 C.ar      1 FQN         0.0795
     13 C           7.4150  -18.0180  -56.1580 C.ar      1 FQN        -0.0297
     14 N2          6.0610  -20.4700  -53.7470 N.2       1 FQN        -0.2870
     15 C2          5.5570  -18.1050  -54.1720 C.ar      1 FQN         0.1980
     16 N           5.6460  -16.9950  -54.9030 N.ar      1 FQN        -0.2697
     17 C1          6.5720  -16.9680  -55.8670 C.ar      1 FQN         0.0012
     18 N3          4.8490  -17.9460  -52.9600 N.pl3     1 FQN        -0.1561
     19 N4          4.1290  -16.8150  -52.7170 N.2       1 FQN        -0.2074
     20 C13         4.0270  -18.4640  -47.0850 C.3       1 FQN        -0.0323
     21 N5          2.7340  -19.1380  -46.9210 N.4       1 FQN         0.2271
     22 C12         2.5540  -20.1320  -47.9860 C.3       1 FQN        -0.0323
     23 H1          3.0761  -16.2422  -50.9564 H         1 FQN         0.0642
     24 H2          8.2312  -22.3325  -55.2642 H         1 FQN         0.2564
     25 H3          6.5805  -22.4525  -53.6180 H         1 FQN         0.1519
     26 H4          2.4827  -20.2599  -50.1356 H         1 FQN         0.0334
     27 H5          1.7618  -18.7642  -49.4501 H         1 FQN         0.0334
     28 H6          4.7085  -19.5164  -49.4162 H         1 FQN         0.0394
     29 H7          5.3249  -19.7562  -51.8541 H         1 FQN         0.0886
     30 H8          3.3174  -16.9802  -48.4775 H         1 FQN         0.0334
     31 H9          5.0913  -17.2601  -48.5211 H         1 FQN         0.0334
     32 H10         8.1714  -17.9312  -56.9296 H         1 FQN         0.0671
     33 H11         6.6653  -16.0632  -56.4566 H         1 FQN         0.0739
     34 H12         4.1548  -17.7317  -46.2742 H         1 FQN         0.0815
     35 H13         4.8308  -19.2131  -47.0327 H         1 FQN         0.0815
     36 H14         1.9927  -18.4568  -46.9701 H         1 FQN         0.2013
     37 H15         2.7080  -19.5990  -46.0250 H         1 FQN         0.2013
     38 H16         3.3613  -20.8763  -47.9207 H         1 FQN         0.0815
     39 H17         1.5833  -20.6309  -47.8492 H         1 FQN         0.0815
@<TRIPOS>BOND
     1    1    5 am 
     2    1   11 2  
     3   12    1 1  
     4    3    2 1  
     5    2   19 2  
     6    3    8 1  
     7    9    3 2  
     8    4   12 ar 
     9    4   14 1  
    10   15    4 ar 
    11    6    5 1  
    12   14    6 2  
    13    8    7 1  
    14    7   22 1  
    15    8   10 1  
    16   18    9 1  
    17   10   20 1  
    18   12   13 ar 
    19   13   17 ar 
    20   15   16 ar 
    21   15   18 1  
    22   16   17 ar 
    23   18   19 1  
    24   20   21 1  
    25   21   22 1  
    26    2   23 1  
    27    5   24 1  
    28    6   25 1  
    29    7   26 1  
    30    7   27 1  
    31    8   28 1  
    32    9   29 1  
    33   10   30 1  
    34   10   31 1  
    35   13   32 1  
    36   17   33 1  
    37   20   34 1  
    38   20   35 1  
    39   21   36 1  
    40   21   37 1  
    41   22   38 1  
    42   22   39 1  
@<TRIPOS>SUBSTRUCTURE
     1 FQN         1

