### 
### Created by X-TOOL on Mon Aug  2 16:13:41 2021
### 

@<TRIPOS>MOLECULE
6h4w_ligand
   51    54     1     0     0
SMALL
GAST_HUCK


@<TRIPOS>ATOM
      1 C1         81.4900  -16.2020   15.3150 C.ar      1 FQQ         0.0012
      2 C2         80.2440  -17.3100   16.9060 C.ar      1 FQQ         0.1980
      3 C3         80.9440  -18.5210   16.6290 C.ar      1 FQQ         0.0907
      4 C4         81.9660  -18.4970   15.6700 C.ar      1 FQQ         0.0795
      5 C5         82.6860  -19.7400   15.3480 C.2       1 FQQ         0.2454
      6 C6         81.2150  -20.7540   16.9570 C.2       1 FQQ         0.1280
      7 C7         78.0420  -16.1570   19.2740 C.2       1 FQQ         0.0004
      8 C8         78.2710  -17.4310   19.8320 C.2       1 FQQ        -0.0239
      9 C9         79.1300  -18.0280   18.9630 C.2       1 FQQ         0.0638
     10 C10        77.7320  -18.0170   21.1120 C.3       1 FQQ         0.0077
     11 C11        78.5470  -17.6320   22.3350 C.3       1 FQQ        -0.0272
     12 C12        77.4740  -19.4210   23.5440 C.3       1 FQQ        -0.0313
     13 C13        76.6750  -19.7870   24.7830 C.3       1 FQQ        -0.0072
     14 C17        76.5280  -19.6040   27.3090 C.3       1 FQQ        -0.0594
     15 C14        77.4250  -19.5000   26.0950 C.3       1 FQQ        -0.0253
     16 C23        78.5530  -20.5230   26.2590 C.3       1 FQQ        -0.0594
     17 C15        78.0480  -18.0960   26.0240 C.3       1 FQQ        -0.0072
     18 C16        78.7810  -17.8420   24.7200 C.3       1 FQQ        -0.0313
     19 N5         77.8960  -18.0230   23.5830 N.4       1 FQQ         0.2362
     20 N4         78.7140  -15.9750   18.1510 N.2       1 FQQ        -0.2074
     21 N3         79.3890  -17.1450   17.9790 N.pl3     1 FQQ        -0.1561
     22 N          80.5090  -16.1860   16.2280 N.ar      1 FQQ        -0.2697
     23 N2         80.5640  -19.6760   17.2800 N.2       1 FQQ        -0.2870
     24 N1         82.2150  -20.8150   16.0630 N.am      1 FQQ        -0.1966
     25 O          83.5900  -19.8000   14.5240 O.2       1 FQQ        -0.3809
     26 C          82.2500  -17.3100   15.0060 C.ar      1 FQQ        -0.0297
     27 H1         81.7002  -15.2810   14.7833 H         1 FQQ         0.0739
     28 H2         80.9264  -21.6809   17.4506 H         1 FQQ         0.1519
     29 H3         77.3866  -15.4088   19.7174 H         1 FQQ         0.0642
     30 H4         79.5345  -19.0356   19.0471 H         1 FQQ         0.0886
     31 H5         77.7325  -19.1133   21.0223 H         1 FQQ         0.0408
     32 H6         76.7007  -17.6611   21.2527 H         1 FQQ         0.0408
     33 H7         78.6879  -16.5411   22.3367 H         1 FQQ         0.0830
     34 H8         79.5270  -18.1282   22.2771 H         1 FQQ         0.0830
     35 H9         76.8493  -19.5827   22.6532 H         1 FQQ         0.0815
     36 H10        78.3651  -20.0636   23.4886 H         1 FQQ         0.0815
     37 H11        76.4398  -20.8608   24.7426 H         1 FQQ         0.0322
     38 H12        75.7406  -19.2066   24.7804 H         1 FQQ         0.0322
     39 H13        77.1124  -19.3903   28.2161 H         1 FQQ         0.0235
     40 H14        76.1123  -20.6205   27.3718 H         1 FQQ         0.0235
     41 H15        75.7072  -18.8769   27.2219 H         1 FQQ         0.0235
     42 H16        79.2241  -20.4713   25.3890 H         1 FQQ         0.0235
     43 H17        78.1241  -21.5333   26.3317 H         1 FQQ         0.0235
     44 H18        79.1210  -20.2991   27.1740 H         1 FQQ         0.0235
     45 H19        78.7605  -17.9855   26.8547 H         1 FQQ         0.0322
     46 H20        77.2460  -17.3502   26.1271 H         1 FQQ         0.0322
     47 H21        79.6222  -18.5459   24.6369 H         1 FQQ         0.0815
     48 H22        79.1640  -16.8109   24.7173 H         1 FQQ         0.0815
     49 H23        77.0824  -17.4416   23.7096 H         1 FQQ         0.2034
     50 H24        82.6466  -21.7035   15.9068 H         1 FQQ         0.2564
     51 H25        83.0432  -17.2568   14.2691 H         1 FQQ         0.0671
@<TRIPOS>BOND
     1   22    1 ar 
     2    1   26 ar 
     3    2    3 ar 
     4   21    2 1  
     5    2   22 ar 
     6    3    4 ar 
     7    3   23 1  
     8    4    5 1  
     9    4   26 ar 
    10    5   24 am 
    11    5   25 2  
    12   23    6 2  
    13    6   24 1  
    14    8    7 1  
    15    7   20 2  
    16    8    9 2  
    17   10    8 1  
    18    9   21 1  
    19   11   10 1  
    20   19   11 1  
    21   12   13 1  
    22   12   19 1  
    23   13   15 1  
    24   15   14 1  
    25   15   16 1  
    26   15   17 1  
    27   17   18 1  
    28   18   19 1  
    29   20   21 1  
    30    1   27 1  
    31    6   28 1  
    32    7   29 1  
    33    9   30 1  
    34   10   31 1  
    35   10   32 1  
    36   11   33 1  
    37   11   34 1  
    38   12   35 1  
    39   12   36 1  
    40   13   37 1  
    41   13   38 1  
    42   14   39 1  
    43   14   40 1  
    44   14   41 1  
    45   16   42 1  
    46   16   43 1  
    47   16   44 1  
    48   17   45 1  
    49   17   46 1  
    50   18   47 1  
    51   18   48 1  
    52   19   49 1  
    53   24   50 1  
    54   26   51 1  
@<TRIPOS>SUBSTRUCTURE
     1 FQQ         1

