### 
### Created by X-TOOL on Mon Aug  2 16:13:41 2021
### 

@<TRIPOS>MOLECULE
6h4x_ligand
   32    34     1     0     0
SMALL
GAST_HUCK


@<TRIPOS>ATOM
      1 C2          6.3130  -15.7190  -53.5950 C.ar      1 FNQ         0.0907
      2 C3          7.3220  -15.6950  -54.5670 C.ar      1 FNQ         0.0795
      3 C4          7.6380  -14.5230  -55.2450 C.ar      1 FNQ        -0.0297
      4 C5          6.9120  -13.3930  -54.9420 C.ar      1 FNQ         0.0012
      5 C6          5.6860  -14.4760  -53.3470 C.ar      1 FNQ         0.1980
      6 C7          4.5530  -15.2390  -51.2740 C.2       1 FNQ         0.0638
      7 C1          6.5790  -17.9670  -53.3120 C.2       1 FNQ         0.1280
      8 C8          3.7140  -14.6530  -50.3660 C.2       1 FNQ        -0.0239
      9 C9          3.1700  -15.2710  -49.1040 C.3       1 FNQ         0.0076
     10 C10         4.0170  -14.9530  -47.8830 C.3       1 FNQ        -0.0307
     11 O           8.9260  -17.0220  -55.6960 O.2       1 FNQ        -0.3809
     12 C           8.0070  -16.9430  -54.8910 C.2       1 FNQ         0.2454
     13 N2          5.9460  -13.3500  -54.0200 N.ar      1 FNQ        -0.2697
     14 N1          5.9360  -16.8790  -52.9590 N.2       1 FNQ        -0.2870
     15 N           7.5700  -18.0230  -54.2230 N.am      1 FNQ        -0.1966
     16 N3          4.8160  -14.3270  -52.2310 N.pl3     1 FNQ        -0.1561
     17 N6          4.1720  -13.1490  -51.9980 N.2       1 FNQ        -0.2074
     18 C27         3.5120  -13.3590  -50.8740 C.2       1 FNQ         0.0004
     19 N4          3.4650  -15.5010  -46.6400 N.4       1 FNQ         0.2195
     20 H1          8.4285  -14.4997  -55.9864 H         1 FNQ         0.0671
     21 H2          7.1381  -12.4823  -55.4848 H         1 FNQ         0.0739
     22 H3          4.9381  -16.2567  -51.2313 H         1 FNQ         0.0886
     23 H4          6.2884  -18.8993  -52.8300 H         1 FNQ         0.1519
     24 H5          3.1352  -16.3628  -49.2334 H         1 FNQ         0.0407
     25 H6          2.1523  -14.8891  -48.9354 H         1 FNQ         0.0407
     26 H7          4.0887  -13.8600  -47.7819 H         1 FNQ         0.0829
     27 H8          5.0218  -15.3739  -48.0350 H         1 FNQ         0.0829
     28 H9          7.9987  -18.9069  -54.4099 H         1 FNQ         0.2564
     29 H10         2.8812  -12.6122  -50.3941 H         1 FNQ         0.0642
     30 H11         4.0675  -15.2584  -45.8692 H         1 FNQ         0.1995
     31 H12         3.4016  -16.5043  -46.7141 H         1 FNQ         0.1995
     32 H13         2.5465  -15.1170  -46.4822 H         1 FNQ         0.1995
@<TRIPOS>BOND
     1    1    2 ar 
     2    5    1 ar 
     3    1   14 1  
     4    2    3 ar 
     5    2   12 1  
     6    4    3 ar 
     7   13    4 ar 
     8    5   13 ar 
     9   16    5 1  
    10    6    8 2  
    11    6   16 1  
    12   14    7 2  
    13    7   15 1  
    14    8    9 1  
    15    8   18 1  
    16    9   10 1  
    17   10   19 1  
    18   12   11 2  
    19   12   15 am 
    20   16   17 1  
    21   17   18 2  
    22    3   20 1  
    23    4   21 1  
    24    6   22 1  
    25    7   23 1  
    26    9   24 1  
    27    9   25 1  
    28   10   26 1  
    29   10   27 1  
    30   15   28 1  
    31   18   29 1  
    32   19   30 1  
    33   19   31 1  
    34   19   32 1  
@<TRIPOS>SUBSTRUCTURE
     1 FNQ         1

