### 
### Created by X-TOOL on Mon Aug  2 16:13:41 2021
### 

@<TRIPOS>MOLECULE
6h4y_ligand
   32    34     1     0     0
SMALL
GAST_HUCK


@<TRIPOS>ATOM
      1 O           8.8860  -15.8200  -55.9460 O.2       1 FO8        -0.3809
      2 C           7.9680  -15.7710  -55.1370 C.2       1 FO8         0.2454
      3 C3          7.2230  -14.5550  -54.8340 C.ar      1 FO8         0.0795
      4 C4          7.4380  -13.3970  -55.5730 C.ar      1 FO8        -0.0297
      5 C5          6.6530  -12.3050  -55.2860 C.ar      1 FO8         0.0012
      6 N2          5.7250  -12.2840  -54.3240 N.ar      1 FO8        -0.2697
      7 C6          5.5650  -13.3910  -53.5920 C.ar      1 FO8         0.1980
      8 C2          6.2560  -14.6010  -53.8210 C.ar      1 FO8         0.0907
      9 N1          5.9700  -15.7550  -53.1350 N.2       1 FO8        -0.2870
     10 C1          6.6540  -16.8150  -53.4830 C.2       1 FO8         0.1280
     11 N           7.6130  -16.8460  -54.4260 N.am      1 FO8        -0.1966
     12 N3          4.7450  -13.2400  -52.4410 N.pl3     1 FO8        -0.1561
     13 N6          4.1740  -12.0380  -52.1460 N.2       1 FO8        -0.2074
     14 C28         3.5380  -12.2520  -51.0080 C.2       1 FO8         0.0004
     15 C8          3.6850  -13.5700  -50.5500 C.2       1 FO8        -0.0239
     16 C7          4.4630  -14.1700  -51.5060 C.2       1 FO8         0.0638
     17 C9          3.1460  -14.2000  -49.2900 C.3       1 FO8         0.0076
     18 C10         3.8630  -13.7170  -48.0390 C.3       1 FO8        -0.0307
     19 N4          3.3830  -14.3580  -46.8110 N.4       1 FO8         0.2195
     20 H1          8.1962  -13.3565  -56.3466 H         1 FO8         0.0671
     21 H2          6.7954  -11.4066  -55.8757 H         1 FO8         0.0739
     22 H3          6.4287  -17.7475  -52.9675 H         1 FO8         0.1519
     23 H4          8.0812  -17.7117  -54.6030 H         1 FO8         0.2564
     24 H5          2.9634  -11.4899  -50.4836 H         1 FO8         0.0642
     25 H6          4.7930  -15.2078  -51.5097 H         1 FO8         0.0886
     26 H7          3.2639  -15.2912  -49.3639 H         1 FO8         0.0407
     27 H8          2.0781  -13.9517  -49.2014 H         1 FO8         0.0407
     28 H9          3.7126  -12.6312  -47.9477 H         1 FO8         0.0829
     29 H10         4.9366  -13.9306  -48.1475 H         1 FO8         0.0829
     30 H11         3.8951  -13.9971  -46.0213 H         1 FO8         0.1995
     31 H12         3.5228  -15.3542  -46.8752 H         1 FO8         0.1995
     32 H13         2.4011  -14.1634  -46.6921 H         1 FO8         0.1995
@<TRIPOS>BOND
     1    1    2 2  
     2    2    3 1  
     3    2   11 am 
     4    3    4 ar 
     5    3    8 ar 
     6    4    5 ar 
     7    5    6 ar 
     8    6    7 ar 
     9    7    8 ar 
    10    7   12 1  
    11    8    9 1  
    12    9   10 2  
    13   10   11 1  
    14   12   13 1  
    15   12   16 1  
    16   13   14 2  
    17   14   15 1  
    18   15   16 2  
    19   15   17 1  
    20   17   18 1  
    21   18   19 1  
    22    4   20 1  
    23    5   21 1  
    24   10   22 1  
    25   11   23 1  
    26   14   24 1  
    27   16   25 1  
    28   17   26 1  
    29   17   27 1  
    30   18   28 1  
    31   18   29 1  
    32   19   30 1  
    33   19   31 1  
    34   19   32 1  
@<TRIPOS>SUBSTRUCTURE
     1 FO8         1

