### 
### Created by X-TOOL on Mon Aug  2 16:13:42 2021
### 

@<TRIPOS>MOLECULE
6h4z_ligand
   55    59     1     0     0
SMALL
GAST_HUCK


@<TRIPOS>ATOM
      1 C1         78.1640   54.4030   13.4620 C.ar      1 FQ5        -0.0548
      2 N2         83.6850   65.8920   11.6880 N.2       1 FQ5        -0.2074
      3 C3         77.8020   56.6730   14.1490 C.ar      1 FQ5        -0.0599
      4 C4         79.0380   57.0440   13.6450 C.ar      1 FQ5        -0.0391
      5 C6         79.5190   58.4770   13.7350 C.3       1 FQ5         0.0022
      6 C13        82.7980   64.9330   11.5130 C.2       1 FQ5         0.0004
      7 C14        85.9730   65.9590   12.4170 C.ar      1 FQ5         0.1980
      8 C15        86.7390   68.0370   12.9660 C.ar      1 FQ5         0.0012
      9 C22        80.9210   58.5720   14.3360 C.3       1 FQ5         0.0002
     10 O          90.0060   66.2020   14.8820 O.2       1 FQ5        -0.3809
     11 C20        89.2180   65.5730   14.1940 C.2       1 FQ5         0.2454
     12 C17        88.0330   66.1620   13.5890 C.ar      1 FQ5         0.0795
     13 C16        87.8500   67.5390   13.6030 C.ar      1 FQ5        -0.0297
     14 N3         85.8090   67.2760   12.3830 N.ar      1 FQ5        -0.2697
     15 N5         89.3510   64.2670   14.0180 N.am      1 FQ5        -0.1966
     16 C19        88.4440   63.5240   13.3530 C.2       1 FQ5         0.1280
     17 N4         87.3340   63.9740   12.8290 N.2       1 FQ5        -0.2870
     18 C18        87.1150   65.3140   12.9530 C.ar      1 FQ5         0.0907
     19 N1         84.8150   65.2340   12.0650 N.pl3     1 FQ5        -0.1561
     20 C12        84.6280   63.9020   12.1090 C.2       1 FQ5         0.0638
     21 C11        83.3330   63.6580   11.7600 C.2       1 FQ5        -0.0239
     22 C10        82.6600   62.3130   11.6740 C.3       1 FQ5         0.0077
     23 C9         82.0140   61.9130   12.9880 C.3       1 FQ5        -0.0272
     24 N          81.4320   60.5670   12.9910 N.4       1 FQ5         0.2364
     25 C8         80.0630   60.5850   12.4780 C.3       1 FQ5        -0.0297
     26 C7         79.5050   59.1740   12.3750 C.3       1 FQ5         0.0002
     27 C21        81.4180   60.0100   14.3430 C.3       1 FQ5        -0.0297
     28 C5         79.8360   56.0810   13.0470 C.ar      1 FQ5        -0.0462
     29 C          79.3880   54.7820   12.9620 C.ar      1 FQ5         0.0338
     30 CL         80.3980   53.5960   12.1920 Cl        1 FQ5        -0.0725
     31 C2         77.3690   55.3620   14.0600 C.ar      1 FQ5        -0.0680
     32 H1         77.8303   53.3743   13.3885 H         1 FQ5         0.0565
     33 H2         77.1681   57.4171   14.6176 H         1 FQ5         0.0558
     34 H3         78.8274   59.0158   14.3993 H         1 FQ5         0.0465
     35 H4         81.7667   65.1093   11.2110 H         1 FQ5         0.0642
     36 H5         86.6095   69.1128   12.9347 H         1 FQ5         0.0739
     37 H6         81.6102   57.9567   13.7390 H         1 FQ5         0.0342
     38 H7         80.8951   58.1959   15.3694 H         1 FQ5         0.0342
     39 H8         88.5567   68.1956   14.0976 H         1 FQ5         0.0671
     40 H9         90.1585   63.8129   14.3944 H         1 FQ5         0.2564
     41 H10        88.6531   62.4609   13.2431 H         1 FQ5         0.1519
     42 H11        85.3748   63.1554   12.3749 H         1 FQ5         0.0886
     43 H12        83.4117   61.5568   11.4036 H         1 FQ5         0.0408
     44 H13        81.8842   62.3536   10.8952 H         1 FQ5         0.0408
     45 H14        81.2142   62.6342   13.2120 H         1 FQ5         0.0830
     46 H15        82.7801   61.9584   13.7761 H         1 FQ5         0.0830
     47 H16        81.9940   59.9752   12.3995 H         1 FQ5         0.2035
     48 H17        80.0580   61.0482   11.4803 H         1 FQ5         0.0816
     49 H18        79.4307   61.1738   13.1588 H         1 FQ5         0.0816
     50 H19        78.4696   59.2230   12.0069 H         1 FQ5         0.0342
     51 H20        80.1184   58.5957   11.6684 H         1 FQ5         0.0342
     52 H21        82.4384   60.0358   14.7531 H         1 FQ5         0.0816
     53 H22        80.7533   60.6171   14.9751 H         1 FQ5         0.0816
     54 H23        80.8077   56.3494   12.6484 H         1 FQ5         0.0562
     55 H24        76.4008   55.0856   14.4616 H         1 FQ5         0.0599
@<TRIPOS>BOND
     1    1   29 ar 
     2   31    1 ar 
     3    6    2 2  
     4   19    2 1  
     5    4    3 ar 
     6    3   31 ar 
     7    5    4 1  
     8    4   28 ar 
     9    9    5 1  
    10    5   26 1  
    11   21    6 1  
    12    7   14 ar 
    13    7   18 ar 
    14   19    7 1  
    15    8   13 ar 
    16   14    8 ar 
    17   27    9 1  
    18   11   10 2  
    19   12   11 1  
    20   11   15 am 
    21   12   13 ar 
    22   18   12 ar 
    23   16   15 1  
    24   17   16 2  
    25   18   17 1  
    26   20   19 1  
    27   21   20 2  
    28   22   21 1  
    29   23   22 1  
    30   24   23 1  
    31   24   25 1  
    32   24   27 1  
    33   25   26 1  
    34   28   29 ar 
    35   29   30 1  
    36    1   32 1  
    37    3   33 1  
    38    5   34 1  
    39    6   35 1  
    40    8   36 1  
    41    9   37 1  
    42    9   38 1  
    43   13   39 1  
    44   15   40 1  
    45   16   41 1  
    46   20   42 1  
    47   22   43 1  
    48   22   44 1  
    49   23   45 1  
    50   23   46 1  
    51   24   47 1  
    52   25   48 1  
    53   25   49 1  
    54   26   50 1  
    55   26   51 1  
    56   27   52 1  
    57   27   53 1  
    58   28   54 1  
    59   31   55 1  
@<TRIPOS>SUBSTRUCTURE
     1 FQ5         1

