### 
### Created by X-TOOL on Mon Aug  2 16:13:42 2021
### 

@<TRIPOS>MOLECULE
6h50_ligand
   39    42     1     0     0
SMALL
GAST_HUCK


@<TRIPOS>ATOM
      1 C1         85.6040   67.0150   12.8910 C.ar      1 FO2         0.0012
      2 N1         88.0450   63.2520   14.2590 N.am      1 FO2        -0.1966
      3 C2         84.7920   64.9350   12.4150 C.ar      1 FO2         0.1980
      4 N2         86.0560   62.9430   13.0120 N.2       1 FO2        -0.2870
      5 C3         85.8590   64.2930   13.0870 C.ar      1 FO2         0.0907
      6 N3         83.6010   64.2510   12.0880 N.pl3     1 FO2        -0.1561
      7 C4         86.7610   65.1450   13.7400 C.ar      1 FO2         0.0795
      8 N4         82.4470   64.9500   11.9030 N.2       1 FO2        -0.2074
      9 C5         87.9170   64.5600   14.4000 C.2       1 FO2         0.2454
     10 C6         87.1480   62.4950   13.5860 C.2       1 FO2         0.1280
     11 C7         81.5380   64.0190   11.6820 C.2       1 FO2         0.0004
     12 C8         82.0780   62.7200   11.7140 C.2       1 FO2        -0.0255
     13 C9         83.4090   62.9230   11.9750 C.2       1 FO2         0.0639
     14 C10        81.3430   61.4220   11.5360 C.3       1 FO2        -0.0113
     15 C11        81.0700   60.7320   12.8730 C.3       1 FO2        -0.0047
     16 O          88.6880   65.2030   15.0920 O.2       1 FO2        -0.3809
     17 C          86.6270   66.5230   13.6680 C.ar      1 FO2        -0.0297
     18 N          84.7070   66.2510   12.2620 N.ar      1 FO2        -0.2697
     19 C14        80.0280   61.5960   10.7740 C.3       1 FO2        -0.0047
     20 C13        79.3230   60.2520   10.6400 C.3       1 FO2        -0.0323
     21 N5         79.0560   59.6670   11.9500 N.4       1 FO2         0.2271
     22 C12        80.3200   59.4290   12.6400 C.3       1 FO2        -0.0323
     23 H1         85.5206   68.0903   12.7824 H         1 FO2         0.0739
     24 H2         88.8393   62.8024   14.6675 H         1 FO2         0.2564
     25 H3         87.3484   61.4270   13.5148 H         1 FO2         0.1519
     26 H4         80.4865   64.2325   11.4955 H         1 FO2         0.0642
     27 H5         84.1712   62.1514   12.0729 H         1 FO2         0.0886
     28 H6         81.9896   60.7600   10.9413 H         1 FO2         0.0394
     29 H7         80.4625   61.3939   13.5077 H         1 FO2         0.0334
     30 H8         82.0252   60.5182   13.3748 H         1 FO2         0.0334
     31 H9         87.2998   67.1847   14.2014 H         1 FO2         0.0671
     32 H10        80.2378   61.9990    9.7722 H         1 FO2         0.0334
     33 H11        79.3790   62.2950   11.3219 H         1 FO2         0.0334
     34 H12        79.9621   59.5667   10.0639 H         1 FO2         0.0815
     35 H13        78.3700   60.3972   10.1103 H         1 FO2         0.0815
     36 H14        78.5658   58.7938   11.8350 H         1 FO2         0.2013
     37 H15        78.4906   60.3009   12.4927 H         1 FO2         0.2013
     38 H16        80.1155   58.9535   13.6106 H         1 FO2         0.0815
     39 H17        80.9430   58.7602   12.0280 H         1 FO2         0.0815
@<TRIPOS>BOND
     1    1   17 ar 
     2   18    1 ar 
     3    2    9 am 
     4   10    2 1  
     5    5    3 ar 
     6    3    6 1  
     7    3   18 ar 
     8    4    5 1  
     9    4   10 2  
    10    5    7 ar 
    11    6    8 1  
    12    6   13 1  
    13    7    9 1  
    14    7   17 ar 
    15    8   11 2  
    16    9   16 2  
    17   11   12 1  
    18   12   13 2  
    19   12   14 1  
    20   14   15 1  
    21   14   19 1  
    22   15   22 1  
    23   19   20 1  
    24   20   21 1  
    25   21   22 1  
    26    1   23 1  
    27    2   24 1  
    28   10   25 1  
    29   11   26 1  
    30   13   27 1  
    31   14   28 1  
    32   15   29 1  
    33   15   30 1  
    34   17   31 1  
    35   19   32 1  
    36   19   33 1  
    37   20   34 1  
    38   20   35 1  
    39   21   36 1  
    40   21   37 1  
    41   22   38 1  
    42   22   39 1  
@<TRIPOS>SUBSTRUCTURE
     1 FO2         1

