### 
### Created by X-TOOL on Mon Aug  2 16:13:42 2021
### 

@<TRIPOS>MOLECULE
6h51_ligand
   42    45     1     0     0
SMALL
GAST_HUCK


@<TRIPOS>ATOM
      1 C1         85.2500   66.9060   12.8750 C.ar      1 FQK         0.0012
      2 C2         84.5150   64.8160   12.3070 C.ar      1 FQK         0.1980
      3 C3         85.6530   64.1950   12.8720 C.ar      1 FQK         0.0907
      4 C4         86.5550   65.0510   13.5150 C.ar      1 FQK         0.0795
      5 C5         87.7300   64.4720   14.1460 C.2       1 FQK         0.2454
      6 C6         86.9700   62.4190   13.3240 C.2       1 FQK         0.1280
      7 C7         81.3820   63.7730   11.2930 C.2       1 FQK         0.0004
      8 C8         81.9340   62.4990   11.5060 C.2       1 FQK        -0.0255
      9 C10        81.2340   61.1810   11.3410 C.3       1 FQK        -0.0113
     10 C11        79.9730   61.3210   10.4870 C.3       1 FQK        -0.0046
     11 C13        80.0940   59.2690   12.4850 C.3       1 FQK        -0.0308
     12 C14        80.8720   60.5600   12.6910 C.3       1 FQK        -0.0046
     13 O          88.4970   65.1070   14.8500 O.2       1 FQK        -0.3809
     14 C          86.3600   66.4260   13.5260 C.ar      1 FQK        -0.0297
     15 N1         87.8650   63.1720   13.9880 N.am      1 FQK        -0.1966
     16 N2         85.8720   62.8590   12.7750 N.2       1 FQK        -0.2870
     17 N          84.3420   66.1320   12.2760 N.ar      1 FQK        -0.2697
     18 N3         83.3880   64.0850   11.8770 N.pl3     1 FQK        -0.1561
     19 C9         83.2200   62.7500   11.8790 C.2       1 FQK         0.0639
     20 N4         82.2530   64.7390   11.5040 N.2       1 FQK        -0.2074
     21 N5         78.8730   59.5130   11.7220 N.4       1 FQK         0.2332
     22 C12        79.2470   59.9890   10.3950 C.3       1 FQK        -0.0308
     23 C15        78.0420   58.3060   11.6430 C.3       1 FQK        -0.0431
     24 H1         85.1021   67.9795   12.8457 H         1 FQK         0.0739
     25 H2         87.1796   61.3538   13.2377 H         1 FQK         0.1519
     26 H3         80.3505   63.9431   10.9879 H         1 FQK         0.0642
     27 H4         81.9238   60.4975   10.8243 H         1 FQK         0.0394
     28 H5         80.2542   61.6514    9.4762 H         1 FQK         0.0334
     29 H6         79.3061   62.0668   10.9443 H         1 FQK         0.0334
     30 H7         79.8278   58.8484   13.4659 H         1 FQK         0.0815
     31 H8         80.7237   58.5524   11.9374 H         1 FQK         0.0815
     32 H9         80.2548   61.2685   13.2629 H         1 FQK         0.0334
     33 H10        81.7942   60.3429   13.2499 H         1 FQK         0.0334
     34 H11        87.0538   67.0915   14.0267 H         1 FQK         0.0671
     35 H12        88.6691   62.7243   14.3792 H         1 FQK         0.2564
     36 H13        83.9740   62.0063   12.1324 H         1 FQK         0.0886
     37 H14        78.3395   60.2318   12.1855 H         1 FQK         0.2030
     38 H15        79.9080   59.2496    9.9192 H         1 FQK         0.0815
     39 H16        78.3388   60.1139    9.7870 H         1 FQK         0.0815
     40 H17        77.7788   57.9750   12.6585 H         1 FQK         0.0777
     41 H18        78.6009   57.5089   11.1309 H         1 FQK         0.0777
     42 H19        77.1235   58.5294   11.0806 H         1 FQK         0.0777
@<TRIPOS>BOND
     1    1   14 ar 
     2   17    1 ar 
     3    2    3 ar 
     4    2   17 ar 
     5   18    2 1  
     6    3    4 ar 
     7    3   16 1  
     8    4    5 1  
     9    4   14 ar 
    10    5   13 2  
    11    5   15 am 
    12    6   15 1  
    13   16    6 2  
    14    8    7 1  
    15    7   20 2  
    16    8    9 1  
    17   19    8 2  
    18    9   10 1  
    19    9   12 1  
    20   10   22 1  
    21   12   11 1  
    22   11   21 1  
    23   18   19 1  
    24   18   20 1  
    25   21   22 1  
    26   21   23 1  
    27    1   24 1  
    28    6   25 1  
    29    7   26 1  
    30    9   27 1  
    31   10   28 1  
    32   10   29 1  
    33   11   30 1  
    34   11   31 1  
    35   12   32 1  
    36   12   33 1  
    37   14   34 1  
    38   15   35 1  
    39   19   36 1  
    40   21   37 1  
    41   22   38 1  
    42   22   39 1  
    43   23   40 1  
    44   23   41 1  
    45   23   42 1  
@<TRIPOS>SUBSTRUCTURE
     1 FQK         1

