### 
### Created by X-TOOL on Mon Aug  2 16:13:42 2021
### 

@<TRIPOS>MOLECULE
6h52_ligand
   39    42     1     0     0
SMALL
GAST_HUCK


@<TRIPOS>ATOM
      1 C5         87.8020   64.5400   14.2610 C.2       1 FQN         0.2454
      2 C7         81.4630   63.8390   11.4050 C.2       1 FQN         0.0004
      3 C8         82.0110   62.5600   11.6120 C.2       1 FQN        -0.0255
      4 C3         85.7440   64.2520   12.9510 C.ar      1 FQN         0.0907
      5 N1         87.9550   63.2350   14.0990 N.am      1 FQN        -0.1966
      6 C6         87.0750   62.4720   13.4160 C.2       1 FQN         0.1280
      7 C11        80.5590   60.8110   12.6980 C.3       1 FQN        -0.0047
      8 C10        81.3270   61.2330   11.4450 C.3       1 FQN        -0.0113
      9 C9         83.3100   62.8110   11.9660 C.2       1 FQN         0.0639
     10 C14        80.3850   61.2130   10.2410 C.3       1 FQN        -0.0047
     11 O          88.5520   65.1820   14.9780 O.2       1 FQN        -0.3809
     12 C4         86.6320   65.1120   13.6120 C.ar      1 FQN         0.0795
     13 C          86.4410   66.4870   13.5990 C.ar      1 FQN        -0.0297
     14 N2         85.9730   62.9070   12.8490 N.2       1 FQN        -0.2870
     15 C2         84.6240   64.8790   12.3470 C.ar      1 FQN         0.1980
     16 N          84.4710   66.1980   12.2680 N.ar      1 FQN        -0.2697
     17 C1         85.3650   66.9710   12.8910 C.ar      1 FQN         0.0012
     18 N3         83.4840   64.1470   11.9480 N.pl3     1 FQN        -0.1561
     19 N4         82.3420   64.8030   11.5990 N.2       1 FQN        -0.2074
     20 C13        79.7290   59.8440   10.1170 C.3       1 FQN        -0.0323
     21 N5         78.9750   59.5050   11.3270 N.4       1 FQN         0.2271
     22 C12        79.8960   59.4600   12.4670 C.3       1 FQN        -0.0323
     23 H1         80.4276   64.0138   11.1165 H         1 FQN         0.0642
     24 H2         88.7582   62.7947   14.5004 H         1 FQN         0.2564
     25 H3         87.2970   61.4095   13.3281 H         1 FQN         0.1519
     26 H4         79.7878   61.5622   12.9238 H         1 FQN         0.0334
     27 H5         81.2563   60.7352   13.5453 H         1 FQN         0.0334
     28 H6         82.1128   60.4842   11.2670 H         1 FQN         0.0394
     29 H7         84.0645   62.0667   12.2163 H         1 FQN         0.0886
     30 H8         80.9577   61.4269    9.3265 H         1 FQN         0.0334
     31 H9         79.6070   61.9792   10.3741 H         1 FQN         0.0334
     32 H10        87.1137   67.1537   14.1263 H         1 FQN         0.0671
     33 H11        85.2347   68.0457   12.8353 H         1 FQN         0.0739
     34 H12        80.5094   59.0856    9.9566 H         1 FQN         0.0815
     35 H13        79.0428   59.8517    9.2573 H         1 FQN         0.0815
     36 H14        78.5368   58.6047   11.2109 H         1 FQN         0.2013
     37 H15        78.2678   60.2042   11.4914 H         1 FQN         0.2013
     38 H16        79.3347   59.1776   13.3698 H         1 FQN         0.0815
     39 H17        80.6743   58.7083   12.2690 H         1 FQN         0.0815
@<TRIPOS>BOND
     1    1    5 am 
     2    1   11 2  
     3   12    1 1  
     4    3    2 1  
     5    2   19 2  
     6    3    8 1  
     7    9    3 2  
     8    4   12 ar 
     9    4   14 1  
    10   15    4 ar 
    11    6    5 1  
    12   14    6 2  
    13    8    7 1  
    14    7   22 1  
    15    8   10 1  
    16   18    9 1  
    17   10   20 1  
    18   12   13 ar 
    19   13   17 ar 
    20   15   16 ar 
    21   15   18 1  
    22   16   17 ar 
    23   18   19 1  
    24   20   21 1  
    25   21   22 1  
    26    2   23 1  
    27    5   24 1  
    28    6   25 1  
    29    7   26 1  
    30    7   27 1  
    31    8   28 1  
    32    9   29 1  
    33   10   30 1  
    34   10   31 1  
    35   13   32 1  
    36   17   33 1  
    37   20   34 1  
    38   20   35 1  
    39   21   36 1  
    40   21   37 1  
    41   22   38 1  
    42   22   39 1  
@<TRIPOS>SUBSTRUCTURE
     1 FQN         1

