### 
### Created by X-TOOL on Wed Jan  1 15:39:35 2020
### 

@<TRIPOS>MOLECULE
6h5w_ligand
   50    52     1     0     0
SMALL
GAST_HUCK


@<TRIPOS>ATOM
      1 C1        -14.9430   -7.5910   24.1630 C.3       1 FT8         0.0928
      2 C10       -11.7460   -8.9550   24.9880 C.2       1 FT8         0.0603
      3 C11       -13.5630   -6.7860   19.8740 C.2       1 FT8         0.1930
      4 C12       -13.2730   -6.4870   18.4310 C.3       1 FT8         0.1009
      5 C13       -11.9460   -5.7400   18.3490 C.3       1 FT8         0.0096
      6 C14       -11.4290   -5.8280   16.9230 C.ar      1 FT8        -0.0397
      7 C15       -10.7260   -6.9300   16.4680 C.ar      1 FT8        -0.0602
      8 C16       -10.2870   -7.0000   15.1630 C.ar      1 FT8        -0.0686
      9 C17       -10.5630   -5.9570   14.3170 C.ar      1 FT8        -0.0687
     10 C18       -11.2720   -4.8560   14.7620 C.ar      1 FT8        -0.0686
     11 C19       -11.7070   -4.7860   16.0720 C.ar      1 FT8        -0.0602
     12 C2        -13.1490   -8.1630   22.4720 C.2       1 FT8         0.2068
     13 C3        -14.2940   -8.3870   21.5280 C.3       1 FT8         0.1319
     14 C4        -14.8540   -9.8080   21.6110 C.3       1 FT8        -0.0033
     15 C5        -15.0270  -10.3180   23.0400 C.3       1 FT8         0.0000
     16 C6        -15.1270   -6.9340   25.5280 C.3       1 FT8        -0.0199
     17 C7        -14.1640   -7.4410   26.5250 C.3       1 FT8        -0.0465
     18 C8        -12.7970   -7.0410   26.1070 C.3       1 FT8        -0.0176
     19 C9        -12.4000   -7.6160   24.7540 C.3       1 FT8         0.0983
     20 N1        -13.5140   -7.7870   23.7830 N.am      1 FT8        -0.2429
     21 N2        -13.8870   -8.1290   20.1830 N.am      1 FT8        -0.2646
     22 O1        -10.5280   -8.9800   25.2860 O.co2     1 FT8        -0.5666
     23 O2        -12.3870  -10.0430   24.9160 O.co2     1 FT8        -0.5666
     24 O3        -12.0170   -8.3160   22.1770 O.2       1 FT8        -0.3942
     25 O4        -13.5780   -5.9560   20.7280 O.2       1 FT8        -0.3955
     26 S1        -15.8940   -9.1580   24.1530 S.3       1 FT8        -0.1327
     27 S2        -14.7690   -5.5410   17.9460 S.3       1 FT8        -0.1510
     28 H1        -15.3842   -6.9232   23.4085 H         1 FT8         0.0676
     29 H2        -13.1980   -7.4067   17.8322 H         1 FT8         0.0672
     30 H3        -11.2193   -6.1985   19.0358 H         1 FT8         0.0461
     31 H4        -12.0963   -4.6857   18.6245 H         1 FT8         0.0461
     32 H5        -10.5178   -7.7491   17.1469 H         1 FT8         0.0557
     33 H6         -9.7338   -7.8637   14.8123 H         1 FT8         0.0599
     34 H7        -10.2220   -5.9957   13.2887 H         1 FT8         0.0559
     35 H8        -11.4879   -4.0426   14.0788 H         1 FT8         0.0599
     36 H9        -12.2593   -3.9217   16.4227 H         1 FT8         0.0557
     37 H10       -15.0967   -7.6838   21.7949 H         1 FT8         0.0800
     38 H11       -14.1658  -10.4838   21.0822 H         1 FT8         0.0320
     39 H12       -15.8360   -9.8236   21.1156 H         1 FT8         0.0320
     40 H13       -14.0290  -10.5157   23.4583 H         1 FT8         0.0379
     41 H14       -15.6017  -11.2552   23.0040 H         1 FT8         0.0379
     42 H15       -16.1472   -7.1385   25.8850 H         1 FT8         0.0296
     43 H16       -14.9869   -5.8483   25.4204 H         1 FT8         0.0296
     44 H17       -14.2291   -8.5377   26.5792 H         1 FT8         0.0268
     45 H18       -14.3907   -7.0110   27.5117 H         1 FT8         0.0268
     46 H19       -12.0808   -7.3954   26.8629 H         1 FT8         0.0306
     47 H20       -12.7549   -5.9434   26.0481 H         1 FT8         0.0306
     48 H21       -11.6666   -6.9325   24.3014 H         1 FT8         0.0728
     49 H22       -13.8340   -8.8561   19.4985 H         1 FT8         0.1883
     50 H23       -14.8653   -4.7364   18.5455 H         1 FT8         0.1047
@<TRIPOS>BOND
     1   16    1 1  
     2    1   20 1  
     3    1   26 1  
     4   19    2 1  
     5    2   22 ar 
     6    2   23 ar 
     7    3    4 1  
     8   21    3 am 
     9    3   25 2  
    10    4    5 1  
    11    4   27 1  
    12    5    6 1  
    13    6    7 ar 
    14    6   11 ar 
    15    7    8 ar 
    16    8    9 ar 
    17   10    9 ar 
    18   11   10 ar 
    19   12   13 1  
    20   20   12 am 
    21   12   24 2  
    22   14   13 1  
    23   13   21 1  
    24   15   14 1  
    25   26   15 1  
    26   17   16 1  
    27   18   17 1  
    28   18   19 1  
    29   19   20 1  
    30    1   28 1  
    31    4   29 1  
    32    5   30 1  
    33    5   31 1  
    34    7   32 1  
    35    8   33 1  
    36    9   34 1  
    37   10   35 1  
    38   11   36 1  
    39   13   37 1  
    40   14   38 1  
    41   14   39 1  
    42   15   40 1  
    43   15   41 1  
    44   16   42 1  
    45   16   43 1  
    46   17   44 1  
    47   17   45 1  
    48   18   46 1  
    49   18   47 1  
    50   19   48 1  
    51   21   49 1  
    52   27   50 1  
@<TRIPOS>SUBSTRUCTURE
     1 FT8         1

