### 
### Created by X-TOOL on Wed Jan  1 15:39:35 2020
### 

@<TRIPOS>MOLECULE
6h5x_ligand
   50    52     1     0     0
SMALL
GAST_HUCK


@<TRIPOS>ATOM
      1 C1        -54.0320   96.4740   22.5470 C.3       1 FT8         0.0928
      2 C10       -51.4480   95.4850   20.3170 C.2       1 FT8         0.0603
      3 C11       -51.8110   94.1280   25.9270 C.2       1 FT8         0.1930
      4 C12       -51.1840   93.4040   27.0930 C.3       1 FT8         0.1009
      5 C13       -50.8400   91.9740   26.6970 C.3       1 FT8         0.0096
      6 C14       -49.8040   91.3180   27.6140 C.ar      1 FT8        -0.0397
      7 C15       -48.5070   91.8050   27.6900 C.ar      1 FT8        -0.0602
      8 C16       -47.5880   91.1870   28.5270 C.ar      1 FT8        -0.0686
      9 C17       -47.9620   90.0850   29.2760 C.ar      1 FT8        -0.0687
     10 C18       -49.2570   89.5980   29.1930 C.ar      1 FT8        -0.0686
     11 C19       -50.1760   90.2140   28.3600 C.ar      1 FT8        -0.0602
     12 C2        -51.7880   95.4210   23.2410 C.2       1 FT8         0.2068
     13 C3        -51.9490   96.1700   24.5570 C.3       1 FT8         0.1319
     14 C4        -51.4150   97.6020   24.5460 C.3       1 FT8        -0.0033
     15 C5        -51.7950   98.3830   23.2910 C.3       1 FT8         0.0000
     16 C6        -55.1340   96.4340   21.4840 C.3       1 FT8        -0.0199
     17 C7        -54.6040   96.2380   20.1300 C.3       1 FT8        -0.0465
     18 C8        -53.8660   94.9690   19.9880 C.3       1 FT8        -0.0176
     19 C9        -52.6800   94.8820   20.9460 C.3       1 FT8         0.0983
     20 N1        -52.8310   95.5870   22.2650 N.am      1 FT8        -0.2429
     21 N2        -51.3130   95.4400   25.6430 N.am      1 FT8        -0.2646
     22 O1        -51.1200   96.6860   20.5510 O.co2     1 FT8        -0.5666
     23 O2        -50.7220   94.7840   19.5640 O.co2     1 FT8        -0.5666
     24 O3        -50.8690   94.7230   23.0010 O.2       1 FT8        -0.3942
     25 O4        -52.7030   93.6460   25.3140 O.2       1 FT8        -0.3955
     26 S1        -53.5480   98.2350   22.8280 S.3       1 FT8        -0.1327
     27 S2        -52.5140   93.5480   28.3230 S.3       1 FT8        -0.1510
     28 H1        -54.4761   96.1006   23.4815 H         1 FT8         0.0676
     29 H2        -50.2710   93.9077   27.4433 H         1 FT8         0.0672
     30 H3        -50.4412   91.9831   25.6719 H         1 FT8         0.0461
     31 H4        -51.7611   91.3734   26.7269 H         1 FT8         0.0461
     32 H5        -48.2126   92.6643   27.0984 H         1 FT8         0.0557
     33 H6        -46.5755   91.5683   28.5941 H         1 FT8         0.0599
     34 H7        -47.2422   89.6028   29.9275 H         1 FT8         0.0559
     35 H8        -49.5504   88.7352   29.7800 H         1 FT8         0.0599
     36 H9        -51.1877   89.8307   28.2925 H         1 FT8         0.0557
     37 H10       -53.0276   96.2241   24.7661 H         1 FT8         0.0800
     38 H11       -50.3178   97.5651   24.6144 H         1 FT8         0.0320
     39 H12       -51.8194   98.1313   25.4214 H         1 FT8         0.0320
     40 H13       -51.1842   98.0120   22.4548 H         1 FT8         0.0379
     41 H14       -51.5720   99.4461   23.4646 H         1 FT8         0.0379
     42 H15       -55.6856   97.3853   21.5122 H         1 FT8         0.0296
     43 H16       -55.8191   95.6057   21.7176 H         1 FT8         0.0296
     44 H17       -53.9236   97.0695   19.8942 H         1 FT8         0.0268
     45 H18       -55.4437   96.2386   19.4195 H         1 FT8         0.0268
     46 H19       -53.4944   94.8887   18.9558 H         1 FT8         0.0306
     47 H20       -54.5520   94.1348   20.1967 H         1 FT8         0.0306
     48 H21       -52.5028   93.8150   21.1461 H         1 FT8         0.0728
     49 H22       -50.5606   95.8374   26.1683 H         1 FT8         0.1883
     50 H23       -52.6771   94.5215   28.5273 H         1 FT8         0.1047
@<TRIPOS>BOND
     1   16    1 1  
     2    1   20 1  
     3    1   26 1  
     4   19    2 1  
     5    2   22 ar 
     6    2   23 ar 
     7    3    4 1  
     8   21    3 am 
     9    3   25 2  
    10    4    5 1  
    11    4   27 1  
    12    5    6 1  
    13    6    7 ar 
    14    6   11 ar 
    15    7    8 ar 
    16    8    9 ar 
    17   10    9 ar 
    18   11   10 ar 
    19   12   13 1  
    20   20   12 am 
    21   12   24 2  
    22   14   13 1  
    23   13   21 1  
    24   15   14 1  
    25   26   15 1  
    26   17   16 1  
    27   18   17 1  
    28   18   19 1  
    29   19   20 1  
    30    1   28 1  
    31    4   29 1  
    32    5   30 1  
    33    5   31 1  
    34    7   32 1  
    35    8   33 1  
    36    9   34 1  
    37   10   35 1  
    38   11   36 1  
    39   13   37 1  
    40   14   38 1  
    41   14   39 1  
    42   15   40 1  
    43   15   41 1  
    44   16   42 1  
    45   16   43 1  
    46   17   44 1  
    47   17   45 1  
    48   18   46 1  
    49   18   47 1  
    50   19   48 1  
    51   21   49 1  
    52   27   50 1  
@<TRIPOS>SUBSTRUCTURE
     1 FT8         1

