### 
### Created by X-TOOL on Mon Aug  2 16:13:43 2021
### 

@<TRIPOS>MOLECULE
6h75_ligand
   39    39     1     0     0
SMALL
GAST_HUCK


@<TRIPOS>ATOM
      1 C1          7.9920   -9.5890  -11.2830 C.2       1 SLB         0.1039
      2 C2          9.2630   -9.2870  -12.0490 C.3       1 SLB         0.2179
      3 C3         10.3630   -8.7780  -11.1320 C.3       1 SLB         0.0351
      4 C4         11.5430   -8.2260  -11.9920 C.3       1 SLB         0.0850
      5 C5         11.0100   -7.1430  -12.9410 C.3       1 SLB         0.0964
      6 C6          9.9120   -7.8250  -13.7930 C.3       1 SLB         0.1143
      7 C7          9.2750   -6.8600  -14.7860 C.3       1 SLB         0.1114
      8 C8          8.1270   -7.5410  -15.5750 C.3       1 SLB         0.1065
      9 C9          7.4480   -6.6390  -16.6270 C.3       1 SLB         0.0727
     10 C10        12.5910   -5.4340  -13.6820 C.2       1 SLB         0.1733
     11 C11        13.6560   -5.0380  -14.6700 C.3       1 SLB         0.0257
     12 N5         12.0610   -6.6310  -13.8010 N.am      1 SLB        -0.2790
     13 O1A         7.6100  -10.7870  -11.1860 O.co2     1 SLB        -0.5426
     14 O1B         7.3720   -8.6120  -10.7640 O.co2     1 SLB        -0.5426
     15 O2          9.7130  -10.4310  -12.6950 O.3       1 SLB        -0.3631
     16 O4         12.5440   -7.6630  -11.1290 O.3       1 SLB        -0.3893
     17 O6          8.8580   -8.3160  -12.9700 O.3       1 SLB        -0.3385
     18 O7          8.6750   -5.7330  -14.1180 O.3       1 SLB        -0.3865
     19 O8          8.6270   -8.7520  -16.1750 O.3       1 SLB        -0.3869
     20 O9          8.3880   -6.1130  -17.5460 O.3       1 SLB        -0.3924
     21 O10        12.2670   -4.6610  -12.7780 O.2       1 SLB        -0.3974
     22 H1         10.7243   -9.6025  -10.4999 H         1 SLB         0.0336
     23 H2          9.9664   -7.9740  -10.4946 H         1 SLB         0.0336
     24 H3         11.9846   -9.0445  -12.5794 H         1 SLB         0.0618
     25 H4         10.5810   -6.3127  -12.3609 H         1 SLB         0.0608
     26 H5         10.3686   -8.6617  -14.3421 H         1 SLB         0.0646
     27 H6         10.0502   -6.5095  -15.4833 H         1 SLB         0.0647
     28 H7          7.3513   -7.8194  -14.8465 H         1 SLB         0.0643
     29 H8          6.9465   -5.8058  -16.1129 H         1 SLB         0.0584
     30 H9          6.7029   -7.2316  -17.1781 H         1 SLB         0.0584
     31 H10        14.0022   -4.0180  -14.4468 H         1 SLB         0.0467
     32 H11        13.2415   -5.0699  -15.6884 H         1 SLB         0.0467
     33 H12        14.5024   -5.7367  -14.5965 H         1 SLB         0.0467
     34 H13        12.4030   -7.2254  -14.5288 H         1 SLB         0.1856
     35 H14         9.9815  -11.0734  -12.0487 H         1 SLB         0.2112
     36 H15        13.2592   -7.3240  -11.6544 H         1 SLB         0.2099
     37 H16         7.9897   -6.0395  -13.5358 H         1 SLB         0.2100
     38 H17         9.2642   -8.5326  -16.8447 H         1 SLB         0.2100
     39 H18         8.8217   -6.8275  -17.9975 H         1 SLB         0.2095
@<TRIPOS>BOND
     1    2    1 1  
     2    1   13 ar 
     3    1   14 ar 
     4    3    2 1  
     5    2   15 1  
     6   17    2 1  
     7    4    3 1  
     8    5    4 1  
     9    4   16 1  
    10    5    6 1  
    11   12    5 1  
    12    6    7 1  
    13    6   17 1  
    14    7    8 1  
    15    7   18 1  
    16    8    9 1  
    17    8   19 1  
    18    9   20 1  
    19   10   11 1  
    20   10   12 am 
    21   10   21 2  
    22    3   22 1  
    23    3   23 1  
    24    4   24 1  
    25    5   25 1  
    26    6   26 1  
    27    7   27 1  
    28    8   28 1  
    29    9   29 1  
    30    9   30 1  
    31   11   31 1  
    32   11   32 1  
    33   11   33 1  
    34   12   34 1  
    35   15   35 1  
    36   16   36 1  
    37   18   37 1  
    38   19   38 1  
    39   20   39 1  
@<TRIPOS>SUBSTRUCTURE
     1 SLB         1

