### 
### Created by X-TOOL on Mon Aug  2 16:13:43 2021
### 

@<TRIPOS>MOLECULE
6h76_ligand
   39    39     1     0     0
SMALL
GAST_HUCK


@<TRIPOS>ATOM
      1 C1         -7.9630   -9.4860   11.1270 C.2       1 SLB         0.1039
      2 C2         -9.2050   -9.1900   11.9480 C.3       1 SLB         0.2179
      3 C3        -10.3360   -8.7370   11.0300 C.3       1 SLB         0.0351
      4 C4        -11.4880   -8.1960   11.8790 C.3       1 SLB         0.0850
      5 C5        -10.9590   -7.0990   12.8550 C.3       1 SLB         0.0964
      6 C6         -9.8740   -7.7200   13.6960 C.3       1 SLB         0.1143
      7 C7         -9.2530   -6.7140   14.6610 C.3       1 SLB         0.1114
      8 C8         -8.0690   -7.3640   15.4450 C.3       1 SLB         0.1065
      9 C9         -7.4560   -6.4060   16.4690 C.3       1 SLB         0.0727
     10 C10       -12.5740   -5.3820   13.5250 C.2       1 SLB         0.1733
     11 C11       -13.6270   -4.9730   14.5100 C.3       1 SLB         0.0257
     12 N5        -12.0470   -6.5680   13.6580 N.am      1 SLB        -0.2790
     13 O1A        -7.3580   -8.5110   10.6140 O.co2     1 SLB        -0.5426
     14 O1B        -7.5610  -10.6770   11.0430 O.co2     1 SLB        -0.5426
     15 O2         -9.6400  -10.3540   12.6530 O.3       1 SLB        -0.3631
     16 O4        -12.5560   -7.7110   11.0830 O.3       1 SLB        -0.3893
     17 O6         -8.8260   -8.2000   12.8880 O.3       1 SLB        -0.3385
     18 O7         -8.6860   -5.6020   13.9220 O.3       1 SLB        -0.3865
     19 O8         -8.5450   -8.5560   16.0600 O.3       1 SLB        -0.3869
     20 O9         -8.3830   -5.8950   17.3970 O.3       1 SLB        -0.3924
     21 O10       -12.2070   -4.6090   12.6720 O.2       1 SLB        -0.3974
     22 H1        -10.6889   -9.5904   10.4324 H         1 SLB         0.0336
     23 H2         -9.9705   -7.9457   10.3590 H         1 SLB         0.0336
     24 H3        -11.8785   -9.0274   12.4842 H         1 SLB         0.0618
     25 H4        -10.5264   -6.2731   12.2713 H         1 SLB         0.0608
     26 H5        -10.3093   -8.5527   14.2679 H         1 SLB         0.0646
     27 H6        -10.0216   -6.3554   15.3615 H         1 SLB         0.0647
     28 H7         -7.2819   -7.6327   14.7251 H         1 SLB         0.0643
     29 H8         -7.0064   -5.5609   15.9271 H         1 SLB         0.0584
     30 H9         -6.6729   -6.9450   17.0224 H         1 SLB         0.0584
     31 H10       -13.9752   -3.9567   14.2737 H         1 SLB         0.0467
     32 H11       -13.2050   -4.9890   15.5257 H         1 SLB         0.0467
     33 H12       -14.4736   -5.6730   14.4535 H         1 SLB         0.0467
     34 H13       -12.4227   -7.1600   14.3710 H         1 SLB         0.1856
     35 H14        -9.8962  -11.0233   12.0294 H         1 SLB         0.2112
     36 H15       -13.2709   -7.4385   11.6462 H         1 SLB         0.2099
     37 H16        -8.0186   -5.9253   13.3282 H         1 SLB         0.2100
     38 H17        -9.2107   -8.3362   16.7011 H         1 SLB         0.2100
     39 H18        -8.7735   -6.6131   17.8811 H         1 SLB         0.2095
@<TRIPOS>BOND
     1    2    1 1  
     2    1   13 ar 
     3    1   14 ar 
     4    3    2 1  
     5    2   15 1  
     6   17    2 1  
     7    4    3 1  
     8    5    4 1  
     9    4   16 1  
    10    5    6 1  
    11   12    5 1  
    12    6    7 1  
    13    6   17 1  
    14    7    8 1  
    15    7   18 1  
    16    8    9 1  
    17    8   19 1  
    18    9   20 1  
    19   10   11 1  
    20   10   12 am 
    21   10   21 2  
    22    3   22 1  
    23    3   23 1  
    24    4   24 1  
    25    5   25 1  
    26    6   26 1  
    27    7   27 1  
    28    8   28 1  
    29    9   29 1  
    30    9   30 1  
    31   11   31 1  
    32   11   32 1  
    33   11   33 1  
    34   12   34 1  
    35   15   35 1  
    36   16   36 1  
    37   18   37 1  
    38   19   38 1  
    39   20   39 1  
@<TRIPOS>SUBSTRUCTURE
     1 SLB         1

