### 
### Created by X-TOOL on Sat Aug  7 21:31:21 2021
### 

@<TRIPOS>MOLECULE
6h7d_ligand
   24    24     1     0     0
SMALL
GAST_HUCK


@<TRIPOS>ATOM
      1 C2        -19.6590   -5.8720   -2.6360 C.3       1 BGC         0.1339
      2 C3        -19.6900   -6.4150   -1.2430 C.3       1 BGC         0.1141
      3 C4        -20.5910   -5.5980   -0.3740 C.3       1 BGC         0.1119
      4 C5        -22.0060   -5.6520   -0.9450 C.3       1 BGC         0.1130
      5 C6        -22.9760   -4.8570   -0.1220 C.3       1 BGC         0.0730
      6 C1        -21.0710   -5.8990   -3.2270 C.3       1 BGC         0.1854
      7 O1        -21.1470   -5.3340   -4.4530 O.3       1 BGC        -0.3649
      8 O2        -18.7880   -6.6740   -3.4520 O.3       1 BGC        -0.3841
      9 O3        -18.3690   -6.4860   -0.6280 O.3       1 BGC        -0.3864
     10 O4        -20.5710   -6.1050    0.9690 O.3       1 BGC        -0.3865
     11 O5        -22.0190   -5.1500   -2.3400 O.3       1 BGC        -0.3407
     12 O6        -24.1820   -4.8280   -0.8490 O.3       1 BGC        -0.3924
     13 H1        -19.2897   -4.8361   -2.6156 H         1 BGC         0.0671
     14 H2        -20.0934   -7.4370   -1.2947 H         1 BGC         0.0648
     15 H3        -20.2426   -4.5547   -0.3676 H         1 BGC         0.0647
     16 H4        -22.3339   -6.7020   -0.9464 H         1 BGC         0.0647
     17 H5        -22.5984   -3.8351    0.0298 H         1 BGC         0.0584
     18 H6        -23.1316   -5.3392    0.8543 H         1 BGC         0.0584
     19 H7        -21.3917   -6.9486   -3.3003 H         1 BGC         0.0935
     20 H8        -22.0371   -5.4032   -4.7777 H         1 BGC         0.2126
     21 H9        -18.7710   -6.3232   -4.3347 H         1 BGC         0.2101
     22 H10       -17.7927   -7.0046   -1.1771 H         1 BGC         0.2100
     23 H11       -19.6846   -6.0643    1.3085 H         1 BGC         0.2100
     24 H12       -24.0324   -4.4164   -1.6921 H         1 BGC         0.2095
@<TRIPOS>BOND
     1    2    1 1  
     2    1    6 1  
     3    1    8 1  
     4    3    2 1  
     5    2    9 1  
     6    4    3 1  
     7    3   10 1  
     8    5    4 1  
     9    4   11 1  
    10   12    5 1  
    11    6    7 1  
    12    6   11 1  
    13    1   13 1  
    14    2   14 1  
    15    3   15 1  
    16    4   16 1  
    17    5   17 1  
    18    5   18 1  
    19    6   19 1  
    20    7   20 1  
    21    8   21 1  
    22    9   22 1  
    23   10   23 1  
    24   12   24 1  
@<TRIPOS>SUBSTRUCTURE
     1 BGC         1

