### 
### Created by X-TOOL on Mon Aug  2 16:12:00 2021
### 

@<TRIPOS>MOLECULE
6h7f_ligand
   43    45     1     0     0
SMALL
GAST_HUCK


@<TRIPOS>ATOM
      1 CAJ       -69.0480   36.8680    1.0570 C.2       1 FV8        -0.0277
      2 NAN       -69.9180   37.6130    0.3860 N.2       1 FV8        -0.3437
      3 CAI       -71.1690   37.2890    0.8470 C.2       1 FV8         0.0875
      4 NAO       -71.0830   36.3330    1.8310 N.pl3     1 FV8        -0.2625
      5 CAT       -69.7680   36.1060    1.9400 C.2       1 FV8         0.0537
      6 CAK       -69.1230   35.1280    2.9000 C.3       1 FV8         0.0253
      7 CAL       -69.4080   33.6810    2.4670 C.3       1 FV8         0.0740
      8 NAY       -70.8510   33.4640    2.4910 N.am      1 FV8        -0.1480
      9 OAE       -71.5990   34.1650    3.4010 O.3       1 FV8        -0.2689
     10 C         -71.4480   32.5960    1.7010 C.2       1 FV8         0.2135
     11 O         -70.7990   31.9060    0.8660 O.2       1 FV8        -0.3959
     12 CA        -72.8600   32.6020    1.8490 C.3       1 FV8         0.1201
     13 N         -73.3910   33.9680    1.5420 N.2       1 FV8        -0.3232
     14 CB        -73.5800   31.7160    0.8520 C.3       1 FV8         0.1134
     15 CG2       -74.5780   30.7490    1.5360 C.3       1 FV8        -0.0300
     16 OG1       -74.3780   32.5960    0.0530 O.3       1 FV8        -0.2783
     17 CAR       -74.2750   33.8700    0.5280 C.2       1 FV8         0.1645
     18 CAV       -74.8940   34.9120   -0.0790 C.ar      1 FV8         0.0714
     19 CAH       -75.6850   34.6690   -1.2080 C.ar      1 FV8        -0.0578
     20 CAF       -76.3360   35.7220   -1.8740 C.ar      1 FV8        -0.0731
     21 CAG       -76.1760   37.0490   -1.4320 C.ar      1 FV8        -0.0342
     22 CAS       -75.3690   37.2920   -0.3170 C.ar      1 FV8         0.1260
     23 OAC       -75.1590   38.5440    0.1920 O.3       1 FV8        -0.3349
     24 CAU       -74.7340   36.2220    0.3240 C.ar      1 FV8         0.1434
     25 OAD       -73.9760   36.4700    1.4070 O.3       1 FV8        -0.3277
     26 H1        -67.9664   36.8632    0.9299 H         1 FV8         0.0324
     27 H2        -72.0980   37.7269    0.4848 H         1 FV8         0.1149
     28 H3        -71.8501   35.8943    2.3602 H         1 FV8         0.2386
     29 H4        -69.5290   35.2904    3.9093 H         1 FV8         0.0464
     30 H5        -68.0358   35.2951    2.9108 H         1 FV8         0.0464
     31 H6        -68.9166   32.9829    3.1607 H         1 FV8         0.0574
     32 H7        -69.0254   33.5165    1.4489 H         1 FV8         0.0574
     33 H8        -72.5141   33.9281    3.3066 H         1 FV8         0.2493
     34 H9        -73.1133   32.3013    2.8763 H         1 FV8         0.0635
     35 H10       -72.8559   31.1546    0.2433 H         1 FV8         0.0697
     36 H11       -75.0720   30.1310    0.7718 H         1 FV8         0.0261
     37 H12       -75.3350   31.3300    2.0832 H         1 FV8         0.0261
     38 H13       -74.0359   30.0992    2.2387 H         1 FV8         0.0261
     39 H14       -75.7971   33.6548   -1.5738 H         1 FV8         0.0568
     40 H15       -76.9642   35.5112   -2.7319 H         1 FV8         0.0518
     41 H16       -76.6689   37.8661   -1.9462 H         1 FV8         0.0566
     42 H17       -74.5830   38.4859    0.9452 H         1 FV8         0.2444
     43 H18       -73.6127   35.6543    1.7314 H         1 FV8         0.2494
@<TRIPOS>BOND
     1    1    2 1  
     2    1    5 2  
     3    2    3 2  
     4    3    4 1  
     5    4    5 1  
     6    5    6 1  
     7    6    7 1  
     8    7    8 1  
     9    8    9 1  
    10    8   10 am 
    11   10   11 2  
    12   10   12 1  
    13   12   13 1  
    14   12   14 1  
    15   13   17 2  
    16   14   15 1  
    17   14   16 1  
    18   16   17 1  
    19   17   18 1  
    20   18   19 ar 
    21   18   24 ar 
    22   19   20 ar 
    23   20   21 ar 
    24   21   22 ar 
    25   22   23 1  
    26   22   24 ar 
    27   24   25 1  
    28    1   26 1  
    29    3   27 1  
    30    4   28 1  
    31    6   29 1  
    32    6   30 1  
    33    7   31 1  
    34    7   32 1  
    35    9   33 1  
    36   12   34 1  
    37   14   35 1  
    38   15   36 1  
    39   15   37 1  
    40   15   38 1  
    41   19   39 1  
    42   20   40 1  
    43   21   41 1  
    44   23   42 1  
    45   25   43 1  
@<TRIPOS>SUBSTRUCTURE
     1 FV8         1

