### 
### Created by X-TOOL on Wed Jan  1 15:39:38 2020
### 

@<TRIPOS>MOLECULE
6h7j_ligand
   33    33     1     0     0
SMALL
GAST_HUCK


@<TRIPOS>ATOM
      1 CAI        15.5410  -32.4490   -8.9590 C.3       1 5FW        -0.0219
      2 CAG        15.6230  -31.8350  -10.3660 C.3       1 5FW        -0.0282
      3 CAJ        15.4780  -30.2950  -10.3040 C.3       1 5FW        -0.0219
      4 NAD        16.8800  -32.2890  -11.0090 N.4       1 5FW         0.2319
      5 CAF        16.9230  -31.9460  -12.4470 C.3       1 5FW         0.0014
      6 CAE        18.0410  -32.7140  -13.1540 C.3       1 5FW         0.1214
      7 OAA        19.2770  -32.3870  -12.5250 O.3       1 5FW        -0.3759
      8 CAH        18.0600  -32.3720  -14.6520 C.ar      1 5FW        -0.0294
      9 CAK        17.0970  -32.9450  -15.4900 C.ar      1 5FW        -0.0375
     10 CAL        19.0170  -31.5100  -15.1920 C.ar      1 5FW        -0.0775
     11 CAN        19.0110  -31.2260  -16.5610 C.ar      1 5FW        -0.0481
     12 CAO        18.0500  -31.8030  -17.3900 C.ar      1 5FW         0.1088
     13 OAC        18.0440  -31.5300  -18.7160 O.3       1 5FW        -0.3414
     14 CAM        17.0940  -32.6670  -16.8580 C.ar      1 5FW         0.1099
     15 OAB        16.1530  -33.2400  -17.6550 O.3       1 5FW        -0.3385
     16 H1         14.6124  -32.1206   -8.4692 H         1 5FW         0.0284
     17 H2         16.4056  -32.1195   -8.3641 H         1 5FW         0.0284
     18 H3         15.5462  -33.5462   -9.0368 H         1 5FW         0.0284
     19 H4         14.7825  -32.2203  -10.9618 H         1 5FW         0.0845
     20 H5         15.5398  -29.8797  -11.3207 H         1 5FW         0.0284
     21 H6         16.2859  -29.8752   -9.6867 H         1 5FW         0.0284
     22 H7         14.5053  -30.0358   -9.8606 H         1 5FW         0.0284
     23 H8         16.9526  -33.2896  -10.9110 H         1 5FW         0.2018
     24 H9         17.6596  -31.8486  -10.5461 H         1 5FW         0.2018
     25 H10        17.1027  -30.8662  -12.5552 H         1 5FW         0.0861
     26 H11        15.9590  -32.2055  -12.9089 H         1 5FW         0.0861
     27 H12        17.8612  -33.7937  -13.0453 H         1 5FW         0.0789
     28 H13        19.4291  -31.4519  -12.5952 H         1 5FW         0.2129
     29 H14        16.3482  -33.6093  -15.0741 H         1 5FW         0.0451
     30 H15        19.7652  -31.0607  -14.5491 H         1 5FW         0.0437
     31 H16        19.7544  -30.5564  -16.9783 H         1 5FW         0.0492
     32 H17        17.3307  -32.0000  -19.1317 H         1 5FW         0.2420
     33 H18        15.6340  -32.5605  -18.0691 H         1 5FW         0.2442
@<TRIPOS>BOND
     1    1    2 1  
     2    2    3 1  
     3    2    4 1  
     4    4    5 1  
     5    5    6 1  
     6    6    7 1  
     7    6    8 1  
     8    8    9 ar 
     9    8   10 ar 
    10    9   14 ar 
    11   10   11 ar 
    12   11   12 ar 
    13   12   13 1  
    14   12   14 ar 
    15   14   15 1  
    16    1   16 1  
    17    1   17 1  
    18    1   18 1  
    19    2   19 1  
    20    3   20 1  
    21    3   21 1  
    22    3   22 1  
    23    4   23 1  
    24    4   24 1  
    25    5   25 1  
    26    5   26 1  
    27    6   27 1  
    28    7   28 1  
    29    9   29 1  
    30   10   30 1  
    31   11   31 1  
    32   13   32 1  
    33   15   33 1  
@<TRIPOS>SUBSTRUCTURE
     1 5FW         1

