### 
### Created by X-TOOL on Wed Jan  1 15:39:38 2020
### 

@<TRIPOS>MOLECULE
6h7l_ligand
   46    47     1     0     0
SMALL
GAST_HUCK


@<TRIPOS>ATOM
      1 O3        -42.0220   25.8830   -2.8610 O.3       1 Y00        -0.3376
      2 C16       -42.2350   26.1080   -4.1770 C.ar      1 Y00         0.0805
      3 C15       -43.5260   26.0060   -4.6990 C.ar      1 Y00        -0.0398
      4 C14       -43.7460   26.2320   -6.0560 C.ar      1 Y00        -0.0687
      5 C17       -41.1610   26.4380   -4.9920 C.ar      1 Y00        -0.0398
      6 C18       -41.3740   26.6470   -6.3490 C.ar      1 Y00        -0.0687
      7 C13       -42.6700   26.5540   -6.8840 C.ar      1 Y00        -0.0535
      8 C12       -42.9110   26.7930   -8.3580 C.3       1 Y00        -0.0192
      9 C11       -42.8430   28.2930   -8.6240 C.3       1 Y00        -0.0017
     10 C9        -42.8990   28.6260  -10.1140 C.3       1 Y00        -0.0238
     11 C10       -43.0940   30.1350  -10.2660 C.3       1 Y00        -0.0215
     12 N1        -41.7110   28.1510  -10.8230 N.4       1 Y00         0.2304
     13 C8        -41.7230   28.0030  -12.2670 C.3       1 Y00        -0.0254
     14 C1        -40.3820   27.6110  -12.8790 C.3       1 Y00         0.0137
     15 C2        -40.3970   27.8660  -14.3810 C.ar      1 Y00        -0.0576
     16 C7        -41.4260   27.3420  -15.1910 C.ar      1 Y00        -0.0399
     17 C6        -41.4440   27.5810  -16.5640 C.ar      1 Y00         0.1098
     18 O1        -42.4340   27.0790  -17.3560 O.3       1 Y00        -0.3385
     19 C5        -40.3570   28.3960  -17.1560 C.ar      1 Y00         0.1088
     20 O2        -40.3560   28.6440  -18.4920 O.3       1 Y00        -0.3414
     21 C4        -39.3610   28.9000  -16.3250 C.ar      1 Y00        -0.0482
     22 C3        -39.3780   28.6340  -14.9560 C.ar      1 Y00        -0.0799
     23 H1        -42.5286   26.5024   -2.3489 H         1 Y00         0.2458
     24 H2        -44.3557   25.7514   -4.0495 H         1 Y00         0.0525
     25 H3        -44.7467   26.1582   -6.4660 H         1 Y00         0.0530
     26 H4        -40.1654   26.5318   -4.5737 H         1 Y00         0.0525
     27 H5        -40.5376   26.8826   -6.9971 H         1 Y00         0.0530
     28 H6        -43.9040   26.4115   -8.6380 H         1 Y00         0.0407
     29 H7        -42.1398   26.2765   -8.9483 H         1 Y00         0.0407
     30 H8        -41.9008   28.6822   -8.2108 H         1 Y00         0.0339
     31 H9        -43.6923   28.7792   -8.1217 H         1 Y00         0.0339
     32 H10       -43.7724   28.1189  -10.5498 H         1 Y00         0.0849
     33 H11       -43.1367   30.3934  -11.3344 H         1 Y00         0.0284
     34 H12       -42.2520   30.6629   -9.7945 H         1 Y00         0.0284
     35 H13       -44.0336   30.4343   -9.7786 H         1 Y00         0.0284
     36 H14       -41.4909   27.2441  -10.4419 H         1 Y00         0.2018
     37 H15       -40.9679   28.7963  -10.6054 H         1 Y00         0.2018
     38 H16       -42.0331   28.9622  -12.7071 H         1 Y00         0.0835
     39 H17       -42.4577   27.2263  -12.5257 H         1 Y00         0.0835
     40 H18       -40.1957   26.5429  -12.6933 H         1 Y00         0.0456
     41 H19       -39.5825   28.2085  -12.4166 H         1 Y00         0.0456
     42 H20       -42.2118   26.7466  -14.7405 H         1 Y00         0.0450
     43 H21       -42.2822   27.3425  -18.2561 H         1 Y00         0.2442
     44 H22       -39.6004   29.1754  -18.7137 H         1 Y00         0.2420
     45 H23       -38.5653   29.5044  -16.7452 H         1 Y00         0.0492
     46 H24       -38.5886   29.0288  -14.3267 H         1 Y00         0.0436
@<TRIPOS>BOND
     1    1    2 1  
     2    2    3 ar 
     3    2    5 ar 
     4    3    4 ar 
     5    4    7 ar 
     6    5    6 ar 
     7    6    7 ar 
     8    7    8 1  
     9    8    9 1  
    10    9   10 1  
    11   10   11 1  
    12   10   12 1  
    13   12   13 1  
    14   13   14 1  
    15   14   15 1  
    16   15   16 ar 
    17   15   22 ar 
    18   16   17 ar 
    19   17   18 1  
    20   17   19 ar 
    21   19   20 1  
    22   19   21 ar 
    23   21   22 ar 
    24    1   23 1  
    25    3   24 1  
    26    4   25 1  
    27    5   26 1  
    28    6   27 1  
    29    8   28 1  
    30    8   29 1  
    31    9   30 1  
    32    9   31 1  
    33   10   32 1  
    34   11   33 1  
    35   11   34 1  
    36   11   35 1  
    37   12   36 1  
    38   12   37 1  
    39   13   38 1  
    40   13   39 1  
    41   14   40 1  
    42   14   41 1  
    43   16   42 1  
    44   18   43 1  
    45   20   44 1  
    46   21   45 1  
    47   22   46 1  
@<TRIPOS>SUBSTRUCTURE
     1 Y00         1

