### 
### Created by X-TOOL on Wed Jan  1 15:39:38 2020
### 

@<TRIPOS>MOLECULE
6h7m_ligand
   39    39     1     0     0
SMALL
GAST_HUCK


@<TRIPOS>ATOM
      1 O2        -14.8610  -32.6710   17.9800 O.3       1 68H        -0.3845
      2 C2        -15.9480  -33.5920   17.7780 C.3       1 68H         0.0750
      3 C12       -17.0480  -33.0170   16.9130 C.ar      1 68H         0.0050
      4 C11       -18.1100  -32.1550   17.4790 C.ar      1 68H         0.0843
      5 O1        -18.1230  -31.8350   18.7980 O.3       1 68H        -0.3413
      6 C10       -19.1100  -31.6730   16.6270 C.ar      1 68H        -0.0462
      7 C9        -19.1090  -31.9880   15.2660 C.ar      1 68H        -0.0732
      8 C13       -17.0950  -33.3090   15.5520 C.ar      1 68H        -0.0622
      9 C8        -18.1160  -32.8080   14.7240 C.ar      1 68H        -0.0271
     10 C1        -18.0800  -33.1720   13.2770 C.3       1 68H         0.1223
     11 O3        -19.2940  -32.9000   12.5660 O.3       1 68H        -0.3758
     12 C3        -16.9030  -32.4270   12.6550 C.3       1 68H         0.0017
     13 N1        -16.8900  -32.5570   11.2080 N.4       1 68H         0.2339
     14 C4        -15.6810  -32.3090   10.4270 C.3       1 68H        -0.0202
     15 C7        -16.0640  -32.4290    8.9420 C.3       1 68H        -0.0193
     16 C6        -15.1640  -30.8830   10.6980 C.3       1 68H        -0.0193
     17 C5        -14.6200  -33.3690   10.8050 C.3       1 68H        -0.0193
     18 H1        -14.1998  -33.0784   18.5270 H         1 68H         0.2122
     19 H2        -16.3726  -33.8556   18.7579 H         1 68H         0.0697
     20 H3        -15.5560  -34.4979   17.2926 H         1 68H         0.0697
     21 H4        -18.8712  -31.2787   18.9804 H         1 68H         0.2433
     22 H5        -19.8973  -31.0457   17.0292 H         1 68H         0.0505
     23 H6        -19.8870  -31.5920   14.6235 H         1 68H         0.0473
     24 H7        -16.3254  -33.9382   15.1198 H         1 68H         0.0469
     25 H8        -17.8928  -34.2534   13.2024 H         1 68H         0.0789
     26 H9        -19.4859  -31.9708   12.6132 H         1 68H         0.2129
     27 H10       -15.9665  -32.8394   13.0585 H         1 68H         0.0861
     28 H11       -16.9771  -31.3611   12.9166 H         1 68H         0.0861
     29 H12       -17.5885  -31.9193   10.8596 H         1 68H         0.2021
     30 H13       -17.1690  -33.5043   11.0057 H         1 68H         0.2021
     31 H14       -15.1760  -32.2480    8.3186 H         1 68H         0.0287
     32 H15       -16.8383  -31.6855    8.7018 H         1 68H         0.0287
     33 H16       -16.4515  -33.4392    8.7437 H         1 68H         0.0287
     34 H17       -14.2540  -30.7044   10.1065 H         1 68H         0.0287
     35 H18       -14.9331  -30.7738   11.7679 H         1 68H         0.0287
     36 H19       -15.9357  -30.1528   10.4130 H         1 68H         0.0287
     37 H20       -13.7031  -33.1936   10.2232 H         1 68H         0.0287
     38 H21       -15.0093  -34.3733   10.5818 H         1 68H         0.0287
     39 H22       -14.3930  -33.2939   11.8787 H         1 68H         0.0287
@<TRIPOS>BOND
     1    1    2 1  
     2    2    3 1  
     3    3    4 ar 
     4    3    8 ar 
     5    4    5 1  
     6    4    6 ar 
     7    6    7 ar 
     8    7    9 ar 
     9    8    9 ar 
    10    9   10 1  
    11   10   11 1  
    12   10   12 1  
    13   12   13 1  
    14   13   14 1  
    15   14   15 1  
    16   14   16 1  
    17   14   17 1  
    18    1   18 1  
    19    2   19 1  
    20    2   20 1  
    21    5   21 1  
    22    6   22 1  
    23    7   23 1  
    24    8   24 1  
    25   10   25 1  
    26   11   26 1  
    27   12   27 1  
    28   12   28 1  
    29   13   29 1  
    30   13   30 1  
    31   15   31 1  
    32   15   32 1  
    33   15   33 1  
    34   16   34 1  
    35   16   35 1  
    36   16   36 1  
    37   17   37 1  
    38   17   38 1  
    39   17   39 1  
@<TRIPOS>SUBSTRUCTURE
     1 68H         1

