### 
### Created by X-TOOL on Wed Jan  1 15:39:38 2020
### 

@<TRIPOS>MOLECULE
6h7n_ligand
   50    51     1     0     0
SMALL
GAST_HUCK


@<TRIPOS>ATOM
      1 C4        -17.3270  -34.0940    6.0430 C.3       1 FVK         0.0577
      2 C5        -15.2560  -33.7680    7.4740 C.2       1 FVK         0.2602
      3 C6        -15.1180  -32.0700    9.2160 C.3       1 FVK         0.0711
      4 C3        -17.3540  -34.1660    4.5350 C.3       1 FVK         0.0678
      5 C1        -15.5350  -35.7300    6.0030 C.3       1 FVK         0.0577
      6 C2        -15.5920  -35.6850    4.4980 C.3       1 FVK         0.0678
      7 O2        -14.0800  -34.0690    7.6670 O.2       1 FVK        -0.4007
      8 O5        -19.6850  -32.9940   11.3470 O.3       1 FVK        -0.3839
      9 O4        -18.2920  -31.0870   19.7690 O.3       1 FVK        -0.3404
     10 O3        -18.3210  -33.2730   14.7050 O.3       1 FVK        -0.3224
     11 O1        -16.9160  -35.4290    4.0480 O.3       1 FVK        -0.3758
     12 N1        -16.0070  -34.4600    6.5490 N.am      1 FVK        -0.2551
     13 N2        -15.8300  -32.8170    8.1870 N.am      1 FVK        -0.2679
     14 C7        -16.0150  -31.6660   10.3690 C.3       1 FVK        -0.0132
     15 N3        -17.0220  -32.6760   10.7040 N.4       1 FVK         0.2303
     16 C8        -17.4030  -32.6610   12.1170 C.3       1 FVK        -0.0044
     17 C9        -18.7480  -33.3330   12.3600 C.3       1 FVK         0.1218
     18 C10       -19.2920  -32.9180   13.7100 C.3       1 FVK         0.0988
     19 C11       -18.3690  -32.6920   15.9480 C.ar      1 FVK         0.0799
     20 C12       -17.3530  -33.0370   16.8290 C.ar      1 FVK        -0.0415
     21 C13       -17.3200  -32.5000   18.1080 C.ar      1 FVK        -0.0417
     22 C14       -18.3070  -31.6190   18.5190 C.ar      1 FVK         0.0763
     23 C15       -19.3210  -31.2760   17.6430 C.ar      1 FVK        -0.0417
     24 C16       -19.3560  -31.8070   16.3650 C.ar      1 FVK        -0.0415
     25 H1        -18.0765  -34.7875    6.4520 H         1 FVK         0.0542
     26 H2        -17.5647  -33.0681    6.3607 H         1 FVK         0.0542
     27 H3        -14.6958  -31.1609    8.7629 H         1 FVK         0.0570
     28 H4        -14.3033  -32.6974    9.6066 H         1 FVK         0.0570
     29 H5        -16.6951  -33.3832    4.1314 H         1 FVK         0.0580
     30 H6        -18.3841  -33.9918    4.1907 H         1 FVK         0.0580
     31 H7        -14.4977  -35.9041    6.3251 H         1 FVK         0.0542
     32 H8        -16.1747  -36.5464    6.3694 H         1 FVK         0.0542
     33 H9        -15.2556  -36.6519    4.0957 H         1 FVK         0.0580
     34 H10       -14.9279  -34.8862    4.1361 H         1 FVK         0.0580
     35 H11       -19.8139  -32.0528   11.3386 H         1 FVK         0.2101
     36 H12       -19.0387  -30.5094   19.8751 H         1 FVK         0.2444
     37 H13       -16.7909  -32.6007    8.0143 H         1 FVK         0.1847
     38 H14       -16.5326  -30.7340   10.0982 H         1 FVK         0.0833
     39 H15       -15.3870  -31.4925   11.2552 H         1 FVK         0.0833
     40 H16       -16.6498  -33.5860   10.4819 H         1 FVK         0.2015
     41 H17       -17.8452  -32.5048   10.1481 H         1 FVK         0.2015
     42 H18       -17.4631  -31.6163   12.4561 H         1 FVK         0.0840
     43 H19       -16.6329  -33.1910   12.6967 H         1 FVK         0.0840
     44 H20       -18.6017  -34.4232   12.3535 H         1 FVK         0.0674
     45 H21       -19.4634  -31.8316   13.7259 H         1 FVK         0.0637
     46 H22       -20.2389  -33.4415   13.9083 H         1 FVK         0.0637
     47 H23       -16.5807  -33.7302   16.5157 H         1 FVK         0.0516
     48 H24       -16.5198  -32.7705   18.7874 H         1 FVK         0.0516
     49 H25       -20.0945  -30.5858   17.9598 H         1 FVK         0.0516
     50 H26       -20.1559  -31.5316   15.6873 H         1 FVK         0.0516
@<TRIPOS>BOND
     1    1    4 1  
     2   12    1 1  
     3    2    7 2  
     4    2   12 am 
     5   13    2 am 
     6    3   13 1  
     7   14    3 1  
     8    4   11 1  
     9    5    6 1  
    10   12    5 1  
    11    6   11 1  
    12   17    8 1  
    13   22    9 1  
    14   10   18 1  
    15   19   10 1  
    16   15   14 1  
    17   16   15 1  
    18   17   16 1  
    19   18   17 1  
    20   20   19 ar 
    21   19   24 ar 
    22   21   20 ar 
    23   21   22 ar 
    24   22   23 ar 
    25   23   24 ar 
    26    1   25 1  
    27    1   26 1  
    28    3   27 1  
    29    3   28 1  
    30    4   29 1  
    31    4   30 1  
    32    5   31 1  
    33    5   32 1  
    34    6   33 1  
    35    6   34 1  
    36    8   35 1  
    37    9   36 1  
    38   13   37 1  
    39   14   38 1  
    40   14   39 1  
    41   15   40 1  
    42   15   41 1  
    43   16   42 1  
    44   16   43 1  
    45   17   44 1  
    46   18   45 1  
    47   18   46 1  
    48   20   47 1  
    49   21   48 1  
    50   23   49 1  
    51   24   50 1  
@<TRIPOS>SUBSTRUCTURE
     1 FVK         1

