### 
### Created by X-TOOL on Wed Jan  1 15:39:38 2020
### 

@<TRIPOS>MOLECULE
6h7o_ligand
   43    44     1     0     0
SMALL
GAST_HUCK


@<TRIPOS>ATOM
      1 O2        -19.7330  -32.2460   11.1690 O.3       1 P32        -0.3838
      2 C10       -18.7990  -32.5390   12.2170 C.3       1 P32         0.1225
      3 N3        -12.9560  -33.5470   18.1000 N.1       1 P32        -0.3474
      4 C11       -17.4620  -31.8500   11.9620 C.3       1 P32        -0.0040
      5 N2        -17.0350  -32.0250   10.5890 N.4       1 P32         0.2326
      6 C12       -15.7480  -31.5410   10.1200 C.3       1 P32        -0.0203
      7 C15       -14.6240  -31.9170   11.0960 C.3       1 P32        -0.0193
      8 C13       -15.7580  -30.0200    9.9620 C.3       1 P32        -0.0193
      9 C9        -19.2960  -32.0740   13.5830 C.3       1 P32         0.1026
     10 O1        -18.3480  -32.4670   14.5850 O.3       1 P32        -0.3139
     11 C4        -18.3180  -31.9950   15.8720 C.ar      1 P32         0.0933
     12 C5        -19.3780  -31.3050   16.4540 C.ar      1 P32        -0.0436
     13 C6        -19.3230  -30.8480   17.7770 C.ar      1 P32        -0.0812
     14 C7        -18.2100  -31.0400   18.6000 C.ar      1 P32        -0.0490
     15 C8        -17.1060  -31.7160   18.1220 C.ar      1 P32         0.0659
     16 C3        -17.1260  -32.2210   16.7190 C.ar      1 P32         0.0296
     17 N1        -15.9080  -32.0420   18.6690 N.pl3     1 P32        -0.2622
     18 C1        -15.2800  -32.6990   17.6700 C.2       1 P32         0.1707
     19 C2        -15.9140  -32.9000   16.3170 C.2       1 P32        -0.0182
     20 C16       -14.0360  -33.1440   17.9240 C.1       1 P32         0.1054
     21 C14       -15.5020  -32.2010    8.7570 C.3       1 P32        -0.0193
     22 H1        -19.8753  -31.3077   11.1264 H         1 P32         0.2101
     23 H2        -18.6451  -33.6278   12.2456 H         1 P32         0.0674
     24 H3        -16.7030  -32.2811   12.6313 H         1 P32         0.0840
     25 H4        -17.5669  -30.7751   12.1707 H         1 P32         0.0840
     26 H5        -17.7322  -31.5756   10.0163 H         1 P32         0.2020
     27 H6        -17.0450  -33.0176   10.4138 H         1 P32         0.2020
     28 H7        -13.6647  -31.5376   10.7141 H         1 P32         0.0287
     29 H8        -14.5731  -33.0116   11.1926 H         1 P32         0.0287
     30 H9        -14.8288  -31.4711   12.0805 H         1 P32         0.0287
     31 H10       -14.7734  -29.6818    9.6066 H         1 P32         0.0287
     32 H11       -15.9780  -29.5519   10.9328 H         1 P32         0.0287
     33 H12       -16.5297  -29.7321    9.2329 H         1 P32         0.0287
     34 H13       -20.2712  -32.5357   13.7971 H         1 P32         0.0646
     35 H14       -19.4006  -30.9790   13.5840 H         1 P32         0.0646
     36 H15       -20.2699  -31.1163   15.8675 H         1 P32         0.0435
     37 H16       -20.1812  -30.3225   18.1800 H         1 P32         0.0550
     38 H17       -18.2139  -30.6577   19.6144 H         1 P32         0.0448
     39 H18       -15.5612  -31.8378   19.6171 H         1 P32         0.2245
     40 H19       -15.5858  -33.3739   15.3931 H         1 P32         0.0541
     41 H20       -14.5341  -31.8653    8.3564 H         1 P32         0.0287
     42 H21       -16.3052  -31.9164    8.0614 H         1 P32         0.0287
     43 H22       -15.4902  -33.2945    8.8759 H         1 P32         0.0287
@<TRIPOS>BOND
     1    2    1 1  
     2    2    4 1  
     3    9    2 1  
     4   20    3 3  
     5    4    5 1  
     6    5    6 1  
     7    6    7 1  
     8    6    8 1  
     9    6   21 1  
    10   10    9 1  
    11   11   10 1  
    12   11   12 ar 
    13   16   11 ar 
    14   12   13 ar 
    15   14   13 ar 
    16   15   14 ar 
    17   16   15 ar 
    18   17   15 1  
    19   19   16 1  
    20   18   17 1  
    21   18   19 2  
    22   18   20 1  
    23    1   22 1  
    24    2   23 1  
    25    4   24 1  
    26    4   25 1  
    27    5   26 1  
    28    5   27 1  
    29    7   28 1  
    30    7   29 1  
    31    7   30 1  
    32    8   31 1  
    33    8   32 1  
    34    8   33 1  
    35    9   34 1  
    36    9   35 1  
    37   12   36 1  
    38   13   37 1  
    39   14   38 1  
    40   17   39 1  
    41   19   40 1  
    42   21   41 1  
    43   21   42 1  
    44   21   43 1  
@<TRIPOS>SUBSTRUCTURE
     1 P32         1

