### 
### Created by X-TOOL on Mon Aug  2 16:13:44 2021
### 

@<TRIPOS>MOLECULE
6h7u_ligand
   18    17     1     0     0
SMALL
GAST_HUCK


@<TRIPOS>ATOM
      1 C1         21.7310    4.7090   32.8500 C.3       1 FVT         0.0162
      2 C3         19.2370    4.8520   33.0330 C.2       1 FVT         0.1508
      3 O2         18.8370    5.9310   32.6500 O.2       1 FVT        -0.3858
      4 C4         18.4540    3.5810   32.7640 C.3       1 FVT         0.0381
      5 N          17.0100    3.7610   32.6200 N.4       1 FVT         0.2351
      6 C          20.5340    4.7260   33.7880 C.3       1 FVT         0.0379
      7 C2         23.0520    4.7930   33.5590 C.2       1 FVT         0.0371
      8 O          23.7870    5.7590   33.4720 O.co2     1 FVT        -0.5688
      9 O1         23.3370    3.7280   34.2720 O.co2     1 FVT        -0.5688
     10 H1         21.6487    5.5662   32.1656 H         1 FVT         0.0456
     11 H2         21.7059    3.7739   32.2712 H         1 FVT         0.0456
     12 H3         18.6294    2.8891   33.6009 H         1 FVT         0.1053
     13 H4         18.8363    3.1356   31.8337 H         1 FVT         0.1053
     14 H5         16.5760    2.8683   32.4446 H         1 FVT         0.2012
     15 H6         16.8241    4.3823   31.8483 H         1 FVT         0.2012
     16 H7         16.6345    4.1564   33.4677 H         1 FVT         0.2012
     17 H8         20.6312    5.5798   34.4747 H         1 FVT         0.0514
     18 H9         20.5206    3.7902   34.3660 H         1 FVT         0.0514
@<TRIPOS>BOND
     1    6    1 1  
     2    1    7 1  
     3    2    3 2  
     4    2    4 1  
     5    2    6 1  
     6    4    5 1  
     7    7    8 ar 
     8    7    9 ar 
     9    1   10 1  
    10    1   11 1  
    11    4   12 1  
    12    4   13 1  
    13    5   14 1  
    14    5   15 1  
    15    5   16 1  
    16    6   17 1  
    17    6   18 1  
@<TRIPOS>SUBSTRUCTURE
     1 FVT         1

