### 
### Created by X-TOOL on Wed Jan  1 15:39:35 2020
### 

@<TRIPOS>MOLECULE
6h7y_ligand
   49    49     1     0     0
SMALL
GAST_HUCK


@<TRIPOS>ATOM
      1 OBC        13.1830   47.2470   39.6330 O.co2     1 FVZ        -0.5690
      2 CBB        13.9650   47.8970   40.3730 C.2       1 FVZ         0.0350
      3 OBD        13.8740   49.1330   40.6230 O.co2     1 FVZ        -0.5690
      4 CBA        15.1300   47.1420   41.0670 C.3       1 FVZ         0.0038
      5 CAZ        14.8810   45.6220   41.1470 C.3       1 FVZ        -0.0066
      6 CAV        16.2230   44.8740   41.5430 C.3       1 FVZ         0.0962
      7 CAW        17.2000   44.9900   40.3520 C.2       1 FVZ         0.0600
      8 OAY        17.0240   44.1690   39.3710 O.co2     1 FVZ        -0.5666
      9 OAX        18.1100   45.8960   40.4100 O.co2     1 FVZ        -0.5666
     10 NAU        16.9130   45.4180   42.7340 N.am      1 FVZ        -0.2575
     11 CAA        18.1500   44.9370   43.0880 C.2       1 FVZ         0.2608
     12 OAT        18.5610   43.8380   42.6510 O.2       1 FVZ        -0.4006
     13 N          18.8450   45.7080   43.8920 N.am      1 FVZ        -0.2576
     14 CA         20.1590   45.3190   44.4860 C.3       1 FVZ         0.0948
     15 C          20.3240   45.9870   45.8290 C.2       1 FVZ         0.0599
     16 OXT        20.9340   45.3140   46.6960 O.co2     1 FVZ        -0.5666
     17 O          19.8840   47.1830   45.9770 O.co2     1 FVZ        -0.5666
     18 CB         21.2500   45.6940   43.4650 C.3       1 FVZ        -0.0161
     19 CAM        22.5550   45.0590   43.9240 C.3       1 FVZ        -0.0320
     20 CAL        23.6420   44.9900   42.7870 C.3       1 FVZ         0.0431
     21 CAJ        24.3900   46.3680   42.5980 C.2       1 FVZ         0.2026
     22 OAK        24.5520   47.0950   43.5490 O.2       1 FVZ        -0.3854
     23 NAI        24.7420   46.6970   41.3620 N.am      1 FVZ        -0.2361
     24 CAC        25.5360   47.7360   40.9630 C.ar      1 FVZ         0.0625
     25 CAB        26.6550   48.2190   41.6700 C.ar      1 FVZ        -0.0426
     26 CAD        27.4920   49.2220   41.1270 C.ar      1 FVZ        -0.0417
     27 CAF        27.2450   49.7080   39.8310 C.ar      1 FVZ         0.1158
     28 FAH        28.1120   50.7550   39.2450 F         1 FVZ        -0.1963
     29 CAG        26.1710   49.1770   39.1060 C.ar      1 FVZ        -0.0417
     30 CAE        25.3680   48.1810   39.6580 C.ar      1 FVZ        -0.0426
     31 H1         15.2471   47.5349   42.0877 H         1 FVZ         0.0432
     32 H2         16.0544   47.3189   40.4977 H         1 FVZ         0.0432
     33 H3         14.5355   45.2572   40.1685 H         1 FVZ         0.0323
     34 H4         14.1122   45.4180   41.9068 H         1 FVZ         0.0323
     35 H5         15.9868   43.8162   41.7310 H         1 FVZ         0.0724
     36 H6         16.4793   46.1347   43.2802 H         1 FVZ         0.1869
     37 H7         18.4730   46.6078   44.1199 H         1 FVZ         0.1869
     38 H8         20.1831   44.2302   44.6403 H         1 FVZ         0.0723
     39 H9         21.3612   46.7875   43.4208 H         1 FVZ         0.0307
     40 H10        20.9781   45.3126   42.4697 H         1 FVZ         0.0307
     41 H11        22.3442   44.0361   44.2692 H         1 FVZ         0.0291
     42 H12        22.9583   45.6517   44.7583 H         1 FVZ         0.0291
     43 H13        23.1496   44.7208   41.8410 H         1 FVZ         0.0507
     44 H14        24.3808   44.2181   43.0485 H         1 FVZ         0.0507
     45 H15        24.3828   46.1140   40.6333 H         1 FVZ         0.2244
     46 H16        26.8792   47.8137   42.6501 H         1 FVZ         0.0494
     47 H17        28.3196   49.6138   41.7072 H         1 FVZ         0.0566
     48 H18        25.9627   49.5437   38.1074 H         1 FVZ         0.0566
     49 H19        24.5872   47.7393   39.0495 H         1 FVZ         0.0494
@<TRIPOS>BOND
     1    1    2 ar 
     2    2    3 ar 
     3    2    4 1  
     4    4    5 1  
     5    5    6 1  
     6    6    7 1  
     7    6   10 1  
     8    7    8 ar 
     9    7    9 ar 
    10   10   11 am 
    11   11   12 2  
    12   11   13 am 
    13   13   14 1  
    14   14   15 1  
    15   14   18 1  
    16   15   16 ar 
    17   15   17 ar 
    18   18   19 1  
    19   19   20 1  
    20   20   21 1  
    21   21   22 2  
    22   21   23 am 
    23   23   24 1  
    24   24   25 ar 
    25   24   30 ar 
    26   25   26 ar 
    27   26   27 ar 
    28   27   28 1  
    29   27   29 ar 
    30   29   30 ar 
    31    4   31 1  
    32    4   32 1  
    33    5   33 1  
    34    5   34 1  
    35    6   35 1  
    36   10   36 1  
    37   13   37 1  
    38   14   38 1  
    39   18   39 1  
    40   18   40 1  
    41   19   41 1  
    42   19   42 1  
    43   20   43 1  
    44   20   44 1  
    45   23   45 1  
    46   25   46 1  
    47   26   47 1  
    48   29   48 1  
    49   30   49 1  
@<TRIPOS>SUBSTRUCTURE
     1 FVZ         1

