### 
### Created by X-TOOL on Wed Jan  1 15:39:35 2020
### 

@<TRIPOS>MOLECULE
6h7z_ligand
   51    51     1     0     0
SMALL
GAST_HUCK


@<TRIPOS>ATOM
      1 OBD        13.0120   46.9510   39.2630 O.co2     1 FVW        -0.5690
      2 CAN        13.8200   47.4770   40.0940 C.2       1 FVW         0.0350
      3 OBE        13.8360   48.7140   40.3610 O.co2     1 FVW        -0.5690
      4 CAL        15.0330   46.6970   40.6550 C.3       1 FVW         0.0038
      5 CAK        14.7780   45.2220   40.8720 C.3       1 FVW        -0.0066
      6 CAG        16.1150   44.5170   41.2080 C.3       1 FVW         0.0962
      7 CAJ        17.0750   44.6450   40.0360 C.2       1 FVW         0.0600
      8 OBC        17.9230   45.5960   40.0580 O.co2     1 FVW        -0.5666
      9 OBB        16.8780   43.8950   39.0220 O.co2     1 FVW        -0.5666
     10 NAF        16.7890   45.1010   42.3430 N.am      1 FVW        -0.2575
     11 CAE        17.9720   44.6730   42.7370 C.2       1 FVW         0.2608
     12 OAH        18.4360   43.6030   42.2430 O.2       1 FVW        -0.4006
     13 N          18.5760   45.4590   43.6060 N.am      1 FVW        -0.2576
     14 CA         19.7890   45.0560   44.2410 C.3       1 FVW         0.0948
     15 C          20.0060   45.8110   45.5630 C.2       1 FVW         0.0599
     16 OXT        20.7220   45.2480   46.4030 O.co2     1 FVW        -0.5666
     17 O          19.4860   46.9610   45.6460 O.co2     1 FVW        -0.5666
     18 CB         20.9730   45.3500   43.2550 C.3       1 FVW        -0.0161
     19 CAD        21.3700   46.8410   43.1930 C.3       1 FVW        -0.0320
     20 CAM        22.6180   47.0230   42.3180 C.3       1 FVW         0.0435
     21 CAO        23.9120   47.0830   43.0830 C.2       1 FVW         0.2058
     22 OAP        23.8460   47.0210   44.2980 O.2       1 FVW        -0.3848
     23 NAQ        25.0540   47.3700   42.4080 N.am      1 FVW        -0.2203
     24 CAY        26.2850   47.4210   43.2080 C.3       1 FVW         0.0446
     25 CAR        25.1200   47.4510   41.0520 C.ar      1 FVW         0.0893
     26 CAS        25.2650   48.6630   40.3780 C.ar      1 FVW        -0.0248
     27 CAT        25.3130   48.6760   38.9960 C.ar      1 FVW        -0.0106
     28 CAU        25.2250   47.4570   38.3210 C.ar      1 FVW         0.1961
     29 FAX        25.2500   47.4290   37.1050 F         1 FVW        -0.1664
     30 NAV        25.0930   46.2910   38.9520 N.ar      1 FVW        -0.2818
     31 CAW        25.0410   46.2810   40.3210 C.ar      1 FVW         0.0254
     32 H1         15.3134   47.1438   41.6203 H         1 FVW         0.0432
     33 H2         15.8676   46.8017   39.9462 H         1 FVW         0.0432
     34 H3         14.3512   44.7842   39.9576 H         1 FVW         0.0323
     35 H4         14.0728   45.0895   41.7058 H         1 FVW         0.0323
     36 H5         15.9106   43.4556   41.4122 H         1 FVW         0.0724
     37 H6         16.3485   45.8474   42.8419 H         1 FVW         0.1869
     38 H7         18.1785   46.3505   43.8234 H         1 FVW         0.1869
     39 H8         19.7463   43.9772   44.4515 H         1 FVW         0.0723
     40 H9         20.6742   45.0275   42.2467 H         1 FVW         0.0307
     41 H10        21.8491   44.7701   43.5808 H         1 FVW         0.0307
     42 H11        21.5836   47.2024   44.2097 H         1 FVW         0.0292
     43 H12        20.5388   47.4205   42.7649 H         1 FVW         0.0292
     44 H13        22.5085   47.9609   41.7539 H         1 FVW         0.0508
     45 H14        22.6723   46.1774   41.6166 H         1 FVW         0.0508
     46 H15        26.0320   47.3416   44.2756 H         1 FVW         0.0549
     47 H16        26.8028   48.3738   43.0238 H         1 FVW         0.0549
     48 H17        26.9419   46.5857   42.9238 H         1 FVW         0.0549
     49 H18        25.3397   49.5903   40.9345 H         1 FVW         0.0608
     50 H19        25.4162   49.6076   38.4514 H         1 FVW         0.0638
     51 H20        24.9357   45.3359   40.8414 H         1 FVW         0.0683
@<TRIPOS>BOND
     1    1    2 ar 
     2    2    3 ar 
     3    2    4 1  
     4    4    5 1  
     5    5    6 1  
     6    6    7 1  
     7    6   10 1  
     8    7    8 ar 
     9    7    9 ar 
    10   10   11 am 
    11   11   12 2  
    12   11   13 am 
    13   13   14 1  
    14   14   15 1  
    15   14   18 1  
    16   15   16 ar 
    17   15   17 ar 
    18   18   19 1  
    19   19   20 1  
    20   20   21 1  
    21   21   22 2  
    22   21   23 am 
    23   23   24 1  
    24   23   25 1  
    25   25   26 ar 
    26   25   31 ar 
    27   26   27 ar 
    28   27   28 ar 
    29   28   29 1  
    30   28   30 ar 
    31   30   31 ar 
    32    4   32 1  
    33    4   33 1  
    34    5   34 1  
    35    5   35 1  
    36    6   36 1  
    37   10   37 1  
    38   13   38 1  
    39   14   39 1  
    40   18   40 1  
    41   18   41 1  
    42   19   42 1  
    43   19   43 1  
    44   20   44 1  
    45   20   45 1  
    46   24   46 1  
    47   24   47 1  
    48   24   48 1  
    49   26   49 1  
    50   27   50 1  
    51   31   51 1  
@<TRIPOS>SUBSTRUCTURE
     1 FVW         1

