### 
### Created by X-TOOL on Wed Jan  1 15:39:36 2020
### 

@<TRIPOS>MOLECULE
6h8s_ligand
   39    40     1     0     0
SMALL
GAST_HUCK


@<TRIPOS>ATOM
      1 N3          2.7500   12.6240    5.9890 N.4       1 FSZ         0.2274
      2 C4          3.3620   13.9300    5.6180 C.3       1 FSZ        -0.0302
      3 C5          3.4980   14.8190    6.8410 C.3       1 FSZ         0.0083
      4 C6          4.3130   14.1310    7.9460 C.3       1 FSZ         0.0353
      5 C8          5.4470   15.3030   11.3910 C.ar      1 FSZ         0.1883
      6 C10         4.5050   14.9890    9.1830 C.ar      1 FSZ         0.0641
      7 C13         4.8390   16.5470   11.4920 C.ar      1 FSZ         0.0893
      8 C1          3.6920   12.7640    8.2670 C.3       1 FSZ         0.0083
      9 C11         3.8950   16.2370    9.2960 C.ar      1 FSZ         0.0478
     10 C12         4.0530   17.0150   10.4400 C.ar      1 FSZ         0.1274
     11 C14         3.4160   18.3670   10.5170 C.3       1 FSZ         0.3932
     12 C18         5.9470   13.6040   13.0970 C.cat     1 FSZ         0.1643
     13 C2          3.5580   11.9120    7.0180 C.3       1 FSZ        -0.0302
     14 C9          5.3000   14.5440   10.2370 C.ar      1 FSZ         0.0721
     15 F15         2.2550   18.4310    9.8640 F         1 FSZ        -0.2191
     16 F16         3.1510   18.7510   11.7540 F         1 FSZ        -0.2191
     17 F17         4.1780   19.3230   10.0100 F         1 FSZ        -0.2191
     18 N19         4.9010   12.8790   12.7520 N.pl3     1 FSZ        -0.3494
     19 N20         6.7470   13.2090   14.0640 N.pl3     1 FSZ        -0.3494
     20 N7          6.2260   14.7760   12.4630 N.pl3     1 FSZ        -0.2368
     21 H1          2.6873   12.0464    5.1653 H         1 FSZ         0.2014
     22 H2          1.8254   12.7884    6.3554 H         1 FSZ         0.2014
     23 H3          2.7238   14.4311    4.8753 H         1 FSZ         0.0816
     24 H4          4.3581   13.7535    5.1861 H         1 FSZ         0.0816
     25 H5          2.4949   15.0512    7.2281 H         1 FSZ         0.0358
     26 H6          4.0041   15.7516    6.5511 H         1 FSZ         0.0358
     27 H7          5.3171   13.9448    7.5373 H         1 FSZ         0.0594
     28 H8          4.9745   17.1501   12.3825 H         1 FSZ         0.1472
     29 H9          2.6946   12.9174    8.7047 H         1 FSZ         0.0358
     30 H10         4.3335   12.2401    8.9909 H         1 FSZ         0.0358
     31 H11         3.2870   16.6085    8.4791 H         1 FSZ         0.1435
     32 H12         4.5590   11.7032    6.6125 H         1 FSZ         0.0816
     33 H13         3.0623   10.9648    7.2768 H         1 FSZ         0.0816
     34 H14         5.8113   13.5916   10.1553 H         1 FSZ         0.0945
     35 H15         4.7034   11.9945   13.2414 H         1 FSZ         0.1669
     36 H16         4.2815   13.1972   11.9931 H         1 FSZ         0.1669
     37 H17         7.5613   13.7830   14.3255 H         1 FSZ         0.1669
     38 H18         6.5590   12.3258   14.5595 H         1 FSZ         0.1669
     39 H19         7.0473   15.3132   12.7757 H         1 FSZ         0.2425
@<TRIPOS>BOND
     1    2    1 1  
     2   13    1 1  
     3    3    2 1  
     4    4    3 1  
     5    6    4 1  
     6    4    8 1  
     7    5    7 ar 
     8    5   14 ar 
     9   20    5 1  
    10    6    9 ar 
    11   14    6 ar 
    12    7   10 ar 
    13    8   13 1  
    14   10    9 ar 
    15   10   11 1  
    16   11   15 1  
    17   11   16 1  
    18   11   17 1  
    19   12   18 ar 
    20   12   19 ar 
    21   12   20 ar 
    22    1   21 1  
    23    1   22 1  
    24    2   23 1  
    25    2   24 1  
    26    3   25 1  
    27    3   26 1  
    28    4   27 1  
    29    7   28 1  
    30    8   29 1  
    31    8   30 1  
    32    9   31 1  
    33   13   32 1  
    34   13   33 1  
    35   14   34 1  
    36   18   35 1  
    37   18   36 1  
    38   19   37 1  
    39   19   38 1  
    40   20   39 1  
@<TRIPOS>SUBSTRUCTURE
     1 FSZ         1

