### 
### Created by X-TOOL on Wed Jan  1 15:39:35 2020
### 

@<TRIPOS>MOLECULE
6h9b_ligand
   47    51     1     0     0
SMALL
GAST_HUCK


@<TRIPOS>ATOM
      1 C10         5.2660   54.1390   87.5320 C.ar      1 FWH        -0.0581
      2 C13         4.2570   55.3850   89.8240 C.ar      1 FWH        -0.0376
      3 C11         5.2420   55.5320   87.6070 C.ar      1 FWH        -0.0270
      4 C14         4.3330   54.0060   89.7530 C.ar      1 FWH         0.0702
      5 C16         5.9320   56.3530   86.5750 C.2       1 FWH        -0.0137
      6 C19         4.8850   51.9470   88.9210 C.ar      1 FWH        -0.0020
      7 C20         5.4050   49.6040   88.9210 C.ar      1 FWH        -0.0744
      8 C18         4.4000   51.8110   90.2340 C.ar      1 FWH         0.0690
      9 C3          8.0010   60.8620   87.1460 C.ar      1 FWH        -0.0444
     10 N2          4.0580   53.0610   90.7240 N.pl3     1 FWH        -0.2616
     11 C5          6.9900   58.6630   86.7770 C.ar      1 FWH         0.0074
     12 C1          6.4430   60.5460   85.3480 C.ar      1 FWH        -0.0587
     13 N1          8.7160   59.0030   88.4920 N.ar      1 FWH        -0.3044
     14 C4          7.8900   59.4910   87.5030 C.ar      1 FWH         0.0343
     15 C2          7.3080   61.3560   86.0700 C.ar      1 FWH        -0.0591
     16 C12         4.6940   56.1370   88.7450 C.ar      1 FWH        -0.0634
     17 C15         4.8360   53.3670   88.6090 C.ar      1 FWH        -0.0005
     18 C17         9.7110   57.2080   89.7480 C.3       1 FWH        -0.0147
     19 C21         5.4110   50.8360   88.2800 C.ar      1 FWH        -0.0674
     20 C22         4.4390   50.5890   90.8940 C.ar      1 FWH        -0.0395
     21 C23         4.9280   49.4830   90.2160 C.ar      1 FWH        -0.0726
     22 C24         5.7080   56.1460   85.2760 C.2       1 FWH        -0.0870
     23 C25         3.5090   53.3350   92.0410 C.3       1 FWH         0.0371
     24 C6          6.2600   59.2380   85.7000 C.ar      1 FWH        -0.0491
     25 C7          8.7110   57.7000   88.7520 C.ar      1 FWH         0.0207
     26 C8          7.8440   56.8160   88.1070 C.ar      1 FWH        -0.0239
     27 C9          6.9550   57.2760   87.1420 C.ar      1 FWH         0.0025
     28 H1          5.6215   53.6543   86.6299 H         1 FWH         0.0591
     29 H2          3.8620   55.8699   90.7094 H         1 FWH         0.0548
     30 H3          5.7775   48.7279   88.4026 H         1 FWH         0.0519
     31 H4          8.6364   61.5208   87.7268 H         1 FWH         0.0619
     32 H5          5.9081   60.9539   84.4980 H         1 FWH         0.0619
     33 H6          7.4378   62.3924   85.7801 H         1 FWH         0.0642
     34 H7          4.6098   57.2171   88.7827 H         1 FWH         0.0582
     35 H8          9.6016   56.1204   89.8708 H         1 FWH         0.0431
     36 H9          9.5410   57.7050   90.7145 H         1 FWH         0.0431
     37 H10        10.7263   57.4365   89.3918 H         1 FWH         0.0431
     38 H11         5.8253   50.9285   87.2826 H         1 FWH         0.0579
     39 H12         4.0942   50.5022   91.9180 H         1 FWH         0.0541
     40 H13         4.9372   48.5149   90.7035 H         1 FWH         0.0571
     41 H14         4.9337   55.4478   84.9615 H         1 FWH         0.0573
     42 H15         6.2995   56.6752   84.5304 H         1 FWH         0.0573
     43 H16         3.3370   54.4161   92.1489 H         1 FWH         0.0545
     44 H17         4.2182   52.9979   92.8113 H         1 FWH         0.0545
     45 H18         2.5561   52.7985   92.1599 H         1 FWH         0.0545
     46 H19         5.5492   58.6308   85.1512 H         1 FWH         0.0645
     47 H20         7.8641   55.7623   88.3607 H         1 FWH         0.0648
@<TRIPOS>BOND
     1    3    1 ar 
     2    1   17 ar 
     3    2    4 ar 
     4   16    2 ar 
     5    5    3 1  
     6    3   16 ar 
     7    4   10 1  
     8   17    4 ar 
     9    5   22 2  
    10   27    5 1  
    11    6    8 ar 
    12   17    6 1  
    13    6   19 ar 
    14   19    7 ar 
    15    7   21 ar 
    16   10    8 1  
    17    8   20 ar 
    18   14    9 ar 
    19    9   15 ar 
    20   10   23 1  
    21   11   14 ar 
    22   11   24 ar 
    23   11   27 ar 
    24   15   12 ar 
    25   12   24 ar 
    26   14   13 ar 
    27   13   25 ar 
    28   25   18 1  
    29   20   21 ar 
    30   25   26 ar 
    31   26   27 ar 
    32    1   28 1  
    33    2   29 1  
    34    7   30 1  
    35    9   31 1  
    36   12   32 1  
    37   15   33 1  
    38   16   34 1  
    39   18   35 1  
    40   18   36 1  
    41   18   37 1  
    42   19   38 1  
    43   20   39 1  
    44   21   40 1  
    45   22   41 1  
    46   22   42 1  
    47   23   43 1  
    48   23   44 1  
    49   23   45 1  
    50   24   46 1  
    51   26   47 1  
@<TRIPOS>SUBSTRUCTURE
     1 FWH         1

