### 
### Created by X-TOOL on Mon Aug  2 16:13:45 2021
### 

@<TRIPOS>MOLECULE
6h9v_ligand
   26    26     1     0     0
SMALL
GAST_HUCK


@<TRIPOS>ATOM
      1 C1          1.4710   -5.3650   32.9370 C.3       1 MFU         0.1875
      2 C2          0.2280   -5.1250   33.7790 C.3       1 MFU         0.1341
      3 C3         -1.0140   -5.0720   32.9660 C.3       1 MFU         0.1140
      4 C4         -1.1620   -6.3030   32.1150 C.3       1 MFU         0.1095
      5 C5          0.1050   -6.5590   31.3170 C.3       1 MFU         0.0873
      6 C6         -0.0560   -7.8490   30.5890 C.3       1 MFU        -0.0361
      7 O1          1.6560   -4.3540   32.0380 O.3       1 MFU        -0.3520
      8 O2          0.3960   -3.8820   34.4820 O.3       1 MFU        -0.3841
      9 O3         -2.1820   -4.9370   33.8320 O.3       1 MFU        -0.3864
     10 O4         -1.4430   -7.4540   32.9220 O.3       1 MFU        -0.3866
     11 O5          1.3030   -6.6180   32.1770 O.3       1 MFU        -0.3431
     12 CM          2.6520   -4.6170   31.0730 C.3       1 MFU         0.0395
     13 H1          2.3490   -5.4390   33.5955 H         1 MFU         0.0937
     14 H2          0.1320   -5.9443   34.5067 H         1 MFU         0.0671
     15 H3         -0.9596   -4.1939   32.3057 H         1 MFU         0.0648
     16 H4         -1.9974   -6.1461   31.4168 H         1 MFU         0.0646
     17 H5          0.2369   -5.7446   30.5895 H         1 MFU         0.0621
     18 H6          0.8518   -8.0551   30.0030 H         1 MFU         0.0255
     19 H7         -0.9215   -7.7832   29.9133 H         1 MFU         0.0255
     20 H8         -0.2171   -8.6611   31.3132 H         1 MFU         0.0255
     21 H9         -0.3500   -3.7388   35.0524 H         1 MFU         0.2101
     22 H10        -2.2511   -5.7026   34.3902 H         1 MFU         0.2100
     23 H11        -0.7162   -7.6097   33.5136 H         1 MFU         0.2100
     24 H12         2.7378   -3.7581   30.3912 H         1 MFU         0.0525
     25 H13         2.3786   -5.5147   30.4991 H         1 MFU         0.0525
     26 H14         3.6157   -4.7830   31.5766 H         1 MFU         0.0525
@<TRIPOS>BOND
     1    1    2 1  
     2    1    7 1  
     3    1   11 1  
     4    2    3 1  
     5    2    8 1  
     6    3    4 1  
     7    3    9 1  
     8    4    5 1  
     9    4   10 1  
    10    5    6 1  
    11    5   11 1  
    12    7   12 1  
    13    1   13 1  
    14    2   14 1  
    15    3   15 1  
    16    4   16 1  
    17    5   17 1  
    18    6   18 1  
    19    6   19 1  
    20    6   20 1  
    21    8   21 1  
    22    9   22 1  
    23   10   23 1  
    24   12   24 1  
    25   12   25 1  
    26   12   26 1  
@<TRIPOS>SUBSTRUCTURE
     1 MFU         1

