### 
### Created by X-TOOL on Mon Aug  2 16:13:46 2021
### 

@<TRIPOS>MOLECULE
6h9x_ligand
   49    51     1     0     0
SMALL
GAST_HUCK


@<TRIPOS>ATOM
      1 N10       -10.2440  -30.0270   -7.5960 N.4       1 SSA         0.2396
      2 CA         -9.1050  -30.7990   -7.0800 C.3       1 SSA         0.0900
      3 CB         -7.8340  -29.9780   -6.8670 C.3       1 SSA         0.1042
      4 OG         -8.0310  -28.9850   -5.8770 O.3       1 SSA        -0.3870
      5 C9         -9.5680  -31.3790   -5.7600 C.2       1 SSA         0.2482
      6 O9        -10.5980  -31.0520   -5.1690 O.2       1 SSA        -0.3890
      7 N8         -8.6870  -32.3410   -5.2160 N.am      1 SSA        -0.1293
      8 S1         -8.8110  -32.9260   -3.7400 S.o2      1 SSA         0.1859
      9 O1S       -10.0620  -33.5790   -3.5770 O.2       1 SSA        -0.1218
     10 O2S        -7.5930  -33.5880   -3.4440 O.2       1 SSA        -0.1218
     11 O5'        -8.9420  -31.6680   -2.7610 O.3       1 SSA        -0.2161
     12 C5'        -7.9640  -30.5920   -2.8600 C.3       1 SSA         0.1073
     13 C4'        -7.4350  -30.3000   -1.4790 C.3       1 SSA         0.1161
     14 O4'        -8.5080  -29.9220   -0.5910 O.3       1 SSA        -0.3367
     15 C3'        -6.7540  -31.4630   -0.7700 C.3       1 SSA         0.1146
     16 O3'        -5.4060  -31.5850   -1.1980 O.3       1 SSA        -0.3864
     17 C2'        -6.8250  -31.0310    0.6940 C.3       1 SSA         0.1385
     18 O2'        -5.7750  -30.1180    0.9740 O.3       1 SSA        -0.3836
     19 C1'        -8.1610  -30.2670    0.7440 C.3       1 SSA         0.2010
     20 N9         -9.2690  -31.0210    1.3210 N.pl3     1 SSA        -0.1919
     21 C8         -9.8940  -32.1020    0.7550 C.2       1 SSA         0.1123
     22 N7        -10.9010  -32.5660    1.4540 N.2       1 SSA        -0.2958
     23 C5        -10.9500  -31.7270    2.5570 C.ar      1 SSA         0.1045
     24 C6        -11.8410  -31.6440    3.6450 C.ar      1 SSA         0.1298
     25 N6        -12.9110  -32.4330    3.7830 N.pl3     1 SSA        -0.3152
     26 N1        -11.6320  -30.6650    4.5590 N.ar      1 SSA        -0.2698
     27 C2        -10.6190  -29.8080    4.3690 C.ar      1 SSA         0.0533
     28 N3         -9.7260  -29.7780    3.3720 N.ar      1 SSA        -0.2714
     29 C4         -9.9440  -30.7730    2.4940 C.ar      1 SSA         0.1613
     30 H1         -9.9958  -29.6126   -8.4807 H         1 SSA         0.2016
     31 H2        -10.4822  -29.3001   -6.9396 H         1 SSA         0.2016
     32 H3        -11.0352  -30.6387   -7.7217 H         1 SSA         0.2016
     33 H4         -8.8747  -31.6111   -7.7853 H         1 SSA         0.1122
     34 H5         -7.5570  -29.4917   -7.8140 H         1 SSA         0.0640
     35 H6         -7.0222  -30.6481   -6.5477 H         1 SSA         0.0640
     36 H7         -8.7291  -28.4013   -6.1500 H         1 SSA         0.2099
     37 H8         -7.9410  -32.6743   -5.7925 H         1 SSA         0.2167
     38 H9         -8.4429  -29.6916   -3.2722 H         1 SSA         0.0611
     39 H10        -7.1373  -30.9008   -3.5166 H         1 SSA         0.0611
     40 H11        -6.7166  -29.4718   -1.5685 H         1 SSA         0.0648
     41 H12        -7.2877  -32.4100   -0.9385 H         1 SSA         0.0648
     42 H13        -4.9964  -32.3139   -0.7469 H         1 SSA         0.2100
     43 H14        -6.8009  -31.8868    1.3846 H         1 SSA         0.0676
     44 H15        -4.9391  -30.5382    0.8090 H         1 SSA         0.2101
     45 H16        -8.0174  -29.3530    1.3389 H         1 SSA         0.0996
     46 H17        -9.5810  -32.5373   -0.1929 H         1 SSA         0.1349
     47 H18       -13.5276  -32.3261    4.6011 H         1 SSA         0.1820
     48 H19       -13.1189  -33.1479    3.0713 H         1 SSA         0.1820
     49 H20       -10.5081  -29.0368    5.1227 H         1 SSA         0.0996
@<TRIPOS>BOND
     1    1    2 1  
     2    2    3 1  
     3    2    5 1  
     4    3    4 1  
     5    5    6 2  
     6    5    7 am 
     7    7    8 am 
     8    8    9 2  
     9    8   10 2  
    10    8   11 1  
    11   11   12 1  
    12   12   13 1  
    13   13   14 1  
    14   13   15 1  
    15   14   19 1  
    16   15   16 1  
    17   15   17 1  
    18   17   18 1  
    19   17   19 1  
    20   19   20 1  
    21   20   21 1  
    22   20   29 1  
    23   21   22 2  
    24   22   23 1  
    25   23   24 ar 
    26   23   29 ar 
    27   24   25 1  
    28   24   26 ar 
    29   26   27 ar 
    30   27   28 ar 
    31   28   29 ar 
    32    1   30 1  
    33    1   31 1  
    34    1   32 1  
    35    2   33 1  
    36    3   34 1  
    37    3   35 1  
    38    4   36 1  
    39    7   37 1  
    40   12   38 1  
    41   12   39 1  
    42   13   40 1  
    43   15   41 1  
    44   16   42 1  
    45   17   43 1  
    46   18   44 1  
    47   19   45 1  
    48   21   46 1  
    49   25   47 1  
    50   25   48 1  
    51   27   49 1  
@<TRIPOS>SUBSTRUCTURE
     1 SSA         1

