### 
### Created by X-TOOL on Mon Aug  2 16:13:46 2021
### 

@<TRIPOS>MOLECULE
6ha4_ligand
   68    72     1     0     0
SMALL
GAST_HUCK


@<TRIPOS>ATOM
      1 O3          3.9040    1.7600   20.5210 O.co2     1 T3Y        -0.4813
      2 S1          2.5830    2.2570   20.0650 S.o2      1 T3Y        -0.1710
      3 O1          2.2700    3.5340   20.7430 O.co2     1 T3Y        -0.4813
      4 O2          1.5690    1.2490   20.4330 O.co2     1 T3Y        -0.4813
      5 C1          2.6440    2.4890   18.4680 C.ar      1 T3Y         0.0277
      6 C24         2.2580    1.4730   17.5790 C.ar      1 T3Y        -0.0521
      7 C23         2.3690    1.6170   16.1900 C.ar      1 T3Y        -0.0093
      8 C22         1.9460    0.4900   15.2610 C.3       1 T3Y         0.0073
      9 C2          3.1770    3.6920   17.9860 C.ar      1 T3Y        -0.0521
     10 C3          3.3500    3.9290   16.6260 C.ar      1 T3Y        -0.0093
     11 C25         2.9780    2.8660   15.6590 C.ar      1 T3Y         0.0941
     12 O13         3.1760    3.0620   14.3280 O.3       1 T3Y        -0.3403
     13 C4          3.9160    5.2450   16.1420 C.3       1 T3Y         0.0073
     14 C5          2.7890    6.1550   15.6950 C.ar      1 T3Y        -0.0093
     15 C6          2.0900    6.9080   16.6330 C.ar      1 T3Y        -0.0521
     16 C7          1.0280    7.7340   16.2570 C.ar      1 T3Y         0.0277
     17 S2          0.2860    8.5710   17.4040 S.o2      1 T3Y        -0.1710
     18 O4         -0.2850    7.6360   18.3990 O.co2     1 T3Y        -0.4813
     19 O5          1.2700    9.4420   18.0870 O.co2     1 T3Y        -0.4813
     20 O6         -0.8010    9.3940   16.8330 O.co2     1 T3Y        -0.4813
     21 C8          0.6380    7.8630   14.9160 C.ar      1 T3Y        -0.0521
     22 C28         2.3800    6.2340   14.2680 C.ar      1 T3Y         0.0941
     23 O16         3.0200    5.5260   13.3030 O.3       1 T3Y        -0.3403
     24 C9          1.2570    7.1320   13.9030 C.ar      1 T3Y        -0.0093
     25 C10         0.8190    7.2510   12.4540 C.3       1 T3Y         0.0073
     26 C11        -0.3020    6.2730   12.1580 C.ar      1 T3Y        -0.0093
     27 C12        -1.6190    6.7240   12.1410 C.ar      1 T3Y        -0.0521
     28 C13        -2.6860    5.8490   11.9200 C.ar      1 T3Y         0.0277
     29 S3         -4.1830    6.4170   11.8860 S.o2      1 T3Y        -0.1710
     30 O7         -4.1740    7.8860   11.6950 O.co2     1 T3Y        -0.4813
     31 O8         -4.8280    6.0830   13.1690 O.co2     1 T3Y        -0.4813
     32 O9         -4.9310    5.7770   10.7800 O.co2     1 T3Y        -0.4813
     33 C14        -2.4750    4.4800   11.7320 C.ar      1 T3Y        -0.0521
     34 C27        -0.0320    4.8350   11.9030 C.ar      1 T3Y         0.0941
     35 O15         1.2360    4.3550   11.8140 O.3       1 T3Y        -0.3403
     36 C15        -1.1970    3.9270   11.7210 C.ar      1 T3Y        -0.0093
     37 C16        -0.9990    2.4460   11.4590 C.3       1 T3Y         0.0073
     38 C17        -0.8610    1.6820   12.7630 C.ar      1 T3Y        -0.0093
     39 C18        -1.9740    1.1430   13.4190 C.ar      1 T3Y        -0.0521
     40 C26         0.4850    1.4360   13.3310 C.ar      1 T3Y         0.0941
     41 O14         1.6000    1.9020   12.7040 O.3       1 T3Y        -0.3403
     42 C21         0.5780    0.7570   14.6510 C.ar      1 T3Y        -0.0093
     43 C20        -0.5910    0.2410   15.2190 C.ar      1 T3Y        -0.0521
     44 C19        -1.8580    0.4690   14.6500 C.ar      1 T3Y         0.0277
     45 S4         -3.1940   -0.0970   15.3610 S.o2      1 T3Y        -0.1710
     46 O11        -2.8270   -0.9980   16.4750 O.co2     1 T3Y        -0.4813
     47 O10        -3.9800   -0.8740   14.3740 O.co2     1 T3Y        -0.4813
     48 O12        -3.9810    1.0390   15.8880 O.co2     1 T3Y        -0.4813
     49 H1          1.8614    0.5475   17.9804 H         1 T3Y         0.0493
     50 H2          1.9058   -0.4489   15.8326 H         1 T3Y         0.0535
     51 H3          2.6860    0.3958   14.4526 H         1 T3Y         0.0535
     52 H4          3.4632    4.4612   18.6942 H         1 T3Y         0.0493
     53 H5          2.8881    2.2934   13.8496 H         1 T3Y         0.2433
     54 H6          4.5947    5.0616   15.2960 H         1 T3Y         0.0535
     55 H7          4.4716    5.7266   16.9601 H         1 T3Y         0.0535
     56 H8          2.3754    6.8526   17.6773 H         1 T3Y         0.0493
     57 H9         -0.1634    8.5470   14.6612 H         1 T3Y         0.0493
     58 H10         2.9529    4.5981   13.4955 H         1 T3Y         0.2433
     59 H11         1.6741    7.0315   11.7978 H         1 T3Y         0.0535
     60 H12         0.4654    8.2754   12.2653 H         1 T3Y         0.0535
     61 H13        -1.8212    7.7766   12.3027 H         1 T3Y         0.0493
     62 H14        -3.3310    3.8301   11.5907 H         1 T3Y         0.0493
     63 H15         1.6940    4.5203   12.6297 H         1 T3Y         0.2433
     64 H16        -0.0874    2.3044   10.8599 H         1 T3Y         0.0535
     65 H17        -1.8663    2.0587   10.9042 H         1 T3Y         0.0535
     66 H18        -2.9534    1.2475   12.9663 H         1 T3Y         0.0493
     67 H19         1.5535    2.8487   12.6397 H         1 T3Y         0.2433
     68 H20        -0.5193   -0.3518   16.1237 H         1 T3Y         0.0493
@<TRIPOS>BOND
     1    1    2 ar 
     2    2    3 ar 
     3    2    4 ar 
     4    2    5 1  
     5    5    6 ar 
     6    5    9 ar 
     7    6    7 ar 
     8    7    8 1  
     9    7   11 ar 
    10    8   42 1  
    11    9   10 ar 
    12   10   11 ar 
    13   10   13 1  
    14   11   12 1  
    15   13   14 1  
    16   14   15 ar 
    17   14   22 ar 
    18   15   16 ar 
    19   16   17 1  
    20   16   21 ar 
    21   17   18 ar 
    22   17   19 ar 
    23   17   20 ar 
    24   21   24 ar 
    25   22   23 1  
    26   22   24 ar 
    27   24   25 1  
    28   25   26 1  
    29   26   27 ar 
    30   26   34 ar 
    31   27   28 ar 
    32   28   29 1  
    33   28   33 ar 
    34   29   30 ar 
    35   29   31 ar 
    36   29   32 ar 
    37   33   36 ar 
    38   34   35 1  
    39   34   36 ar 
    40   36   37 1  
    41   37   38 1  
    42   38   39 ar 
    43   38   40 ar 
    44   39   44 ar 
    45   40   41 1  
    46   40   42 ar 
    47   42   43 ar 
    48   43   44 ar 
    49   44   45 1  
    50   45   46 ar 
    51   45   47 ar 
    52   45   48 ar 
    53    6   49 1  
    54    8   50 1  
    55    8   51 1  
    56    9   52 1  
    57   12   53 1  
    58   13   54 1  
    59   13   55 1  
    60   15   56 1  
    61   21   57 1  
    62   23   58 1  
    63   25   59 1  
    64   25   60 1  
    65   27   61 1  
    66   33   62 1  
    67   35   63 1  
    68   37   64 1  
    69   37   65 1  
    70   39   66 1  
    71   41   67 1  
    72   43   68 1  
@<TRIPOS>SUBSTRUCTURE
     1 T3Y         1

