### 
### Created by X-TOOL on Wed Jan  1 15:39:37 2020
### 

@<TRIPOS>MOLECULE
6hai_ligand
   98   103     1     0     0
SMALL
GAST_HUCK


@<TRIPOS>ATOM
      1 C13       -12.2810   88.6130   55.5690 C.ar      1 FWW        -0.0554
      2 C15       -10.0520   87.5100   55.7430 C.2       1 FWW         0.1958
      3 C17        -8.8970   86.7550   57.8360 C.3       1 FWW         0.1586
      4 C21        -7.9490   87.9590   57.6970 C.2       1 FWW         0.2607
      5 C24        -4.4210   88.3130   57.5620 C.ar      1 FWW        -0.0297
      6 C26        -3.4930   90.3580   56.5930 C.ar      1 FWW         0.0413
      7 C02       -21.4000   90.8550   49.4760 C.ar      1 FWW         0.0891
      8 C03       -20.7900   91.7690   50.3230 C.ar      1 FWW        -0.0321
      9 C04       -19.5620   91.4650   50.9000 C.ar      1 FWW        -0.0636
     10 C05       -18.8740   90.2650   50.6670 C.ar      1 FWW        -0.0384
     11 C06       -17.5560   89.9570   51.3150 C.2       1 FWW        -0.0502
     12 C07       -17.3090   89.9040   52.6320 C.2       1 FWW         0.0312
     13 C08       -18.4550   90.1340   53.4690 C.3       1 FWW        -0.0231
     14 C09       -16.0310   89.5820   53.3740 C.2       1 FWW         0.2302
     15 C11       -13.6740   88.5890   53.5600 C.ar      1 FWW         0.0713
     16 C12       -13.4400   88.9560   54.8850 C.ar      1 FWW        -0.0350
     17 C14       -11.2610   87.8660   55.0050 C.ar      1 FWW         0.0339
     18 C18        -8.0610   85.6340   57.2910 C.3       1 FWW         0.0893
     19 C19        -6.7400   86.2450   56.9120 C.2       1 FWW         0.2374
     20 C23        -5.6560   88.5080   56.9560 C.ar      1 FWW         0.1008
     21 C25        -3.3900   89.1950   57.3790 C.ar      1 FWW        -0.0531
     22 C27        -2.3360   91.2380   56.4850 C.2       1 FWW         0.2206
     23 C29         0.1610   91.4470   56.5070 C.ar      1 FWW         0.0929
     24 C30         0.2250   92.7930   56.9170 C.ar      1 FWW        -0.0529
     25 C31         1.3970   93.5330   56.9250 C.ar      1 FWW        -0.0728
     26 C32         2.6190   93.0160   56.5450 C.ar      1 FWW         0.0605
     27 C33         3.9030   93.7840   56.5500 C.2       1 FWW         0.2115
     28 C35         6.3990   93.8260   56.0090 C.ar      1 FWW         0.0902
     29 C36         6.6820   95.1310   56.4350 C.ar      1 FWW        -0.0555
     30 C37         7.9700   95.6750   56.3790 C.ar      1 FWW        -0.0794
     31 C38         9.0620   94.9510   55.9050 C.ar      1 FWW         0.0154
     32 C39        10.4860   95.5450   55.8430 C.2       1 FWW         0.0462
     33 C42         8.7900   93.6500   55.4850 C.ar      1 FWW         0.1184
     34 C44         7.5050   93.0940   55.5330 C.ar      1 FWW         0.1427
     35 C46         7.0140   90.8690   56.1570 C.3       1 FWW         0.0533
     36 C48         2.5590   91.6500   56.1510 C.ar      1 FWW         0.1252
     37 C50         1.3790   90.8930   56.1370 C.ar      1 FWW         0.1450
     38 C52         1.5330   88.5570   56.8210 C.3       1 FWW         0.0533
     39 C54        -4.7230   90.5490   56.0110 C.ar      1 FWW        -0.0531
     40 C55        -5.7780   89.6600   56.1810 C.ar      1 FWW        -0.0297
     41 C58       -11.4840   87.4780   53.6790 C.ar      1 FWW        -0.0554
     42 C59       -12.6420   87.8130   52.9860 C.ar      1 FWW        -0.0350
     43 C61       -19.5290   89.3680   49.8170 C.ar      1 FWW        -0.0636
     44 C62       -20.7610   89.6420   49.2230 C.ar      1 FWW        -0.0321
     45 N10       -14.8940   88.9360   52.8710 N.am      1 FWW        -0.2307
     46 N16       -10.0720   87.1120   57.0870 N.am      1 FWW        -0.2643
     47 N22        -6.7210   87.6410   57.1620 N.am      1 FWW        -0.1278
     48 N28        -1.0440   90.7650   56.5420 N.am      1 FWW        -0.2374
     49 N34         5.0850   93.2610   56.0720 N.am      1 FWW        -0.2407
     50 O01       -22.6060   91.1310   48.8980 O.3       1 FWW        -0.3320
     51 O20        -5.7920   85.6180   56.4480 O.2       1 FWW        -0.3746
     52 O40        10.7840   96.4000   56.7030 O.co2     1 FWW        -0.5683
     53 O41        11.2230   95.1100   54.9420 O.co2     1 FWW        -0.5683
     54 O43         9.8010   92.8680   55.0020 O.3       1 FWW        -0.3380
     55 O45         7.2560   91.8070   55.1060 O.3       1 FWW        -0.3319
     56 O47         3.8690   94.9270   57.0270 O.2       1 FWW        -0.3872
     57 O49         3.6920   90.9980   55.7510 O.3       1 FWW        -0.3361
     58 O51         1.3690   89.5760   55.7370 O.3       1 FWW        -0.3315
     59 O53        -2.5320   92.4380   56.4080 O.2       1 FWW        -0.3804
     60 O56        -8.2750   89.1080   57.9880 O.2       1 FWW        -0.3721
     61 O57        -8.9670   87.5540   55.1610 O.2       1 FWW        -0.3919
     62 O60       -16.0110   89.8920   54.5540 O.2       1 FWW        -0.3747
     63 H1        -12.1696   88.9464   56.5944 H         1 FWW         0.0630
     64 H2         -9.1729   86.5505   58.8810 H         1 FWW         0.0836
     65 H3         -4.2707   87.4444   58.1929 H         1 FWW         0.0534
     66 H4        -21.2696   92.7179   50.5344 H         1 FWW         0.0548
     67 H5        -19.1126   92.1937   51.5649 H         1 FWW         0.0590
     68 H6        -16.7172   89.7567   50.6500 H         1 FWW         0.0552
     69 H7        -19.3291   90.3590   52.8402 H         1 FWW         0.0401
     70 H8        -18.2559   90.9843   54.1378 H         1 FWW         0.0401
     71 H9        -18.6570   89.2347   54.0694 H         1 FWW         0.0401
     72 H10       -14.1959   89.5344   55.4038 H         1 FWW         0.0518
     73 H11        -8.5445   85.1918   56.4075 H         1 FWW         0.0561
     74 H12        -7.9168   84.8579   58.0571 H         1 FWW         0.0561
     75 H13        -2.4439   88.9865   57.8654 H         1 FWW         0.0633
     76 H14        -0.6895   93.2750   57.2431 H         1 FWW         0.0405
     77 H15         1.3516   94.5677   57.2451 H         1 FWW         0.0516
     78 H16         5.8737   95.7410   56.8219 H         1 FWW         0.0397
     79 H17         8.1234   96.6939   56.7157 H         1 FWW         0.0497
     80 H18         6.8262   89.8749   55.7252 H         1 FWW         0.0566
     81 H19         6.1363   91.1880   56.7383 H         1 FWW         0.0566
     82 H20         7.8932   90.8222   56.8163 H         1 FWW         0.0566
     83 H21         1.5091   87.5484   56.3827 H         1 FWW         0.0566
     84 H22         0.7142   88.6602   57.5483 H         1 FWW         0.0566
     85 H23         2.4962   88.7134   57.3286 H         1 FWW         0.0566
     86 H24        -4.8767   91.4276   55.3950 H         1 FWW         0.0633
     87 H25        -6.7246   89.8691   55.6960 H         1 FWW         0.0534
     88 H26       -10.7244   86.8936   53.1725 H         1 FWW         0.0630
     89 H27       -12.7576   87.4654   51.9658 H         1 FWW         0.0518
     90 H28       -19.0568   88.4145   49.6100 H         1 FWW         0.0590
     91 H29       -21.2209   88.9129   48.5657 H         1 FWW         0.0548
     92 H30       -14.9329   88.6811   51.9048 H         1 FWW         0.2273
     93 H31       -10.9560   87.0740   57.5529 H         1 FWW         0.1873
     94 H32        -0.9629   89.7714   56.6212 H         1 FWW         0.2232
     95 H33         5.0129   92.3321   55.7086 H         1 FWW         0.2218
     96 H34       -22.8986   91.9917   49.1739 H         1 FWW         0.2491
     97 H35        10.6151   93.3571   55.0216 H         1 FWW         0.2450
     98 H36         4.4311   91.5931   55.7960 H         1 FWW         0.2460
@<TRIPOS>BOND
     1    1   16 ar 
     2   17    1 ar 
     3    2   17 1  
     4   46    2 am 
     5    2   61 2  
     6    4    3 1  
     7   18    3 1  
     8    3   46 1  
     9   47    4 am 
    10    4   60 2  
    11    5   20 ar 
    12   21    5 ar 
    13    6   21 ar 
    14   22    6 1  
    15    6   39 ar 
    16    8    7 ar 
    17    7   44 ar 
    18    7   50 1  
    19    9    8 ar 
    20   10    9 ar 
    21   11   10 1  
    22   10   43 ar 
    23   12   11 2  
    24   12   13 1  
    25   14   12 1  
    26   45   14 am 
    27   14   62 2  
    28   16   15 ar 
    29   15   42 ar 
    30   15   45 1  
    31   17   41 ar 
    32   19   18 1  
    33   47   19 am 
    34   19   51 2  
    35   20   40 ar 
    36   20   47 1  
    37   48   22 am 
    38   22   59 2  
    39   24   23 ar 
    40   23   37 ar 
    41   23   48 1  
    42   25   24 ar 
    43   26   25 ar 
    44   27   26 1  
    45   26   36 ar 
    46   49   27 am 
    47   27   56 2  
    48   28   29 ar 
    49   28   34 ar 
    50   28   49 1  
    51   29   30 ar 
    52   30   31 ar 
    53   31   32 1  
    54   31   33 ar 
    55   32   52 ar 
    56   32   53 ar 
    57   33   34 ar 
    58   33   54 1  
    59   34   55 1  
    60   55   35 1  
    61   36   37 ar 
    62   36   57 1  
    63   37   58 1  
    64   58   38 1  
    65   39   40 ar 
    66   41   42 ar 
    67   43   44 ar 
    68    1   63 1  
    69    3   64 1  
    70    5   65 1  
    71    8   66 1  
    72    9   67 1  
    73   11   68 1  
    74   13   69 1  
    75   13   70 1  
    76   13   71 1  
    77   16   72 1  
    78   18   73 1  
    79   18   74 1  
    80   21   75 1  
    81   24   76 1  
    82   25   77 1  
    83   29   78 1  
    84   30   79 1  
    85   35   80 1  
    86   35   81 1  
    87   35   82 1  
    88   38   83 1  
    89   38   84 1  
    90   38   85 1  
    91   39   86 1  
    92   40   87 1  
    93   41   88 1  
    94   42   89 1  
    95   43   90 1  
    96   44   91 1  
    97   45   92 1  
    98   46   93 1  
    99   48   94 1  
   100   49   95 1  
   101   50   96 1  
   102   54   97 1  
   103   57   98 1  
@<TRIPOS>SUBSTRUCTURE
     1 FWW         1

