### 
### Created by X-TOOL on Mon Aug  2 16:13:46 2021
### 

@<TRIPOS>MOLECULE
6hax_ligand
  125   132     1     0     0
SMALL
GAST_HUCK


@<TRIPOS>ATOM
      1 N1        -36.5600   14.5670  -33.2670 N.am      1 FWZ        -0.2619
      2 C4        -35.9930   14.3210  -30.9400 C.2       1 FWZ         0.2072
      3 C5        -35.8000   17.4010  -30.7810 C.3       1 FWZ        -0.0558
      4 C6        -36.2910   17.5070  -33.2100 C.3       1 FWZ        -0.0558
      5 C7        -38.0040   16.6040  -31.6590 C.3       1 FWZ        -0.0558
      6 C10       -34.9870   13.1950  -29.0440 C.3       1 FWZ         0.1362
      7 C13       -33.5450   14.6590  -30.3490 C.3       1 FWZ         0.0629
      8 C15       -36.0260   13.6340  -28.0110 C.2       1 FWZ         0.2035
      9 C20       -37.3470   13.5210  -23.7860 C.ar      1 FWZ         0.0914
     10 C21       -36.7130   13.4710  -22.5470 C.ar      1 FWZ        -0.0374
     11 C22       -35.5100   12.7870  -22.4000 C.ar      1 FWZ        -0.0336
     12 C24       -35.5990   12.1810  -24.7290 C.ar      1 FWZ        -0.0695
     13 C26       -35.3410   12.1980  -19.8850 C.2       1 FWZ         0.0118
     14 C28       -33.2810   12.6540  -19.2500 C.2       1 FWZ         0.0739
     15 C2        -35.9000   15.2480  -32.1630 C.3       1 FWZ         0.1361
     16 C3        -36.4940   16.6750  -31.9430 C.3       1 FWZ         0.0027
     17 N8        -34.8950   14.1120  -30.1870 N.am      1 FWZ        -0.2472
     18 O9        -37.0530   13.7690  -30.6850 O.2       1 FWZ        -0.3941
     19 C11       -33.5740   13.2410  -28.4290 C.3       1 FWZ         0.0158
     20 C12       -32.6760   13.6730  -29.5780 C.3       1 FWZ         0.0799
     21 O14       -32.2990   12.5480  -30.3880 O.3       1 FWZ        -0.3896
     22 O16       -36.2840   14.8280  -27.8270 O.2       1 FWZ        -0.3944
     23 N17       -36.6050   12.6450  -27.3290 N.am      1 FWZ        -0.2758
     24 C18       -37.5160   12.8890  -26.2210 C.3       1 FWZ         0.0617
     25 C19       -36.7990   12.8700  -24.8970 C.ar      1 FWZ         0.0055
     26 C23       -34.9550   12.1540  -23.5060 C.ar      1 FWZ        -0.0762
     27 C25       -34.8640   12.6860  -21.0760 C.2       1 FWZ         0.0452
     28 N27       -34.4310   12.2180  -18.8470 N.2       1 FWZ        -0.3005
     29 S29       -33.1850   13.1130  -20.9020 S.3       1 FWZ        -0.0130
     30 C30       -36.7210   11.6950  -19.6070 C.3       1 FWZ        -0.0271
     31 C31       -36.1090   14.0720  -34.4250 C.2       1 FWZ         0.2352
     32 C32       -37.1900   13.4430  -35.3350 C.3       1 FWZ         0.1890
     33 O33       -34.9360   14.0830  -34.7720 O.2       1 FWZ        -0.3413
     34 F34       -38.4130   13.3340  -34.6480 F         1 FWZ        -0.2375
     35 C35       -37.3290   13.7580  -36.7700 C.3       1 FWZ        -0.0098
     36 C36       -36.9400   12.3760  -36.3260 C.3       1 FWZ        -0.0098
     37 O37       -38.5400   14.1700  -24.0180 O.3       1 FWZ        -0.3207
     38 C38       -39.1760   14.8880  -22.9420 C.3       1 FWZ         0.0772
     39 C39       -38.5660   16.2670  -22.8090 C.3       1 FWZ         0.0054
     40 C40       -39.2400   19.9060  -27.3220 C.3       1 FWZ        -0.0009
     41 N41       -40.2750   19.3990  -28.2390 N.4       1 FWZ         0.2493
     42 C42       -39.8130   19.4200  -29.6360 C.3       1 FWZ        -0.0087
     43 C43       -40.9920   19.3070  -30.6060 C.3       1 FWZ         0.0751
     44 N44       -42.1390   18.6590  -29.9620 N.pl3     1 FWZ        -0.2739
     45 C45       -42.6650   19.4620  -28.8520 C.3       1 FWZ         0.0751
     46 C46       -41.5290   20.1600  -28.1090 C.3       1 FWZ        -0.0087
     47 C47       -43.0610   18.0010  -30.8250 C.ar      1 FWZ         0.1311
     48 C48       -44.3550   18.4660  -31.0550 C.ar      1 FWZ         0.0026
     49 C49       -45.1630   17.7710  -31.9620 C.ar      1 FWZ         0.0257
     50 N50       -44.7010   16.7090  -32.6360 N.ar      1 FWZ        -0.3164
     51 N51       -43.4640   16.2270  -32.3980 N.ar      1 FWZ        -0.2806
     52 C52       -42.6480   16.8340  -31.5280 C.ar      1 FWZ         0.1609
     53 N53       -41.4630   16.2320  -31.3680 N.pl3     1 FWZ        -0.3048
     54 C54       -46.5390   18.2210  -32.3140 C.ar      1 FWZ         0.0346
     55 C55       -47.3600   17.4830  -33.1860 C.ar      1 FWZ         0.1075
     56 C56       -48.6710   17.8950  -33.4460 C.ar      1 FWZ        -0.0254
     57 C57       -49.1720   19.0370  -32.8440 C.ar      1 FWZ        -0.0648
     58 C58       -48.4000   19.7370  -31.9420 C.ar      1 FWZ        -0.0659
     59 C59       -47.0940   19.3410  -31.6850 C.ar      1 FWZ        -0.0531
     60 O60       -46.9040   16.4170  -33.8930 O.3       1 FWZ        -0.3260
     61 C61       -38.7600   17.1680  -24.0080 C.ar      1 FWZ        -0.0472
     62 C62       -37.9240   17.0900  -25.1190 C.ar      1 FWZ        -0.0666
     63 C63       -38.0710   17.9690  -26.1830 C.ar      1 FWZ        -0.0618
     64 C64       -39.0140   18.9920  -26.1390 C.ar      1 FWZ        -0.0053
     65 C65       -39.8470   19.0670  -25.0330 C.ar      1 FWZ        -0.0618
     66 C66       -39.7050   18.1890  -23.9730 C.ar      1 FWZ        -0.0666
     67 H1        -37.5436   14.4452  -33.1337 H         1 FWZ         0.1890
     68 H2        -36.2432   18.4000  -30.6558 H         1 FWZ         0.0237
     69 H3        -34.7266   17.5009  -30.9998 H         1 FWZ         0.0237
     70 H4        -35.9332   16.8222  -29.8551 H         1 FWZ         0.0237
     71 H5        -36.7800   17.0071  -34.0591 H         1 FWZ         0.0237
     72 H6        -35.2148   17.6076  -33.4141 H         1 FWZ         0.0237
     73 H7        -36.7322   18.5046  -33.0682 H         1 FWZ         0.0237
     74 H8        -38.1786   16.0095  -30.7501 H         1 FWZ         0.0237
     75 H9        -38.5154   16.1311  -32.5103 H         1 FWZ         0.0237
     76 H10       -38.3979   17.6206  -31.5133 H         1 FWZ         0.0237
     77 H11       -35.2313   12.1793  -29.3885 H         1 FWZ         0.0803
     78 H12       -33.4739   15.6685  -29.9179 H         1 FWZ         0.0550
     79 H13       -33.2574   14.6923  -31.4102 H         1 FWZ         0.0550
     80 H14       -37.1589   13.9674  -21.6927 H         1 FWZ         0.0482
     81 H15       -35.1631   11.6572  -25.5720 H         1 FWZ         0.0522
     82 H16       -32.4247   12.7256  -18.5810 H         1 FWZ         0.1176
     83 H17       -34.8363   15.3742  -32.4130 H         1 FWZ         0.0807
     84 H18       -33.2791   12.2490  -28.0562 H         1 FWZ         0.0338
     85 H19       -33.5310   13.9697  -27.6061 H         1 FWZ         0.0338
     86 H20       -31.7683   14.1670  -29.2012 H         1 FWZ         0.0616
     87 H21       -31.7398   12.8430  -31.0970 H         1 FWZ         0.2099
     88 H22       -36.4056   11.7002  -27.5889 H         1 FWZ         0.1875
     89 H23       -38.2911   12.1085  -26.2180 H         1 FWZ         0.0657
     90 H24       -37.9875   13.8735  -26.3571 H         1 FWZ         0.0657
     91 H25       -34.0086   11.6344  -23.4087 H         1 FWZ         0.0479
     92 H26       -36.7893   11.3729  -18.5574 H         1 FWZ         0.0382
     93 H27       -36.9406   10.8429  -20.2670 H         1 FWZ         0.0382
     94 H28       -37.4485   12.4990  -19.7919 H         1 FWZ         0.0382
     95 H29       -36.5914   14.4058  -37.2664 H         1 FWZ         0.0282
     96 H30       -38.3248   13.9389  -37.2010 H         1 FWZ         0.0282
     97 H31       -37.6502   11.5426  -36.4305 H         1 FWZ         0.0282
     98 H32       -35.9169   12.0094  -36.4959 H         1 FWZ         0.0282
     99 H33       -39.0352   14.3351  -22.0016 H         1 FWZ         0.0632
    100 H34       -40.2512   14.9841  -23.1534 H         1 FWZ         0.0632
    101 H35       -37.4852   16.1479  -22.6426 H         1 FWZ         0.0439
    102 H36       -39.0195   16.7584  -21.9356 H         1 FWZ         0.0439
    103 H37       -39.5516   20.8932  -26.9501 H         1 FWZ         0.0967
    104 H38       -38.2952   20.0045  -27.8767 H         1 FWZ         0.0967
    105 H39       -40.4647   18.4413  -27.9882 H         1 FWZ         0.2048
    106 H40       -39.1290   18.5745  -29.8014 H         1 FWZ         0.0836
    107 H41       -39.2813   20.3642  -29.8248 H         1 FWZ         0.0836
    108 H42       -40.6849   18.7114  -31.4783 H         1 FWZ         0.0588
    109 H43       -41.2856   20.3147  -30.9350 H         1 FWZ         0.0588
    110 H44       -43.2036   18.8047  -28.1536 H         1 FWZ         0.0588
    111 H45       -43.3563   20.2197  -29.2496 H         1 FWZ         0.0588
    112 H46       -41.3862   21.1657  -28.5311 H         1 FWZ         0.0836
    113 H47       -41.7919   20.2432  -27.0441 H         1 FWZ         0.0836
    114 H48       -44.7269   19.3460  -30.5429 H         1 FWZ         0.0562
    115 H49       -41.2358   15.3888  -31.9142 H         1 FWZ         0.1868
    116 H50       -40.7785   16.6120  -30.6987 H         1 FWZ         0.1868
    117 H51       -49.2957   17.3196  -34.1196 H         1 FWZ         0.0558
    118 H52       -50.1721   19.3807  -33.0823 H         1 FWZ         0.0635
    119 H53       -48.8135   20.5993  -31.4316 H         1 FWZ         0.0542
    120 H54       -46.4936   19.9099  -30.9844 H         1 FWZ         0.0643
    121 H55       -46.0092   16.2275  -33.6363 H         1 FWZ         0.2520
    122 H56       -37.1487   16.3332  -25.1532 H         1 FWZ         0.0540
    123 H57       -37.4433   17.8574  -27.0597 H         1 FWZ         0.0542
    124 H58       -40.6212   19.8250  -24.9983 H         1 FWZ         0.0542
    125 H59       -40.3401   18.2982  -23.1013 H         1 FWZ         0.0540
@<TRIPOS>BOND
     1   15    1 1  
     2    1   31 am 
     3    2   15 1  
     4   17    2 am 
     5    2   18 2  
     6   16    3 1  
     7   16    4 1  
     8   16    5 1  
     9    8    6 1  
    10    6   17 1  
    11    6   19 1  
    12   17    7 1  
    13   20    7 1  
    14    8   22 2  
    15   23    8 am 
    16    9   10 ar 
    17    9   25 ar 
    18   37    9 1  
    19   10   11 ar 
    20   11   26 ar 
    21   11   27 1  
    22   25   12 ar 
    23   12   26 ar 
    24   27   13 2  
    25   13   28 1  
    26   13   30 1  
    27   14   28 2  
    28   29   14 1  
    29   15   16 1  
    30   19   20 1  
    31   20   21 1  
    32   24   23 1  
    33   25   24 1  
    34   27   29 1  
    35   31   32 1  
    36   31   33 2  
    37   32   34 1  
    38   32   35 1  
    39   32   36 1  
    40   36   35 1  
    41   38   37 1  
    42   39   38 1  
    43   61   39 1  
    44   40   41 1  
    45   64   40 1  
    46   41   42 1  
    47   41   46 1  
    48   42   43 1  
    49   43   44 1  
    50   45   44 1  
    51   44   47 1  
    52   46   45 1  
    53   47   48 ar 
    54   47   52 ar 
    55   48   49 ar 
    56   49   50 ar 
    57   49   54 1  
    58   51   50 ar 
    59   52   51 ar 
    60   52   53 1  
    61   54   55 ar 
    62   54   59 ar 
    63   55   56 ar 
    64   55   60 1  
    65   56   57 ar 
    66   58   57 ar 
    67   59   58 ar 
    68   62   61 ar 
    69   61   66 ar 
    70   63   62 ar 
    71   63   64 ar 
    72   64   65 ar 
    73   65   66 ar 
    74    1   67 1  
    75    3   68 1  
    76    3   69 1  
    77    3   70 1  
    78    4   71 1  
    79    4   72 1  
    80    4   73 1  
    81    5   74 1  
    82    5   75 1  
    83    5   76 1  
    84    6   77 1  
    85    7   78 1  
    86    7   79 1  
    87   10   80 1  
    88   12   81 1  
    89   14   82 1  
    90   15   83 1  
    91   19   84 1  
    92   19   85 1  
    93   20   86 1  
    94   21   87 1  
    95   23   88 1  
    96   24   89 1  
    97   24   90 1  
    98   26   91 1  
    99   30   92 1  
   100   30   93 1  
   101   30   94 1  
   102   35   95 1  
   103   35   96 1  
   104   36   97 1  
   105   36   98 1  
   106   38   99 1  
   107   38  100 1  
   108   39  101 1  
   109   39  102 1  
   110   40  103 1  
   111   40  104 1  
   112   41  105 1  
   113   42  106 1  
   114   42  107 1  
   115   43  108 1  
   116   43  109 1  
   117   45  110 1  
   118   45  111 1  
   119   46  112 1  
   120   46  113 1  
   121   48  114 1  
   122   53  115 1  
   123   53  116 1  
   124   56  117 1  
   125   57  118 1  
   126   58  119 1  
   127   59  120 1  
   128   60  121 1  
   129   62  122 1  
   130   63  123 1  
   131   65  124 1  
   132   66  125 1  
@<TRIPOS>SUBSTRUCTURE
     1 FWZ         1

