### 
### Created by X-TOOL on Mon Aug  2 16:13:46 2021
### 

@<TRIPOS>MOLECULE
6hay_ligand
  126   132     1     0     0
SMALL
GAST_HUCK


@<TRIPOS>ATOM
      1 N1        -29.7950   12.9450  -32.7470 N.am      1 FX8        -0.2619
      2 C4        -29.1670   12.7010  -30.4490 C.2       1 FX8         0.2072
      3 C5        -28.9650   15.7060  -30.2100 C.3       1 FX8        -0.0558
      4 C6        -31.1130   15.0800  -31.2880 C.3       1 FX8        -0.0558
      5 C7        -29.2340   15.9300  -32.6680 C.3       1 FX8        -0.0558
      6 C10       -28.1290   11.5300  -28.5840 C.3       1 FX8         0.1362
      7 C13       -26.7290   13.0580  -29.8610 C.3       1 FX8         0.0629
      8 C15       -29.1810   11.8950  -27.5410 C.2       1 FX8         0.2035
      9 C20       -30.4410   11.4570  -23.2080 C.ar      1 FX8         0.0913
     10 C21       -29.8080   11.3540  -21.9760 C.ar      1 FX8        -0.0374
     11 C22       -28.5720   10.7150  -21.8720 C.ar      1 FX8        -0.0336
     12 C24       -28.5950   10.3340  -24.2500 C.ar      1 FX8        -0.0695
     13 C26       -28.4400   10.0700  -19.3600 C.2       1 FX8         0.0118
     14 C28       -26.3700   10.4490  -18.7100 C.2       1 FX8         0.0739
     15 C2        -29.0690   13.6130  -31.6800 C.3       1 FX8         0.1361
     16 C3        -29.5910   15.0670  -31.4520 C.3       1 FX8         0.0027
     17 N8        -28.0650   12.4790  -29.7070 N.am      1 FX8        -0.2472
     18 O9        -30.2010   12.0850  -30.2440 O.2       1 FX8        -0.3941
     19 C11       -26.7150   11.5940  -27.9780 C.3       1 FX8         0.0158
     20 C12       -25.8410   12.0580  -29.1350 C.3       1 FX8         0.0799
     21 O14       -25.5020   10.9410  -29.9640 O.3       1 FX8        -0.3896
     22 O16       -29.5030   13.0620  -27.3510 O.2       1 FX8        -0.3944
     23 N17       -29.6800   10.8780  -26.8430 N.am      1 FX8        -0.2758
     24 C18       -30.5480   11.0900  -25.6950 C.3       1 FX8         0.0617
     25 C19       -29.8460   10.9380  -24.3650 C.ar      1 FX8         0.0055
     26 C23       -27.9740   10.2070  -23.0210 C.ar      1 FX8        -0.0762
     27 C25       -27.9360   10.5470  -20.5470 C.2       1 FX8         0.0452
     28 N27       -27.5310   10.0330  -18.3190 N.2       1 FX8        -0.3005
     29 S29       -26.2610   10.9230  -20.3560 S.3       1 FX8        -0.0130
     30 C30       -29.8340    9.6030  -19.0940 C.3       1 FX8        -0.0271
     31 C31       -29.3750   12.5680  -33.9580 C.2       1 FX8         0.2352
     32 C32       -30.5130   12.0550  -34.8580 C.3       1 FX8         0.1890
     33 O33       -28.2110   12.6280  -34.3400 O.2       1 FX8        -0.3413
     34 F34       -31.7120   11.8240  -34.1400 F         1 FX8        -0.2375
     35 C35       -30.7080   12.5640  -36.2290 C.3       1 FX8        -0.0098
     36 C36       -30.2870   11.1370  -35.9930 C.3       1 FX8        -0.0098
     37 O37       -31.6270   12.1260  -23.4290 O.3       1 FX8        -0.3204
     38 C38       -32.3080   12.7930  -22.3550 C.3       1 FX8         0.0920
     39 O39       -31.7960   14.8760  -23.5280 O.3       1 FX8        -0.3749
     40 C40       -30.4890   15.2480  -23.9350 C.3       1 FX8         0.0711
     41 C41       -30.3820   16.6830  -24.3050 C.3       1 FX8         0.0713
     42 O42       -30.9640   16.9610  -25.5780 O.3       1 FX8        -0.3723
     43 C43       -31.8060   14.2080  -22.2630 C.3       1 FX8         0.0752
     44 C44       -31.8210   18.0800  -25.5210 C.3       1 FX8         0.0876
     45 C45       -32.0100   18.6970  -26.8900 C.3       1 FX8        -0.0078
     46 N46       -32.8760   17.9520  -27.8240 N.4       1 FX8         0.2399
     47 C47       -33.9920   17.2640  -27.1690 C.3       1 FX8        -0.0099
     48 C48       -34.7180   16.3790  -28.1750 C.3       1 FX8         0.0751
     49 N49       -35.1710   17.1640  -29.3290 N.pl3     1 FX8        -0.2739
     50 C50       -34.1450   18.0280  -29.9250 C.3       1 FX8         0.0751
     51 C51       -33.4240   18.8400  -28.8540 C.3       1 FX8        -0.0099
     52 C52       -36.0940   16.5550  -30.2140 C.ar      1 FX8         0.1311
     53 C53       -37.4240   16.9630  -30.2460 C.ar      1 FX8         0.0026
     54 C54       -38.3160   16.3260  -31.1050 C.ar      1 FX8         0.0257
     55 N55       -37.9170   15.3450  -31.9250 N.ar      1 FX8        -0.3164
     56 N56       -36.6230   14.9570  -31.9530 N.ar      1 FX8        -0.2806
     57 C57       -35.7180   15.5110  -31.1200 C.ar      1 FX8         0.1609
     58 N58       -34.4880   14.9890  -31.2260 N.pl3     1 FX8        -0.3048
     59 C59       -39.7590   16.6980  -31.1630 C.ar      1 FX8         0.0346
     60 C60       -40.6550   16.0640  -32.0390 C.ar      1 FX8         0.1075
     61 C61       -41.9860   16.4870  -32.1210 C.ar      1 FX8        -0.0254
     62 C62       -42.4430   17.5060  -31.3010 C.ar      1 FX8        -0.0648
     63 C63       -41.5820   18.1180  -30.4110 C.ar      1 FX8        -0.0659
     64 C64       -40.2510   17.7320  -30.3520 C.ar      1 FX8        -0.0531
     65 O65       -40.2530   15.1060  -32.9160 O.3       1 FX8        -0.3260
     66 H1        -30.7518   12.7363  -32.5446 H         1 FX8         0.1890
     67 H2        -29.3575   16.7260  -30.0851 H         1 FX8         0.0237
     68 H3        -27.8722   15.7457  -30.3293 H         1 FX8         0.0237
     69 H4        -29.2155   15.1057  -29.3230 H         1 FX8         0.0237
     70 H5        -31.5810   14.6238  -32.1728 H         1 FX8         0.0237
     71 H6        -31.4616   16.1180  -31.1830 H         1 FX8         0.0237
     72 H7        -31.3900   14.5075  -30.3905 H         1 FX8         0.0237
     73 H8        -28.1427   15.9356  -32.8059 H         1 FX8         0.0237
     74 H9        -29.5882   16.9585  -32.5044 H         1 FX8         0.0237
     75 H10       -29.7149   15.5150  -33.5661 H         1 FX8         0.0237
     76 H11       -28.3430   10.5181  -28.9585 H         1 FX8         0.0803
     77 H12       -26.6716   14.0516  -29.3925 H         1 FX8         0.0550
     78 H13       -26.4513   13.1364  -30.9225 H         1 FX8         0.0550
     79 H14       -30.2760   11.7716  -21.0919 H         1 FX8         0.0482
     80 H15       -28.1009    9.9577  -25.1385 H         1 FX8         0.0522
     81 H16       -25.5153   10.4955  -18.0368 H         1 FX8         0.1176
     82 H17       -28.0098   13.6894  -31.9668 H         1 FX8         0.0807
     83 H18       -26.3973   10.6034  -27.6204 H         1 FX8         0.0338
     84 H19       -26.6778   12.3133  -27.1466 H         1 FX8         0.0338
     85 H20       -24.9213   12.5410  -28.7733 H         1 FX8         0.0616
     86 H21       -25.0280   10.2984  -29.4493 H         1 FX8         0.2099
     87 H22       -29.4523    9.9430  -27.1148 H         1 FX8         0.1875
     88 H23       -31.3682   10.3584  -25.7401 H         1 FX8         0.0657
     89 H24       -30.9608   12.1078  -25.7552 H         1 FX8         0.0657
     90 H25       -27.0142    9.7080  -22.9523 H         1 FX8         0.0479
     91 H26       -29.9195    9.2827  -18.0452 H         1 FX8         0.0382
     92 H27       -30.0699    8.7569  -19.7561 H         1 FX8         0.0382
     93 H28       -30.5390   10.4256  -19.2847 H         1 FX8         0.0382
     94 H29       -29.9962   13.2858  -36.6560 H         1 FX8         0.0282
     95 H30       -31.7208   12.7869  -36.5959 H         1 FX8         0.0282
     96 H31       -30.9913   10.3145  -36.1865 H         1 FX8         0.0282
     97 H32       -29.2667   10.8134  -36.2465 H         1 FX8         0.0282
     98 H33       -32.1084   12.2683  -21.4090 H         1 FX8         0.0634
     99 H34       -33.3905   12.7974  -22.5505 H         1 FX8         0.0634
    100 H35       -30.2069   14.6394  -24.8068 H         1 FX8         0.0583
    101 H36       -29.7935   15.0469  -23.1069 H         1 FX8         0.0583
    102 H37       -29.3184   16.9620  -24.3343 H         1 FX8         0.0583
    103 H38       -30.8979   17.2841  -23.5418 H         1 FX8         0.0583
    104 H39       -30.7803   14.1919  -21.8660 H         1 FX8         0.0586
    105 H40       -32.4567   14.7678  -21.5751 H         1 FX8         0.0586
    106 H41       -31.3851   18.8314  -24.8462 H         1 FX8         0.0613
    107 H42       -32.8000   17.7624  -25.1327 H         1 FX8         0.0613
    108 H43       -31.0179   18.7927  -27.3554 H         1 FX8         0.0837
    109 H44       -32.4476   19.6965  -26.7506 H         1 FX8         0.0837
    110 H45       -32.3038   17.2553  -28.2749 H         1 FX8         0.2036
    111 H46       -34.6936   18.0090  -26.7657 H         1 FX8         0.0836
    112 H47       -33.6057   16.6420  -26.3481 H         1 FX8         0.0836
    113 H48       -35.5901   15.9191  -27.6872 H         1 FX8         0.0588
    114 H49       -34.0336   15.5907  -28.5216 H         1 FX8         0.0588
    115 H50       -34.6238   18.7166  -30.6368 H         1 FX8         0.0588
    116 H51       -33.4124   17.4026  -30.4561 H         1 FX8         0.0588
    117 H52       -32.6034   19.4060  -29.3190 H         1 FX8         0.0836
    118 H53       -34.1346   19.5394  -28.3894 H         1 FX8         0.0836
    119 H54       -37.7631   17.7705  -29.6072 H         1 FX8         0.0562
    120 H55       -34.3041   14.2380  -31.9065 H         1 FX8         0.1868
    121 H56       -33.7267   15.3388  -30.6269 H         1 FX8         0.1868
    122 H57       -42.6608   16.0168  -32.8272 H         1 FX8         0.0558
    123 H58       -43.4779   17.8235  -31.3580 H         1 FX8         0.0635
    124 H59       -41.9473   18.9017  -29.7572 H         1 FX8         0.0542
    125 H60       -39.5795   18.2378  -29.6677 H         1 FX8         0.0643
    126 H61       -39.3375   14.9031  -32.7639 H         1 FX8         0.2520
@<TRIPOS>BOND
     1   15    1 1  
     2    1   31 am 
     3    2   15 1  
     4   17    2 am 
     5    2   18 2  
     6   16    3 1  
     7   16    4 1  
     8   16    5 1  
     9    8    6 1  
    10    6   17 1  
    11    6   19 1  
    12   17    7 1  
    13   20    7 1  
    14    8   22 2  
    15   23    8 am 
    16    9   10 ar 
    17    9   25 ar 
    18   37    9 1  
    19   10   11 ar 
    20   11   26 ar 
    21   11   27 1  
    22   25   12 ar 
    23   12   26 ar 
    24   27   13 2  
    25   13   28 1  
    26   13   30 1  
    27   14   28 2  
    28   29   14 1  
    29   15   16 1  
    30   19   20 1  
    31   20   21 1  
    32   24   23 1  
    33   25   24 1  
    34   27   29 1  
    35   31   32 1  
    36   31   33 2  
    37   32   34 1  
    38   32   35 1  
    39   32   36 1  
    40   36   35 1  
    41   38   37 1  
    42   43   38 1  
    43   39   40 1  
    44   39   43 1  
    45   40   41 1  
    46   41   42 1  
    47   42   44 1  
    48   44   45 1  
    49   45   46 1  
    50   46   47 1  
    51   46   51 1  
    52   47   48 1  
    53   48   49 1  
    54   49   50 1  
    55   49   52 1  
    56   50   51 1  
    57   52   53 ar 
    58   52   57 ar 
    59   53   54 ar 
    60   54   55 ar 
    61   54   59 1  
    62   55   56 ar 
    63   56   57 ar 
    64   57   58 1  
    65   59   60 ar 
    66   59   64 ar 
    67   60   61 ar 
    68   60   65 1  
    69   61   62 ar 
    70   62   63 ar 
    71   63   64 ar 
    72    1   66 1  
    73    3   67 1  
    74    3   68 1  
    75    3   69 1  
    76    4   70 1  
    77    4   71 1  
    78    4   72 1  
    79    5   73 1  
    80    5   74 1  
    81    5   75 1  
    82    6   76 1  
    83    7   77 1  
    84    7   78 1  
    85   10   79 1  
    86   12   80 1  
    87   14   81 1  
    88   15   82 1  
    89   19   83 1  
    90   19   84 1  
    91   20   85 1  
    92   21   86 1  
    93   23   87 1  
    94   24   88 1  
    95   24   89 1  
    96   26   90 1  
    97   30   91 1  
    98   30   92 1  
    99   30   93 1  
   100   35   94 1  
   101   35   95 1  
   102   36   96 1  
   103   36   97 1  
   104   38   98 1  
   105   38   99 1  
   106   40  100 1  
   107   40  101 1  
   108   41  102 1  
   109   41  103 1  
   110   43  104 1  
   111   43  105 1  
   112   44  106 1  
   113   44  107 1  
   114   45  108 1  
   115   45  109 1  
   116   46  110 1  
   117   47  111 1  
   118   47  112 1  
   119   48  113 1  
   120   48  114 1  
   121   50  115 1  
   122   50  116 1  
   123   51  117 1  
   124   51  118 1  
   125   53  119 1  
   126   58  120 1  
   127   58  121 1  
   128   61  122 1  
   129   62  123 1  
   130   63  124 1  
   131   64  125 1  
   132   65  126 1  
@<TRIPOS>SUBSTRUCTURE
     1 FX8         1

