### 
### Created by X-TOOL on Mon Aug  2 16:13:46 2021
### 

@<TRIPOS>MOLECULE
6haz_ligand
   38    40     1     0     0
SMALL
GAST_HUCK


@<TRIPOS>ATOM
      1 C4          4.6770  -10.2700    1.3650 C.ar      1 FX5        -0.0531
      2 C5          5.9050   -9.5940    1.2990 C.ar      1 FX5         0.0346
      3 C6          7.0700  -10.3700    1.1580 C.ar      1 FX5         0.1075
      4 C7          5.9640   -8.1040    1.3880 C.ar      1 FX5         0.0257
      5 C8          4.8250   -7.2830    1.4460 C.ar      1 FX5         0.0026
      6 C10         6.3400   -5.3840    1.4990 C.ar      1 FX5         0.1609
      7 N12         7.1990   -7.5770    1.4200 N.ar      1 FX5        -0.3164
      8 C17         2.9890   -2.7970    1.0860 C.3       1 FX5        -0.0117
      9 C20         2.7300   -5.3550    2.3720 C.3       1 FX5         0.0750
     10 C1          6.9990  -11.7700    1.1070 C.ar      1 FX5        -0.0254
     11 C16         3.7140   -4.0270    0.5900 C.3       1 FX5         0.0750
     12 C19         1.9540   -4.1480    2.8600 C.3       1 FX5        -0.0117
     13 C2          5.7740  -12.4050    1.1890 C.ar      1 FX5        -0.0648
     14 C3          4.6160  -11.6610    1.3100 C.ar      1 FX5        -0.0659
     15 C9          5.0190   -5.8980    1.5150 C.ar      1 FX5         0.1311
     16 N11         7.3820   -6.2290    1.4440 N.ar      1 FX5        -0.2806
     17 N14         6.6330   -4.0720    1.6200 N.pl3     1 FX5        -0.3048
     18 N15         3.9660   -4.9400    1.7060 N.pl3     1 FX5        -0.2739
     19 N18         1.7150   -3.1940    1.7410 N.4       1 FX5         0.2300
     20 O13         8.3190   -9.8250    1.0460 O.3       1 FX5        -0.3260
     21 H1          3.7598   -9.7001    1.4604 H         1 FX5         0.0643
     22 H2          3.8280   -7.7083    1.4376 H         1 FX5         0.0562
     23 H3          2.7714   -2.1336    0.2360 H         1 FX5         0.0835
     24 H4          3.6232   -2.2670    1.8119 H         1 FX5         0.0835
     25 H5          2.1092   -5.9205    1.6615 H         1 FX5         0.0588
     26 H6          2.9799   -5.9952    3.2309 H         1 FX5         0.0588
     27 H7          7.9059  -12.3546    1.0032 H         1 FX5         0.0558
     28 H8          4.6720   -3.7289    0.1391 H         1 FX5         0.0588
     29 H9          3.0960   -4.5353   -0.1647 H         1 FX5         0.0588
     30 H10         2.5294   -3.6428    3.6497 H         1 FX5         0.0835
     31 H11         0.9868   -4.4794    3.2659 H         1 FX5         0.0835
     32 H12         5.7218  -13.4873    1.1584 H         1 FX5         0.0635
     33 H13         3.6559  -12.1616    1.3624 H         1 FX5         0.0542
     34 H14         7.6143   -3.7596    1.6009 H         1 FX5         0.1868
     35 H15         5.8753   -3.3832    1.7314 H         1 FX5         0.1868
     36 H16         1.1177   -3.6328    1.0578 H         1 FX5         0.2015
     37 H17         1.2619   -2.3699    2.1037 H         1 FX5         0.2015
     38 H18         8.2555   -8.8783    1.0925 H         1 FX5         0.2520
@<TRIPOS>BOND
     1    2    1 ar 
     2    1   14 ar 
     3    2    3 ar 
     4    4    2 1  
     5    3   10 ar 
     6    3   20 1  
     7    5    4 ar 
     8    4    7 ar 
     9   15    5 ar 
    10   15    6 ar 
    11    6   16 ar 
    12    6   17 1  
    13   16    7 ar 
    14   11    8 1  
    15    8   19 1  
    16    9   12 1  
    17   18    9 1  
    18   10   13 ar 
    19   18   11 1  
    20   12   19 1  
    21   14   13 ar 
    22   15   18 1  
    23    1   21 1  
    24    5   22 1  
    25    8   23 1  
    26    8   24 1  
    27    9   25 1  
    28    9   26 1  
    29   10   27 1  
    30   11   28 1  
    31   11   29 1  
    32   12   30 1  
    33   12   31 1  
    34   13   32 1  
    35   14   33 1  
    36   17   34 1  
    37   17   35 1  
    38   19   36 1  
    39   19   37 1  
    40   20   38 1  
@<TRIPOS>SUBSTRUCTURE
     1 FX5         1

