### 
### Created by X-TOOL on Mon Aug  2 16:13:48 2021
### 

@<TRIPOS>MOLECULE
6hb6_ligand
   56    58     1     0     0
SMALL
GAST_HUCK


@<TRIPOS>ATOM
      1 N         -51.6620    3.1240  -42.2400 N.4       1 YSU         0.2393
      2 CA        -52.3960    2.7600  -43.4520 C.3       1 YSU         0.0745
      3 CB        -52.4600    1.2350  -43.5640 C.3       1 YSU         0.0366
      4 CG        -51.1090    0.5690  -43.5830 C.ar      1 YSU        -0.0460
      5 CD2       -50.1860    0.8620  -44.5820 C.ar      1 YSU        -0.0684
      6 CE2       -48.9590    0.2230  -44.6280 C.ar      1 YSU        -0.0398
      7 CZ        -48.6250   -0.7040  -43.6520 C.ar      1 YSU         0.0805
      8 OH        -47.3960   -1.3040  -43.6800 O.3       1 YSU        -0.3376
      9 CE1       -49.5340   -1.0010  -42.6420 C.ar      1 YSU        -0.0398
     10 CD1       -50.7670   -0.3710  -42.6170 C.ar      1 YSU        -0.0684
     11 C         -53.8440    3.1130  -43.1750 C.2       1 YSU         0.2478
     12 O         -54.3790    3.2920  -42.0880 O.2       1 YSU        -0.3890
     13 NAT       -54.6060    3.1400  -44.3180 N.am      1 YSU        -0.1293
     14 SBI       -56.1770    3.3390  -44.4870 S.o2      1 YSU         0.1859
     15 OAD       -56.7320    4.4170  -43.7480 O.2       1 YSU        -0.1218
     16 OAE       -56.6410    2.0090  -44.3020 O.2       1 YSU        -0.1218
     17 O5'       -56.3420    3.6710  -46.0350 O.3       1 YSU        -0.2161
     18 C5'       -55.6950    2.7960  -46.9980 C.3       1 YSU         0.1073
     19 C4'       -55.0720    3.6810  -48.0520 C.3       1 YSU         0.1161
     20 O4'       -56.0840    4.5000  -48.6810 O.3       1 YSU        -0.3366
     21 C1'       -55.6780    5.8550  -48.6590 C.3       1 YSU         0.2059
     22 C2'       -54.7170    5.9770  -47.4740 C.3       1 YSU         0.1387
     23 O2'       -53.8340    7.0660  -47.6740 O.3       1 YSU        -0.3836
     24 C3'       -53.9820    4.6420  -47.5610 C.3       1 YSU         0.1146
     25 O3'       -52.9240    4.7030  -48.5100 O.3       1 YSU        -0.3864
     26 N1        -56.8790    6.7030  -48.5180 N.am      1 YSU        -0.1592
     27 C6        -57.7480    6.5320  -47.4520 C.2       1 YSU         0.0591
     28 C5        -58.8720    7.2660  -47.3110 C.2       1 YSU         0.0062
     29 C4        -59.1840    8.2760  -48.2770 C.2       1 YSU         0.1822
     30 O4        -60.1650    9.0430  -48.2280 O.2       1 YSU        -0.4124
     31 N3        -58.2680    8.3940  -49.3160 N.am      1 YSU        -0.1865
     32 C2        -57.1170    7.6560  -49.4920 C.2       1 YSU         0.3328
     33 O2        -56.3990    7.7960  -50.4770 O.2       1 YSU        -0.3815
     34 H1        -50.6843    2.9115  -42.3627 H         1 YSU         0.2017
     35 H2        -52.0239    2.6009  -41.4581 H         1 YSU         0.2017
     36 H3        -51.7719    4.1104  -42.0641 H         1 YSU         0.2017
     37 H4        -51.9844    3.2421  -44.3510 H         1 YSU         0.1120
     38 H5        -52.9865    0.9775  -44.4948 H         1 YSU         0.0486
     39 H6        -53.0254    0.8476  -42.7036 H         1 YSU         0.0486
     40 H7        -50.4314    1.6017  -45.3355 H         1 YSU         0.0530
     41 H8        -48.2601    0.4468  -45.4258 H         1 YSU         0.0525
     42 H9        -47.3229   -1.9078  -42.9502 H         1 YSU         0.2458
     43 H10       -49.2778   -1.7240  -41.8761 H         1 YSU         0.0525
     44 H11       -51.4755   -0.6140  -41.8334 H         1 YSU         0.0530
     45 H12       -54.0986    3.0163  -45.1708 H         1 YSU         0.2167
     46 H13       -56.4368    2.1264  -47.4577 H         1 YSU         0.0611
     47 H14       -54.9180    2.1965  -46.5010 H         1 YSU         0.0611
     48 H15       -54.6242    3.0194  -48.8081 H         1 YSU         0.0648
     49 H16       -55.1559    6.1195  -49.5903 H         1 YSU         0.0997
     50 H17       -55.2486    6.0917  -46.5178 H         1 YSU         0.0676
     51 H18       -54.3358    7.8687  -47.7532 H         1 YSU         0.2101
     52 H19       -53.5881    4.3380  -46.5800 H         1 YSU         0.0648
     53 H20       -52.4832    3.8623  -48.5456 H         1 YSU         0.2100
     54 H21       -57.5156    5.7783  -46.7011 H         1 YSU         0.1178
     55 H22       -59.5379    7.0910  -46.4673 H         1 YSU         0.0258
     56 H23       -58.4648    9.0876  -50.0090 H         1 YSU         0.2259
@<TRIPOS>BOND
     1    1    2 1  
     2    2    3 1  
     3    2   11 1  
     4    3    4 1  
     5    4    5 ar 
     6    4   10 ar 
     7    5    6 ar 
     8    6    7 ar 
     9    7    8 1  
    10    7    9 ar 
    11    9   10 ar 
    12   11   12 2  
    13   11   13 am 
    14   13   14 am 
    15   14   15 2  
    16   14   16 2  
    17   14   17 1  
    18   17   18 1  
    19   18   19 1  
    20   19   20 1  
    21   19   24 1  
    22   20   21 1  
    23   21   22 1  
    24   21   26 1  
    25   22   23 1  
    26   22   24 1  
    27   24   25 1  
    28   26   27 1  
    29   26   32 am 
    30   27   28 2  
    31   28   29 1  
    32   29   30 2  
    33   29   31 am 
    34   31   32 am 
    35   32   33 2  
    36    1   34 1  
    37    1   35 1  
    38    1   36 1  
    39    2   37 1  
    40    3   38 1  
    41    3   39 1  
    42    5   40 1  
    43    6   41 1  
    44    8   42 1  
    45    9   43 1  
    46   10   44 1  
    47   13   45 1  
    48   18   46 1  
    49   18   47 1  
    50   19   48 1  
    51   21   49 1  
    52   22   50 1  
    53   23   51 1  
    54   24   52 1  
    55   25   53 1  
    56   27   54 1  
    57   28   55 1  
    58   31   56 1  
@<TRIPOS>SUBSTRUCTURE
     1 YSU         1

