### 
### Created by X-TOOL on Mon Aug  2 16:13:49 2021
### 

@<TRIPOS>MOLECULE
6hb7_ligand
   59    61     1     0     0
SMALL
GAST_HUCK


@<TRIPOS>ATOM
      1 C3U       -57.8890    8.9920  -51.3170 C.3       1 Y3U         0.0478
      2 N3        -58.0060    8.2890  -50.0260 N.am      1 Y3U        -0.1756
      3 C4        -59.0780    8.6180  -49.1830 C.2       1 Y3U         0.1844
      4 O4        -59.8760    9.4800  -49.5320 O.2       1 Y3U        -0.4122
      5 C5        -59.1490    7.8800  -47.9410 C.2       1 Y3U         0.0064
      6 C6        -58.2230    6.9460  -47.6470 C.2       1 Y3U         0.0591
      7 N1        -57.1800    6.6840  -48.5170 N.am      1 Y3U        -0.1590
      8 C1'       -56.1130    5.7030  -48.1860 C.3       1 Y3U         0.2059
      9 O4'       -56.6570    4.4020  -48.0710 O.3       1 Y3U        -0.3366
     10 C4'       -55.6800    3.5880  -47.3730 C.3       1 Y3U         0.1161
     11 C5'       -56.3650    2.7480  -46.3210 C.3       1 Y3U         0.1073
     12 O5'       -56.9210    3.6770  -45.3230 O.3       1 Y3U        -0.2161
     13 SBI       -56.7410    3.3500  -43.7760 S.o2      1 Y3U         0.1859
     14 OAD       -57.2200    4.4760  -43.0530 O.2       1 Y3U        -0.1218
     15 OAE       -57.3160    2.0650  -43.5930 O.2       1 Y3U        -0.1218
     16 NAT       -55.1700    3.1500  -43.6260 N.am      1 Y3U        -0.1293
     17 C         -54.4220    3.1570  -42.4830 C.2       1 Y3U         0.2478
     18 O         -54.9280    3.3700  -41.3830 O.2       1 Y3U        -0.3890
     19 CA        -52.9770    2.7980  -42.6880 C.3       1 Y3U         0.0745
     20 N         -52.1810    3.1390  -41.5080 N.4       1 Y3U         0.2393
     21 CB        -53.0990    1.2670  -42.8390 C.3       1 Y3U         0.0366
     22 CG        -51.7670    0.5660  -42.8710 C.ar      1 Y3U        -0.0460
     23 CD1       -50.8400    0.8450  -43.8750 C.ar      1 Y3U        -0.0684
     24 CE1       -49.6170    0.1900  -43.9190 C.ar      1 Y3U        -0.0398
     25 CZ        -49.2980   -0.7440  -42.9400 C.ar      1 Y3U         0.0805
     26 OH        -48.0870   -1.3680  -42.9740 O.3       1 Y3U        -0.3376
     27 CE2       -50.2140   -1.0310  -41.9320 C.ar      1 Y3U        -0.0398
     28 CD2       -51.4300   -0.3650  -41.8950 C.ar      1 Y3U        -0.0684
     29 C3'       -54.6320    4.5680  -46.8160 C.3       1 Y3U         0.1146
     30 O3'       -53.4680    4.5930  -47.6400 O.3       1 Y3U        -0.3864
     31 C2'       -55.3660    5.9100  -46.8840 C.3       1 Y3U         0.1387
     32 O2'       -54.4730    7.0030  -46.9730 O.3       1 Y3U        -0.3836
     33 C2        -57.0380    7.3330  -49.7330 C.2       1 Y3U         0.3351
     34 O2        -56.1350    7.0900  -50.5210 O.2       1 Y3U        -0.3814
     35 H1        -58.7130    9.7138  -51.4174 H         1 Y3U         0.0540
     36 H2        -57.9392    8.2617  -52.1381 H         1 Y3U         0.0540
     37 H3        -56.9276    9.5249  -51.3585 H         1 Y3U         0.0540
     38 H4        -59.9565    8.0805  -47.2384 H         1 Y3U         0.0258
     39 H5        -58.2968    6.3908  -46.7131 H         1 Y3U         0.1178
     40 H6        -55.3841    5.7278  -49.0095 H         1 Y3U         0.0997
     41 H7        -55.1876    2.9085  -48.0842 H         1 Y3U         0.0648
     42 H8        -55.6388    2.0726  -45.8450 H         1 Y3U         0.0611
     43 H9        -57.1722    2.1560  -46.7769 H         1 Y3U         0.0611
     44 H10       -54.6659    3.0001  -44.4766 H         1 Y3U         0.2167
     45 H11       -52.5516    3.2741  -43.5837 H         1 Y3U         0.1120
     46 H12       -51.2177    2.8895  -41.6690 H         1 Y3U         0.2017
     47 H13       -52.5302    2.6328  -40.7094 H         1 Y3U         0.2017
     48 H14       -52.2468    4.1295  -41.3330 H         1 Y3U         0.2017
     49 H15       -53.6310    1.0495  -43.7769 H         1 Y3U         0.0486
     50 H16       -53.6789    0.8770  -41.9895 H         1 Y3U         0.0486
     51 H17       -51.0780    1.5838  -44.6317 H         1 Y3U         0.0530
     52 H18       -48.9128    0.4061  -44.7143 H         1 Y3U         0.0525
     53 H19       -48.0225   -1.9718  -42.2434 H         1 Y3U         0.2458
     54 H20       -49.9776   -1.7730  -41.1780 H         1 Y3U         0.0525
     55 H21       -52.1285   -0.5736  -41.0927 H         1 Y3U         0.0530
     56 H22       -54.3525    4.3130  -45.7831 H         1 Y3U         0.0648
     57 H23       -53.0861    3.7237  -47.6732 H         1 Y3U         0.2100
     58 H24       -56.0452    6.0545  -46.0309 H         1 Y3U         0.0676
     59 H25       -54.9683    7.8127  -47.0128 H         1 Y3U         0.2101
@<TRIPOS>BOND
     1    1    2 1  
     2    2    3 am 
     3    2   33 am 
     4    3    4 2  
     5    3    5 1  
     6    5    6 2  
     7    6    7 1  
     8    7    8 1  
     9    7   33 am 
    10    8    9 1  
    11    8   31 1  
    12    9   10 1  
    13   10   11 1  
    14   10   29 1  
    15   11   12 1  
    16   12   13 1  
    17   13   14 2  
    18   13   15 2  
    19   13   16 am 
    20   16   17 am 
    21   17   18 2  
    22   17   19 1  
    23   19   20 1  
    24   19   21 1  
    25   21   22 1  
    26   22   23 ar 
    27   22   28 ar 
    28   23   24 ar 
    29   24   25 ar 
    30   25   26 1  
    31   25   27 ar 
    32   27   28 ar 
    33   29   30 1  
    34   29   31 1  
    35   31   32 1  
    36   33   34 2  
    37    1   35 1  
    38    1   36 1  
    39    1   37 1  
    40    5   38 1  
    41    6   39 1  
    42    8   40 1  
    43   10   41 1  
    44   11   42 1  
    45   11   43 1  
    46   16   44 1  
    47   19   45 1  
    48   20   46 1  
    49   20   47 1  
    50   20   48 1  
    51   21   49 1  
    52   21   50 1  
    53   23   51 1  
    54   24   52 1  
    55   26   53 1  
    56   27   54 1  
    57   28   55 1  
    58   29   56 1  
    59   30   57 1  
    60   31   58 1  
    61   32   59 1  
@<TRIPOS>SUBSTRUCTURE
     1 Y3U         1

