### 
### Created by X-TOOL on Mon Aug  2 16:13:49 2021
### 

@<TRIPOS>MOLECULE
6hbm_ligand
   20    20     1     0     0
SMALL
GAST_HUCK


@<TRIPOS>ATOM
      1 O5'       -58.6570   14.4390   22.0810 O.3       1 AHR        -0.3924
      2 C5'       -57.3790   14.8290   22.5480 C.3       1 AHR         0.0730
      3 C4'       -57.5040   15.1520   24.0060 C.3       1 AHR         0.1131
      4 O4'       -58.6120   16.0740   24.2020 O.3       1 AHR        -0.3407
      5 C3'       -56.3150   15.8540   24.6420 C.3       1 AHR         0.1141
      6 O3'       -55.2260   15.0110   24.9860 O.3       1 AHR        -0.3864
      7 C2'       -56.9850   16.4620   25.8640 C.3       1 AHR         0.1339
      8 O2'       -56.1330   17.3670   26.5560 O.3       1 AHR        -0.3841
      9 C1'       -58.2510   17.0350   25.2150 C.3       1 AHR         0.1854
     10 O1'       -59.3410   17.2780   26.1400 O.3       1 AHR        -0.3649
     11 H1        -58.6043   14.2283   21.1561 H         1 AHR         0.2095
     12 H2        -57.0334   15.7158   21.9965 H         1 AHR         0.0584
     13 H3        -56.6619   14.0069   22.4069 H         1 AHR         0.0584
     14 H4        -57.6911   14.2117   24.5452 H         1 AHR         0.0647
     15 H5        -55.9351   16.6399   23.9726 H         1 AHR         0.0648
     16 H6        -54.5336   15.5327   25.3745 H         1 AHR         0.2100
     17 H7        -57.2666   15.6750   26.5791 H         1 AHR         0.0671
     18 H8        -55.3538   16.9075   26.8463 H         1 AHR         0.2101
     19 H9        -58.0028   17.9941   24.7370 H         1 AHR         0.0935
     20 H10       -60.0906   17.6141   25.6630 H         1 AHR         0.2126
@<TRIPOS>BOND
     1    1    2 1  
     2    2    3 1  
     3    3    4 1  
     4    3    5 1  
     5    4    9 1  
     6    5    6 1  
     7    5    7 1  
     8    7    8 1  
     9    7    9 1  
    10    9   10 1  
    11    1   11 1  
    12    2   12 1  
    13    2   13 1  
    14    3   14 1  
    15    5   15 1  
    16    6   16 1  
    17    7   17 1  
    18    8   18 1  
    19    9   19 1  
    20   10   20 1  
@<TRIPOS>SUBSTRUCTURE
     1 AHR         1

