### 
### Created by X-TOOL on Mon Aug  2 16:13:49 2021
### 

@<TRIPOS>MOLECULE
6hbn_ligand
   46    49     1     0     0
SMALL
GAST_HUCK


@<TRIPOS>ATOM
      1 C11       -20.2510   17.9990  -30.3090 C.2       1 FXB         0.0719
      2 C13       -18.6230   16.6220  -29.5280 C.2       1 FXB         0.0307
      3 C14       -18.5960   16.6420  -30.9440 C.2       1 FXB         0.0695
      4 C16       -19.8660   17.7520  -32.7790 C.3       1 FXB         0.0616
      5 C17       -18.6620   18.3850  -33.4820 C.3       1 FXB        -0.0344
      6 C01       -23.1590   20.9540  -35.2790 C.2       1 FXB        -0.1149
      7 C02       -22.3940   20.6790  -34.2410 C.2       1 FXB        -0.0590
      8 C03       -22.9860   20.4950  -32.8430 C.3       1 FXB         0.0994
      9 C05       -22.2440   19.6490  -30.7460 C.ar      1 FXB         0.1055
     10 C06       -23.2230   20.4450  -30.1400 C.ar      1 FXB        -0.0303
     11 C07       -23.3270   20.4880  -28.7370 C.ar      1 FXB        -0.0678
     12 C08       -22.4450   19.7430  -27.9540 C.ar      1 FXB        -0.0596
     13 C09       -21.4660   18.9510  -28.5560 C.ar      1 FXB         0.0228
     14 C10       -21.3530   18.8950  -29.9570 C.ar      1 FXB         0.0392
     15 C12       -19.6770   17.4840  -29.1400 C.2       1 FXB         0.0253
     16 C18       -20.4250   16.5430  -33.5210 C.3       1 FXB        -0.0344
     17 C19       -17.5140   15.7730  -31.7180 C.3       1 FXB         0.0115
     18 C20       -16.8740   14.6800  -30.8330 C.3       1 FXB        -0.0248
     19 C21       -16.5260   15.1150  -29.4310 C.3       1 FXB         0.0178
     20 C22       -17.6330   15.8040  -28.7380 C.2       1 FXB         0.1035
     21 C24       -20.4080   18.0510  -27.9690 C.2       1 FXB         0.1430
     22 N15       -19.5750   17.4620  -31.3800 N.pl3     1 FXB        -0.2549
     23 O04       -22.1550   19.6090  -32.1400 O.3       1 FXB        -0.3026
     24 O23       -17.7440   15.7540  -27.5590 O.2       1 FXB        -0.3987
     25 O25       -20.2120   17.8330  -26.8160 O.2       1 FXB        -0.3547
     26 H1        -20.6627   18.5104  -32.7827 H         1 FXB         0.0650
     27 H2        -18.9166   18.5897  -34.5324 H         1 FXB         0.0260
     28 H3        -17.8076   17.6935  -33.4399 H         1 FXB         0.0260
     29 H4        -18.3969   19.3266  -32.9788 H         1 FXB         0.0260
     30 H5        -22.7142   21.0806  -36.2649 H         1 FXB         0.0291
     31 H6        -24.2357   21.0545  -35.1505 H         1 FXB         0.0291
     32 H7        -21.3186   20.5809  -34.3820 H         1 FXB         0.0699
     33 H8        -24.0007   20.0769  -32.9180 H         1 FXB         0.0797
     34 H9        -23.0260   21.4634  -32.3228 H         1 FXB         0.0797
     35 H10       -23.9015   21.0287  -30.7516 H         1 FXB         0.0570
     36 H11       -24.0898   21.0979  -28.2666 H         1 FXB         0.0570
     37 H12       -22.5203   19.7794  -26.8732 H         1 FXB         0.0580
     38 H13       -21.2838   16.1372  -32.9662 H         1 FXB         0.0260
     39 H14       -19.6453   15.7717  -33.6051 H         1 FXB         0.0260
     40 H15       -20.7493   16.8479  -34.5269 H         1 FXB         0.0260
     41 H16       -16.7191   16.4424  -32.0785 H         1 FXB         0.0477
     42 H17       -18.0022   15.2881  -32.5762 H         1 FXB         0.0477
     43 H18       -15.9498   14.3416  -31.3241 H         1 FXB         0.0315
     44 H19       -17.5811   13.8402  -30.7637 H         1 FXB         0.0315
     45 H20       -15.6667   15.7999  -29.4818 H         1 FXB         0.0479
     46 H21       -16.2507   14.2239  -28.8478 H         1 FXB         0.0479
@<TRIPOS>BOND
     1   14    1 1  
     2    1   15 2  
     3    1   22 1  
     4    3    2 2  
     5   15    2 1  
     6    2   20 1  
     7    3   17 1  
     8   22    3 1  
     9    4    5 1  
    10    4   16 1  
    11   22    4 1  
    12    7    6 2  
    13    8    7 1  
    14   23    8 1  
    15    9   10 ar 
    16    9   14 ar 
    17    9   23 1  
    18   10   11 ar 
    19   11   12 ar 
    20   12   13 ar 
    21   13   14 ar 
    22   13   21 1  
    23   15   21 1  
    24   17   18 1  
    25   18   19 1  
    26   19   20 1  
    27   20   24 2  
    28   21   25 2  
    29    4   26 1  
    30    5   27 1  
    31    5   28 1  
    32    5   29 1  
    33    6   30 1  
    34    6   31 1  
    35    7   32 1  
    36    8   33 1  
    37    8   34 1  
    38   10   35 1  
    39   11   36 1  
    40   12   37 1  
    41   16   38 1  
    42   16   39 1  
    43   16   40 1  
    44   17   41 1  
    45   17   42 1  
    46   18   43 1  
    47   18   44 1  
    48   19   45 1  
    49   19   46 1  
@<TRIPOS>SUBSTRUCTURE
     1 FXB         1

