### 
### Created by X-TOOL on Mon Aug  2 16:12:01 2021
### 

@<TRIPOS>MOLECULE
6hck_ligand
   41    40     1     0     0
SMALL
GAST_HUCK


@<TRIPOS>ATOM
      1 N         -17.8360  -11.8370   15.9250 N.4       1 LEU         0.2379
      2 CA        -18.7000  -12.1390   14.7460 C.3       1 LEU         0.0652
      3 C         -17.9930  -13.1250   13.8170 C.2       1 LEU         0.2262
      4 O         -17.1080  -12.7510   13.0440 O.2       1 LEU        -0.3908
      5 CB        -19.0580  -10.8490   13.9970 C.3       1 LEU         0.0102
      6 CG        -20.4390  -10.8210   13.3350 C.3       1 LEU        -0.0394
      7 CD1       -20.8470   -9.3960   12.9730 C.3       1 LEU        -0.0623
      8 CD2       -20.4720  -11.7100   12.1060 C.3       1 LEU        -0.0623
      9 N         -18.4650  -14.3890   13.8280 N.am      1 LEU        -0.2668
     10 CA        -17.7650  -15.4520   13.1150 C.3       1 LEU         0.0947
     11 C         -18.4620  -15.8030   11.8050 C.2       1 LEU         0.0601
     12 O         -17.8390  -15.8570   10.7420 O.co2     1 LEU        -0.5666
     13 CB        -17.6630  -16.6940   14.0000 C.3       1 LEU        -0.0156
     14 CG        -16.6280  -16.5950   15.1190 C.3       1 LEU        -0.0431
     15 CD1       -17.1970  -17.1180   16.4310 C.3       1 LEU        -0.0625
     16 CD2       -15.3700  -17.3560   14.7220 C.3       1 LEU        -0.0625
     17 OXT       -19.6660  -16.0530   11.7850 O.co2     1 LEU        -0.5666
     18 H1        -18.3105  -11.1864   16.5314 H         1 LEU         0.2015
     19 H2        -16.9682  -11.4317   15.6107 H         1 LEU         0.2015
     20 H3        -17.6458  -12.6888   16.4292 H         1 LEU         0.2015
     21 H4        -19.6310  -12.6027   15.1040 H         1 LEU         0.1098
     22 H5        -18.3042  -10.6956   13.2107 H         1 LEU         0.0348
     23 H6        -19.0121  -10.0179   14.7162 H         1 LEU         0.0348
     24 H7        -21.1697  -11.2116   14.0586 H         1 LEU         0.0299
     25 H8        -21.8403   -9.4078   12.5006 H         1 LEU         0.0232
     26 H9        -20.1129   -8.9711   12.2726 H         1 LEU         0.0232
     27 H10       -20.8820   -8.7817   13.8848 H         1 LEU         0.0232
     28 H11       -20.1756  -12.7320   12.3847 H         1 LEU         0.0232
     29 H12       -19.7738  -11.3187   11.3515 H         1 LEU         0.0232
     30 H13       -21.4905  -11.7240   11.6908 H         1 LEU         0.0232
     31 H14       -19.3037  -14.5994   14.3303 H         1 LEU         0.1877
     32 H15       -16.7486  -15.1013   12.8827 H         1 LEU         0.0726
     33 H16       -17.3969  -17.5492   13.3615 H         1 LEU         0.0308
     34 H17       -18.6474  -16.8706   14.4580 H         1 LEU         0.0308
     35 H18       -16.3642  -15.5361   15.2573 H         1 LEU         0.0297
     36 H19       -16.4346  -17.0364   17.2197 H         1 LEU         0.0232
     37 H20       -17.4882  -18.1718   16.3102 H         1 LEU         0.0232
     38 H21       -18.0792  -16.5235   16.7110 H         1 LEU         0.0232
     39 H22       -14.9838  -16.9561   13.7728 H         1 LEU         0.0232
     40 H23       -15.6098  -18.4226   14.6000 H         1 LEU         0.0232
     41 H24       -14.6077  -17.2389   15.5064 H         1 LEU         0.0232
@<TRIPOS>BOND
     1    1    2 1  
     2    2    3 1  
     3    2    5 1  
     4    3    4 2  
     5    3    9 am 
     6    5    6 1  
     7    6    7 1  
     8    6    8 1  
     9    9   10 1  
    10   10   11 1  
    11   10   13 1  
    12   11   12 ar 
    13   11   17 ar 
    14   13   14 1  
    15   14   15 1  
    16   14   16 1  
    17    1   18 1  
    18    1   19 1  
    19    1   20 1  
    20    2   21 1  
    21    5   22 1  
    22    5   23 1  
    23    6   24 1  
    24    7   25 1  
    25    7   26 1  
    26    7   27 1  
    27    8   28 1  
    28    8   29 1  
    29    8   30 1  
    30    9   31 1  
    31   10   32 1  
    32   13   33 1  
    33   13   34 1  
    34   14   35 1  
    35   15   36 1  
    36   15   37 1  
    37   15   38 1  
    38   16   39 1  
    39   16   40 1  
    40   16   41 1  
@<TRIPOS>SUBSTRUCTURE
     1 LEU         1

