### 
### Created by X-TOOL on Mon Aug  2 16:10:48 2021
### 

@<TRIPOS>MOLECULE
6hcu_ligand
   41    43     1     0     0
SMALL
GAST_HUCK


@<TRIPOS>ATOM
      1 C2        -17.3740   -0.0210  -22.3630 C.3       1 FYB         0.0134
      2 C1        -18.9610    0.2920  -22.6260 C.3       1 FYB        -0.0167
      3 C3        -16.8900    1.1210  -21.4400 C.3       1 FYB         0.2491
      4 C13       -22.1450   -6.2120  -26.1220 C.ar      1 FYB         0.1278
      5 C10       -22.6990   -2.5220  -26.8660 C.2       1 FYB         0.1223
      6 C8        -22.1210   -1.3950  -24.8270 C.2       1 FYB         0.2153
      7 C9        -22.5240   -1.3380  -26.1570 C.2       1 FYB         0.0320
      8 C4        -17.7850    1.3980  -20.1810 C.3       1 FYB         0.0134
      9 C5        -19.3260    1.5480  -20.4350 C.3       1 FYB        -0.0167
     10 C7        -21.9260   -0.1110  -23.9510 C.2       1 FYB         0.2572
     11 C15       -21.6180   -4.9530  -24.1730 C.ar      1 FYB        -0.0200
     12 C16       -21.9670   -3.7730  -24.8720 C.ar      1 FYB         0.1440
     13 F2        -22.2480   -7.3710  -26.8020 F         1 FYB        -0.1900
     14 C12       -22.4590   -5.0740  -26.7930 C.ar      1 FYB        -0.0167
     15 C14       -21.7050   -6.1620  -24.7950 C.ar      1 FYB        -0.0297
     16 C11       -22.3560   -3.8100  -26.1760 C.ar      1 FYB         0.0612
     17 O2        -23.0860   -2.5290  -28.0340 O.2       1 FYB        -0.4081
     18 O3        -21.8490   -2.5940  -24.1650 O.3       1 FYB        -0.2259
     19 O1        -21.9210    0.9630  -24.4820 O.2       1 FYB        -0.3701
     20 N         -21.6700   -0.3780  -22.7240 N.am      1 FYB        -0.2774
     21 C6        -21.3470    0.6480  -21.7510 C.3       1 FYB         0.0596
     22 C         -19.8860    0.4690  -21.3620 C.3       1 FYB         0.0864
     23 O         -19.6840   -0.7140  -20.5830 O.3       1 FYB        -0.3866
     24 F         -16.8590    2.2340  -22.2080 F         1 FYB        -0.2057
     25 F1        -15.6020    1.0030  -21.0560 F         1 FYB        -0.2057
     26 H1        -16.8162   -0.0149  -23.3110 H         1 FYB         0.0323
     27 H2        -17.2485   -0.9963  -21.8700 H         1 FYB         0.0323
     28 H3        -19.3677   -0.5411  -23.2180 H         1 FYB         0.0295
     29 H4        -19.0212    1.2214  -23.2113 H         1 FYB         0.0295
     30 H5        -22.7006   -0.3771  -26.6380 H         1 FYB         0.0534
     31 H6        -17.4306    2.3308  -19.7180 H         1 FYB         0.0323
     32 H7        -17.6420    0.5630  -19.4794 H         1 FYB         0.0323
     33 H8        -19.5122    2.5321  -20.8898 H         1 FYB         0.0295
     34 H9        -19.8483    1.4858  -19.4689 H         1 FYB         0.0295
     35 H10       -21.2819   -4.8950  -23.1441 H         1 FYB         0.0569
     36 H11       -22.7950   -5.1382  -27.8216 H         1 FYB         0.0626
     37 H12       -21.4373   -7.0715  -24.2695 H         1 FYB         0.0620
     38 H13       -21.6939   -1.3321  -22.4254 H         1 FYB         0.1851
     39 H14       -21.9876    0.5385  -20.8635 H         1 FYB         0.0548
     40 H15       -21.4985    1.6443  -22.1919 H         1 FYB         0.0548
     41 H16       -20.1606   -0.6382  -19.7646 H         1 FYB         0.2102
@<TRIPOS>BOND
     1    2    1 1  
     2    1    3 1  
     3   22    2 1  
     4    8    3 1  
     5    3   24 1  
     6    3   25 1  
     7    4   13 1  
     8   14    4 ar 
     9   15    4 ar 
    10    7    5 1  
    11    5   16 1  
    12    5   17 2  
    13    6    7 2  
    14   10    6 1  
    15    6   18 1  
    16    9    8 1  
    17   22    9 1  
    18   10   19 2  
    19   20   10 am 
    20   12   11 ar 
    21   11   15 ar 
    22   12   16 ar 
    23   18   12 1  
    24   16   14 ar 
    25   21   20 1  
    26   21   22 1  
    27   22   23 1  
    28    1   26 1  
    29    1   27 1  
    30    2   28 1  
    31    2   29 1  
    32    7   30 1  
    33    8   31 1  
    34    8   32 1  
    35    9   33 1  
    36    9   34 1  
    37   11   35 1  
    38   14   36 1  
    39   15   37 1  
    40   20   38 1  
    41   21   39 1  
    42   21   40 1  
    43   23   41 1  
@<TRIPOS>SUBSTRUCTURE
     1 FYB         1

