### 
### Created by X-TOOL on Mon Aug  2 16:13:50 2021
### 

@<TRIPOS>MOLECULE
6hcv_ligand
   41    43     1     0     0
SMALL
GAST_HUCK


@<TRIPOS>ATOM
      1 C4        -19.3950    0.0070   22.4310 C.3       1 FYE        -0.0504
      2 C14       -14.7100   -6.1230   24.9490 C.ar      1 FYE        -0.0297
      3 C5        -17.9520    0.3420   22.8570 C.3       1 FYE        -0.0221
      4 C6        -15.6270    0.9640   22.0940 C.3       1 FYE         0.0596
      5 C11       -14.1800   -3.7420   26.2710 C.ar      1 FYE         0.0612
      6 C7        -14.7260   -0.0270   24.1310 C.2       1 FYE         0.2572
      7 C8        -14.5100   -1.2840   24.9130 C.2       1 FYE         0.2153
      8 C9        -14.0890   -1.2710   26.2460 C.2       1 FYE         0.0320
      9 C10       -13.8980   -2.4680   26.9550 C.2       1 FYE         0.1223
     10 C12       -14.0030   -4.9470   26.9400 C.ar      1 FYE        -0.0167
     11 C13       -14.2790   -6.1370   26.2800 C.ar      1 FYE         0.1278
     12 C3        -19.9980    1.1810   21.6890 C.3       1 FYE        -0.0529
     13 F         -14.1140   -7.3080   26.9160 F         1 FYE        -0.1900
     14 C15       -14.8730   -4.9030   24.2850 C.ar      1 FYE        -0.0200
     15 C16       -14.6070   -3.7030   24.9380 C.ar      1 FYE         0.1440
     16 O2        -13.4980   -2.4920   28.1480 O.2       1 FYE        -0.4081
     17 O3        -14.7670   -2.4830   24.2740 O.3       1 FYE        -0.2259
     18 O1        -14.6220    1.0690   24.6480 O.2       1 FYE        -0.3701
     19 N         -15.1070   -0.1570   22.8670 N.am      1 FYE        -0.2774
     20 C         -17.0630    0.6410   21.6590 C.3       1 FYE         0.0860
     21 O         -16.9930   -0.5040   20.7850 O.3       1 FYE        -0.3866
     22 C2        -19.1030    1.5210   20.4780 C.3       1 FYE        -0.0504
     23 C1        -17.6680    1.8240   20.9080 C.3       1 FYE        -0.0221
     24 H1        -19.9987   -0.2086   23.3249 H         1 FYE         0.0266
     25 H2        -19.3860   -0.8746   21.7732 H         1 FYE         0.0266
     26 H3        -14.9168   -7.0543   24.4343 H         1 FYE         0.0620
     27 H4        -17.5344   -0.5157   23.4047 H         1 FYE         0.0293
     28 H5        -17.9707    1.2233   23.5150 H         1 FYE         0.0293
     29 H6        -14.9986    1.1235   21.2054 H         1 FYE         0.0548
     30 H7        -15.6240    1.8731   22.7132 H         1 FYE         0.0548
     31 H8        -13.9065   -0.3187   26.7418 H         1 FYE         0.0534
     32 H9        -13.6533   -4.9579   27.9660 H         1 FYE         0.0626
     33 H10       -20.0572    2.0507   22.3599 H         1 FYE         0.0265
     34 H11       -21.0073    0.9179   21.3397 H         1 FYE         0.0265
     35 H12       -15.2089   -4.8919   23.2544 H         1 FYE         0.0569
     36 H13       -15.0351   -1.0536   22.4301 H         1 FYE         0.1851
     37 H14       -16.6116   -1.2365   21.2545 H         1 FYE         0.2102
     38 H15       -19.5157    2.4022   19.9650 H         1 FYE         0.0266
     39 H16       -19.0957    0.6647   19.7876 H         1 FYE         0.0266
     40 H17       -17.0608    2.0321   20.0147 H         1 FYE         0.0293
     41 H18       -17.6677    2.7060   21.5653 H         1 FYE         0.0293
@<TRIPOS>BOND
     1    3    1 1  
     2    1   12 1  
     3   11    2 ar 
     4    2   14 ar 
     5   20    3 1  
     6   19    4 1  
     7    4   20 1  
     8    5    9 1  
     9   10    5 ar 
    10    5   15 ar 
    11    7    6 1  
    12    6   18 2  
    13    6   19 am 
    14    8    7 2  
    15    7   17 1  
    16    9    8 1  
    17    9   16 2  
    18   10   11 ar 
    19   11   13 1  
    20   12   22 1  
    21   14   15 ar 
    22   15   17 1  
    23   20   21 1  
    24   20   23 1  
    25   22   23 1  
    26    1   24 1  
    27    1   25 1  
    28    2   26 1  
    29    3   27 1  
    30    3   28 1  
    31    4   29 1  
    32    4   30 1  
    33    8   31 1  
    34   10   32 1  
    35   12   33 1  
    36   12   34 1  
    37   14   35 1  
    38   19   36 1  
    39   21   37 1  
    40   22   38 1  
    41   22   39 1  
    42   23   40 1  
    43   23   41 1  
@<TRIPOS>SUBSTRUCTURE
     1 FYE         1

