### 
### Created by X-TOOL on Mon Aug  2 16:12:01 2021
### 

@<TRIPOS>MOLECULE
6hcw_ligand
   41    43     1     0     0
SMALL
GAST_HUCK


@<TRIPOS>ATOM
      1 C2         48.6780   19.6400   -6.0330 C.3       1 FYB         0.0134
      2 C1         48.9290   19.8410   -4.5360 C.3       1 FYB        -0.0167
      3 C3         48.5340   20.9780   -6.6820 C.3       1 FYB         0.2491
      4 C13        50.6390   13.2900   -0.8360 C.ar      1 FYB         0.1278
      5 C10        48.4960   16.0690    0.4340 C.2       1 FYB         0.1223
      6 C8         49.2740   18.0140   -0.8180 C.2       1 FYB         0.2153
      7 C9         48.3910   17.4570    0.0610 C.2       1 FYB         0.0320
      8 C4         49.6560   21.9490   -6.4580 C.3       1 FYB         0.0134
      9 C5         49.8950   22.1300   -4.9550 C.3       1 FYB        -0.0167
     10 C7         49.1810   19.4130   -1.2550 C.2       1 FYB         0.2572
     11 C15        51.3620   15.2930   -1.8810 C.ar      1 FYB        -0.0200
     12 C16        50.4140   15.9720   -1.1490 C.ar      1 FYB         0.1440
     13 F2         50.7410   11.9460   -0.7040 F         1 FYB        -0.1900
     14 C12        49.6980   13.9400   -0.0890 C.ar      1 FYB        -0.0167
     15 C14        51.4600   13.9140   -1.7460 C.ar      1 FYB        -0.0297
     16 C11        49.5530   15.3130   -0.2480 C.ar      1 FYB         0.0612
     17 O2         47.7860   15.5470    1.3140 O.2       1 FYB        -0.4081
     18 O3         50.2770   17.3100   -1.4040 O.3       1 FYB        -0.2259
     19 O1         48.1740   20.0440   -1.0370 O.2       1 FYB        -0.3701
     20 N          50.2240   19.8880   -1.9270 N.am      1 FYB        -0.2774
     21 C6         50.2030   21.1270   -2.6900 C.3       1 FYB         0.0596
     22 C          50.0850   20.7960   -4.2370 C.3       1 FYB         0.0864
     23 O          51.3060   20.2080   -4.6770 O.3       1 FYB        -0.3866
     24 F          47.3620   21.5440   -6.2580 F         1 FYB        -0.2057
     25 F1         48.3640   20.8010   -8.0350 F         1 FYB        -0.2057
     26 H1         47.7561   19.0578   -6.1782 H         1 FYB         0.0323
     27 H2         49.5262   19.1015   -6.4809 H         1 FYB         0.0323
     28 H3         49.1591   18.8637   -4.0867 H         1 FYB         0.0295
     29 H4         48.0141   20.2477   -4.0805 H         1 FYB         0.0295
     30 H5         47.5969   18.0692    0.4859 H         1 FYB         0.0534
     31 H6         49.3939   22.9192   -6.9053 H         1 FYB         0.0323
     32 H7         50.5720   21.5634   -6.9294 H         1 FYB         0.0323
     33 H8         49.0281   22.6472   -4.5181 H         1 FYB         0.0295
     34 H9         50.7978   22.7417   -4.8109 H         1 FYB         0.0295
     35 H10        52.0231   15.8274   -2.5537 H         1 FYB         0.0569
     36 H11        49.0770   13.3960    0.6135 H         1 FYB         0.0626
     37 H12        52.1645   13.3450   -2.3418 H         1 FYB         0.0620
     38 H13        51.0746   19.3626   -1.9073 H         1 FYB         0.1851
     39 H14        51.1316   21.6869   -2.5051 H         1 FYB         0.0548
     40 H15        49.3404   21.7344   -2.3786 H         1 FYB         0.0548
     41 H16        52.0283   20.7902   -4.4724 H         1 FYB         0.2102
@<TRIPOS>BOND
     1    2    1 1  
     2    1    3 1  
     3   22    2 1  
     4    8    3 1  
     5    3   24 1  
     6    3   25 1  
     7    4   13 1  
     8   14    4 ar 
     9   15    4 ar 
    10    7    5 1  
    11    5   16 1  
    12    5   17 2  
    13    6    7 2  
    14   10    6 1  
    15    6   18 1  
    16    9    8 1  
    17   22    9 1  
    18   10   19 2  
    19   20   10 am 
    20   12   11 ar 
    21   11   15 ar 
    22   12   16 ar 
    23   18   12 1  
    24   16   14 ar 
    25   21   20 1  
    26   21   22 1  
    27   22   23 1  
    28    1   26 1  
    29    1   27 1  
    30    2   28 1  
    31    2   29 1  
    32    7   30 1  
    33    8   31 1  
    34    8   32 1  
    35    9   33 1  
    36    9   34 1  
    37   11   35 1  
    38   14   36 1  
    39   15   37 1  
    40   20   38 1  
    41   21   39 1  
    42   21   40 1  
    43   23   41 1  
@<TRIPOS>SUBSTRUCTURE
     1 FYB         1

