### 
### Created by X-TOOL on Wed Jan  1 15:39:36 2020
### 

@<TRIPOS>MOLECULE
6hd4_ligand
   50    53     1     0     0
SMALL
GAST_HUCK


@<TRIPOS>ATOM
      1 C2         17.1120   38.7440   49.9850 C.3       1 FYW         0.5436
      2 C41        23.3430   47.8730   59.9750 C.3       1 FYW         0.0775
      3 C43        21.8540   47.7960   60.3800 C.3       1 FYW        -0.0043
      4 C46        21.5310   46.3370   59.9640 C.3       1 FYW         0.0343
      5 C11        19.0900   42.4130   52.7240 C.ar      1 FYW         0.0553
      6 C12        17.7100   42.1250   52.7730 C.ar      1 FYW        -0.0490
      7 C14        17.1220   41.4020   51.7240 C.ar      1 FYW        -0.0454
      8 C18        20.9480   43.4140   54.0070 C.2       1 FYW         0.2280
      9 C20        21.2980   44.0880   55.3010 C.ar      1 FYW         0.0705
     10 C21        22.2560   45.1030   55.3460 C.ar      1 FYW         0.0180
     11 C24        21.9270   45.3750   57.6990 C.ar      1 FYW         0.1319
     12 C25        20.8770   44.4080   57.6990 C.ar      1 FYW         0.0471
     13 C26        20.6100   43.7420   56.4910 C.ar      1 FYW        -0.0232
     14 C28        20.1980   43.8850   58.9260 C.ar      1 FYW         0.0368
     15 C29        20.9740   43.2960   59.9460 C.ar      1 FYW         0.0349
     16 F1         16.3750   38.5670   51.1050 F         1 FYW        -0.1404
     17 F3         18.3190   38.1390   50.2000 F         1 FYW        -0.1404
     18 F4         16.4470   38.2230   48.9200 F         1 FYW        -0.1404
     19 O5         17.2690   40.1370   49.6940 O.3       1 FYW        -0.2360
     20 C6         17.8980   40.9300   50.6650 C.ar      1 FYW         0.0852
     21 C7         19.2880   41.1380   50.6690 C.ar      1 FYW        -0.0454
     22 C9         19.8820   41.8790   51.6880 C.ar      1 FYW        -0.0490
     23 N16        19.6420   43.1060   53.8120 N.am      1 FYW        -0.2401
     24 O19        21.8250   43.2820   53.1710 O.2       1 FYW        -0.3774
     25 N23        22.5710   45.6270   56.5370 N.ar      1 FYW        -0.2751
     26 N31        20.3780   42.8050   61.0600 N.ar      1 FYW        -0.2640
     27 C32        19.0330   42.8130   61.1980 C.ar      1 FYW         0.0882
     28 N34        18.2660   43.3540   60.2330 N.ar      1 FYW        -0.2640
     29 C35        18.8080   43.8690   59.0970 C.ar      1 FYW         0.0349
     30 N37        22.2650   46.2420   58.7060 N.pl3     1 FYW        -0.2861
     31 C38        23.2800   47.2970   58.5450 C.3       1 FYW         0.0578
     32 O49        24.1260   47.0050   60.8180 O.3       1 FYW        -0.3897
     33 H1         23.7357   48.9002   60.0005 H         1 FYW         0.0614
     34 H2         21.2427   48.5226   59.8248 H         1 FYW         0.0311
     35 H3         21.7171   47.9513   61.4603 H         1 FYW         0.0311
     36 H4         20.4514   46.1882   59.8149 H         1 FYW         0.0526
     37 H5         21.9020   45.6133   60.7047 H         1 FYW         0.0526
     38 H6         17.1102   42.4586   53.6120 H         1 FYW         0.0479
     39 H7         16.0555   41.2085   51.7365 H         1 FYW         0.0507
     40 H8         22.7326   45.4577   54.4393 H         1 FYW         0.0845
     41 H9         19.8675   42.9525   56.4688 H         1 FYW         0.0763
     42 H10        22.0510   43.2358   59.8386 H         1 FYW         0.0931
     43 H11        19.8994   40.7207   49.8771 H         1 FYW         0.0507
     44 H12        20.9532   42.0448   51.6840 H         1 FYW         0.0479
     45 H13        19.0029   43.4052   54.5205 H         1 FYW         0.2215
     46 H14        18.5741   42.3855   62.0822 H         1 FYW         0.1111
     47 H15        18.1630   44.2679   58.3224 H         1 FYW         0.0931
     48 H16        24.2495   46.8797   58.2354 H         1 FYW         0.0551
     49 H17        22.9591   48.0574   57.8179 H         1 FYW         0.0551
     50 H18        23.7252   46.1441   60.8433 H         1 FYW         0.2099
@<TRIPOS>BOND
     1    1   16 1  
     2    1   17 1  
     3    1   18 1  
     4   19    1 1  
     5    3    2 1  
     6    2   31 1  
     7    2   32 1  
     8    4    3 1  
     9   30    4 1  
    10    6    5 ar 
    11    5   22 ar 
    12    5   23 1  
    13    7    6 ar 
    14   20    7 ar 
    15    8    9 1  
    16   23    8 am 
    17    8   24 2  
    18    9   10 ar 
    19    9   13 ar 
    20   10   25 ar 
    21   12   11 ar 
    22   25   11 ar 
    23   11   30 1  
    24   13   12 ar 
    25   12   14 1  
    26   14   15 ar 
    27   14   29 ar 
    28   15   26 ar 
    29   19   20 1  
    30   20   21 ar 
    31   21   22 ar 
    32   26   27 ar 
    33   27   28 ar 
    34   28   29 ar 
    35   30   31 1  
    36    2   33 1  
    37    3   34 1  
    38    3   35 1  
    39    4   36 1  
    40    4   37 1  
    41    6   38 1  
    42    7   39 1  
    43   10   40 1  
    44   13   41 1  
    45   15   42 1  
    46   21   43 1  
    47   22   44 1  
    48   23   45 1  
    49   27   46 1  
    50   29   47 1  
    51   31   48 1  
    52   31   49 1  
    53   32   50 1  
@<TRIPOS>SUBSTRUCTURE
     1 FYW         1

