### 
### Created by X-TOOL on Wed Jan  1 15:39:36 2020
### 

@<TRIPOS>MOLECULE
6hd6_ligand
   47    49     1     0     0
SMALL
GAST_HUCK


@<TRIPOS>ATOM
      1 C2         17.8890   38.2450   50.2180 C.3       1 FYH         0.5437
      2 C41        27.1640   48.3760   58.8420 C.3       1 FYH         0.0878
      3 C44        26.8000   47.3680   57.7110 C.3       1 FYH        -0.0064
      4 C11        19.8210   42.1800   52.9740 C.ar      1 FYH         0.0555
      5 C12        18.4250   41.9970   52.9260 C.ar      1 FYH        -0.0489
      6 C14        17.8180   41.1750   51.9530 C.ar      1 FYH        -0.0454
      7 C18        21.7610   43.1910   54.1830 C.2       1 FYH         0.2278
      8 C20        22.2810   44.0030   55.3570 C.ar      1 FYH         0.0488
      9 C21        23.3380   44.9260   55.2080 C.ar      1 FYH        -0.0352
     10 C23        23.8270   45.6570   56.3150 C.ar      1 FYH         0.0068
     11 C24        23.2410   45.4340   57.5720 C.ar      1 FYH        -0.0510
     12 C26        22.2010   44.5160   57.7380 C.ar      1 FYH        -0.0628
     13 C28        21.7310   43.7990   56.6330 C.ar      1 FYH        -0.0485
     14 C30        24.9800   46.6750   56.1220 C.3       1 FYH         0.0031
     15 F1         17.1550   38.0380   51.3360 F         1 FYH        -0.1404
     16 F3         19.0320   37.5360   50.3410 F         1 FYH        -0.1404
     17 F4         17.2490   37.7500   49.1320 F         1 FYH        -0.1404
     18 O5         18.1050   39.6560   50.0140 O.3       1 FYH        -0.2360
     19 C6         18.6210   40.4940   51.0160 C.ar      1 FYH         0.0852
     20 C7         20.0100   40.6570   51.0820 C.ar      1 FYH        -0.0454
     21 C9         20.5970   41.4800   52.0530 C.ar      1 FYH        -0.0489
     22 N16        20.4230   42.9750   53.9910 N.am      1 FYH        -0.2394
     23 O19        22.6320   42.7390   53.4490 O.2       1 FYH        -0.3745
     24 N33        25.3790   47.5190   57.2890 N.4       1 FYH         0.2504
     25 C34        24.4030   47.6380   58.4160 C.3       1 FYH        -0.0064
     26 C37        24.8560   48.6750   59.4750 C.3       1 FYH         0.0878
     27 O40        26.1910   48.3410   59.9140 O.3       1 FYH        -0.3693
     28 H1         27.1953   49.3914   58.4201 H         1 FYH         0.0613
     29 H2         28.1530   48.1169   59.2478 H         1 FYH         0.0613
     30 H3         26.9576   46.3436   58.0794 H         1 FYH         0.0837
     31 H4         27.4525   47.5505   56.8445 H         1 FYH         0.0837
     32 H5         17.8010   42.5007   53.6554 H         1 FYH         0.0479
     33 H6         16.7396   41.0678   51.9263 H         1 FYH         0.0507
     34 H7         23.7815   45.0768   54.2304 H         1 FYH         0.0608
     35 H8         23.6035   45.9860   58.4316 H         1 FYH         0.0594
     36 H9         21.7614   44.3605   58.7166 H         1 FYH         0.0611
     37 H10        20.9327   43.0773   56.7630 H         1 FYH         0.0611
     38 H11        24.6806   47.3575   55.3130 H         1 FYH         0.0981
     39 H12        25.8689   46.1062   55.8117 H         1 FYH         0.0981
     40 H13        20.6420   40.1381   50.3703 H         1 FYH         0.0507
     41 H14        21.6764   41.5736   52.0879 H         1 FYH         0.0479
     42 H15        19.8017   43.4234   54.6336 H         1 FYH         0.2217
     43 H16        25.3628   48.4467   56.8952 H         1 FYH         0.2050
     44 H17        24.3015   46.6565   58.9020 H         1 FYH         0.0837
     45 H18        23.4290   47.9486   58.0100 H         1 FYH         0.0837
     46 H19        24.1682   48.6514   60.3331 H         1 FYH         0.0613
     47 H20        24.8541   49.6814   59.0311 H         1 FYH         0.0613
@<TRIPOS>BOND
     1    1   15 1  
     2    1   16 1  
     3    1   17 1  
     4   18    1 1  
     5    3    2 1  
     6    2   27 1  
     7   24    3 1  
     8    5    4 ar 
     9    4   21 ar 
    10    4   22 1  
    11    6    5 ar 
    12   19    6 ar 
    13    7    8 1  
    14   22    7 am 
    15    7   23 2  
    16    8    9 ar 
    17    8   13 ar 
    18    9   10 ar 
    19   10   11 ar 
    20   10   14 1  
    21   12   11 ar 
    22   13   12 ar 
    23   14   24 1  
    24   18   19 1  
    25   19   20 ar 
    26   20   21 ar 
    27   24   25 1  
    28   25   26 1  
    29   26   27 1  
    30    2   28 1  
    31    2   29 1  
    32    3   30 1  
    33    3   31 1  
    34    5   32 1  
    35    6   33 1  
    36    9   34 1  
    37   11   35 1  
    38   12   36 1  
    39   13   37 1  
    40   14   38 1  
    41   14   39 1  
    42   20   40 1  
    43   21   41 1  
    44   22   42 1  
    45   24   43 1  
    46   25   44 1  
    47   25   45 1  
    48   26   46 1  
    49   26   47 1  
@<TRIPOS>SUBSTRUCTURE
     1 FYH         1

