### 
### Created by X-TOOL on Wed Jan  1 15:39:37 2020
### 

@<TRIPOS>MOLECULE
6hdn_ligand
   45    48     1     0     0
SMALL
GAST_HUCK


@<TRIPOS>ATOM
      1 N1        -28.9390   43.5240   13.3480 N.pl3     1 FZB        -0.3084
      2 N3        -26.3150   43.6690   12.0730 N.am      1 FZB        -0.2261
      3 C4        -31.2720   42.6680   16.2420 C.3       1 FZB        -0.0186
      4 C5        -29.9560   43.0420   15.5510 C.3       1 FZB         0.0130
      5 C6        -30.1870   43.4760   14.1060 C.3       1 FZB         0.0464
      6 C7        -31.1730   42.5410   13.4050 C.3       1 FZB         0.0130
      7 C8        -28.6170   44.4490   12.4210 C.ar      1 FZB         0.1388
      8 C10       -28.1250   46.4260   10.4870 C.ar      1 FZB        -0.0575
      9 C13       -24.8240   44.6530   10.5030 C.2       1 FZB         0.0315
     10 C15       -25.0820   43.6480   11.5140 C.2       1 FZB         0.2212
     11 O         -24.2800   42.7920   11.8700 O.2       1 FZB        -0.3971
     12 C14       -23.4800   44.6620    9.8230 C.3       1 FZB        -0.0223
     13 C12       -25.8080   45.5350   10.1960 C.2       1 FZB        -0.0442
     14 C16       -27.3470   44.5440   11.7780 C.ar      1 FZB         0.1300
     15 C11       -27.1050   45.5270   10.8100 C.ar      1 FZB         0.0047
     16 C9        -29.3260   46.2780   11.1500 C.ar      1 FZB        -0.0239
     17 N2        -29.5740   45.3380   12.0740 N.ar      1 FZB        -0.3045
     18 C1        -32.3720   42.2020   14.2990 C.3       1 FZB        -0.0186
     19 C3        -32.3270   43.7710   16.1390 C.3       1 FZB        -0.0045
     20 C2        -33.0800   43.4470   14.8350 C.3       1 FZB        -0.0045
     21 N         -31.8490   41.5270   15.5040 N.4       1 FZB         0.2375
     22 C         -32.8620   40.7920   16.2650 C.3       1 FZB        -0.0426
     23 H1        -28.2447   42.7873   13.5381 H         1 FZB         0.1775
     24 H2        -26.5001   42.9795   12.7732 H         1 FZB         0.2357
     25 H3        -31.0833   42.4139   17.2955 H         1 FZB         0.0852
     26 H4        -29.2871   42.1688   15.5594 H         1 FZB         0.0342
     27 H5        -29.4855   43.8697   16.1020 H         1 FZB         0.0342
     28 H6        -30.6192   44.4874   14.1213 H         1 FZB         0.0554
     29 H7        -30.6524   41.6091   13.1395 H         1 FZB         0.0342
     30 H8        -31.5384   43.0303   12.4901 H         1 FZB         0.0342
     31 H9        -27.9791   47.2055    9.7480 H         1 FZB         0.0537
     32 H10       -23.4463   45.4800    9.0883 H         1 FZB         0.0404
     33 H11       -23.3221   43.7018    9.3101 H         1 FZB         0.0404
     34 H12       -22.6901   44.8109   10.5739 H         1 FZB         0.0404
     35 H13       -25.6019   46.2920    9.4408 H         1 FZB         0.0568
     36 H14       -30.1246   46.9696   10.9072 H         1 FZB         0.0635
     37 H15       -33.0794   41.5621   13.7511 H         1 FZB         0.0852
     38 H16       -31.8524   44.7616   16.0804 H         1 FZB         0.0322
     39 H17       -33.0088   43.7415   17.0017 H         1 FZB         0.0322
     40 H18       -34.1405   43.2370   15.0377 H         1 FZB         0.0322
     41 H19       -33.0011   44.2798   14.1207 H         1 FZB         0.0322
     42 H20       -31.1242   40.8747   15.2486 H         1 FZB         0.2036
     43 H21       -32.3924   40.3216   17.1414 H         1 FZB         0.0778
     44 H22       -33.3080   40.0150   15.6267 H         1 FZB         0.0778
     45 H23       -33.6463   41.4874   16.5984 H         1 FZB         0.0778
@<TRIPOS>BOND
     1    1    5 1  
     2    7    1 1  
     3   10    2 am 
     4    2   14 1  
     5    4    3 1  
     6    3   19 1  
     7    3   21 1  
     8    5    4 1  
     9    5    6 1  
    10    6   18 1  
    11   14    7 ar 
    12    7   17 ar 
    13   15    8 ar 
    14    8   16 ar 
    15    9   10 1  
    16    9   12 1  
    17   13    9 2  
    18   10   11 2  
    19   13   15 1  
    20   14   15 ar 
    21   16   17 ar 
    22   18   20 1  
    23   18   21 1  
    24   19   20 1  
    25   21   22 1  
    26    1   23 1  
    27    2   24 1  
    28    3   25 1  
    29    4   26 1  
    30    4   27 1  
    31    5   28 1  
    32    6   29 1  
    33    6   30 1  
    34    8   31 1  
    35   12   32 1  
    36   12   33 1  
    37   12   34 1  
    38   13   35 1  
    39   16   36 1  
    40   18   37 1  
    41   19   38 1  
    42   19   39 1  
    43   20   40 1  
    44   20   41 1  
    45   21   42 1  
    46   22   43 1  
    47   22   44 1  
    48   22   45 1  
@<TRIPOS>SUBSTRUCTURE
     1 FZB         1

