### 
### Created by X-TOOL on Wed Jan  1 15:39:36 2020
### 

@<TRIPOS>MOLECULE
6hdo_ligand
   77    82     1     0     0
SMALL
GAST_HUCK


@<TRIPOS>ATOM
      1 C15       -29.5270   46.8300   11.0280 C.ar      1 FZH        -0.0769
      2 C17       -29.8930   45.7640   11.8200 C.ar      1 FZH        -0.0522
      3 C22       -30.6720   43.3830   13.4810 C.3       1 FZH         0.0468
      4 C24       -30.5890   43.0380   14.9670 C.3       1 FZH         0.0129
      5 C01       -29.2070   50.0950    6.6680 C.3       1 FZH        -0.0257
      6 C05       -28.3800   49.6580    7.8650 C.ar      1 FZH        -0.0214
      7 C06       -27.2880   50.3910    8.2920 C.ar      1 FZH         0.0092
      8 N08       -26.5430   50.0630    9.3460 N.ar      1 FZH        -0.3070
      9 C09       -26.8670   48.9450   10.0160 C.ar      1 FZH         0.0073
     10 C11       -27.9020   48.0990    9.6590 C.ar      1 FZH        -0.0100
     11 C12       -28.6860   48.5060    8.5800 C.ar      1 FZH        -0.0386
     12 C14       -28.2340   46.9020   10.4900 C.ar      1 FZH        -0.0299
     13 C19       -28.9920   44.7350   12.1380 C.ar      1 FZH         0.0699
     14 N20       -29.3510   43.6640   12.9370 N.pl3     1 FZH        -0.3216
     15 C27       -31.9080   42.4360   15.4530 C.3       1 FZH        -0.0201
     16 C29       -33.1160   43.3120   15.1360 C.3       1 FZH        -0.0045
     17 C32       -33.6510   42.7920   13.7770 C.3       1 FZH        -0.0043
     18 C35       -32.6260   41.7220   13.3880 C.3       1 FZH        -0.0172
     19 N37       -32.2340   41.2060   14.7150 N.4       1 FZH         0.2316
     20 C39       -31.3810   42.2790   12.6770 C.3       1 FZH         0.0242
     21 C41       -31.7640   42.7460   11.2730 C.3       1 FZH        -0.0428
     22 C44       -31.3050   41.8270   10.1540 C.3       1 FZH        -0.0496
     23 C47       -31.4290   42.3970    8.7590 C.3       1 FZH        -0.0381
     24 C49       -30.2590   43.3080    8.4020 C.3       1 FZH        -0.0307
     25 C52       -30.4490   44.0360    7.0830 C.3       1 FZH         0.0660
     26 S55       -30.5870   42.9200    5.7230 S.o2      1 FZH        -0.0310
     27 O56       -31.0940   43.6280    4.5840 O.2       1 FZH        -0.1744
     28 O57       -29.3520   42.2050    5.5740 O.2       1 FZH        -0.1744
     29 C58       -31.8280   41.8130    6.3150 C.3       1 FZH         0.0660
     30 C61       -31.5390   41.2970    7.7190 C.3       1 FZH        -0.0307
     31 C64       -27.6920   44.8310   11.6210 C.ar      1 FZH         0.1064
     32 N65       -26.7690   43.8510   11.9560 N.am      1 FZH        -0.2325
     33 C67       -25.4740   43.8020   11.5380 C.2       1 FZH         0.2155
     34 O68       -24.7590   42.8520   11.8820 O.2       1 FZH        -0.4005
     35 C69       -25.0590   44.8940   10.6550 C.2       1 FZH         0.0264
     36 C70       -23.6630   44.9110   10.1220 C.3       1 FZH        -0.0247
     37 C74       -25.9230   45.8780   10.3410 C.2       1 FZH        -0.0508
     38 C76       -27.2860   45.9030   10.8010 C.ar      1 FZH        -0.0012
     39 H1        -30.2423   47.6174   10.8195 H         1 FZH         0.0495
     40 H2        -30.9040   45.7183   12.2083 H         1 FZH         0.0473
     41 H3        -31.2736   44.2990   13.3865 H         1 FZH         0.0552
     42 H4        -30.3763   43.9529   15.5395 H         1 FZH         0.0342
     43 H5        -29.7794   42.3102   15.1247 H         1 FZH         0.0342
     44 H6        -28.7913   51.0261    6.2554 H         1 FZH         0.0404
     45 H7        -30.2468   50.2659    6.9834 H         1 FZH         0.0404
     46 H8        -29.1817   49.3095    5.8984 H         1 FZH         0.0404
     47 H9        -27.0232   51.2837    7.7370 H         1 FZH         0.0739
     48 H10       -26.2809   48.6894   10.8913 H         1 FZH         0.0751
     49 H11       -29.5481   47.9143    8.2942 H         1 FZH         0.0652
     50 H12       -28.6045   42.9944   13.1719 H         1 FZH         0.1737
     51 H13       -31.8367   42.2446   16.5339 H         1 FZH         0.0851
     52 H14       -32.8162   44.3672   15.0540 H         1 FZH         0.0322
     53 H15       -33.8832   43.2084   15.9175 H         1 FZH         0.0322
     54 H16       -33.6827   43.5988   13.0300 H         1 FZH         0.0322
     55 H17       -34.6546   42.3557   13.8883 H         1 FZH         0.0322
     56 H18       -33.0873   40.9435   12.7626 H         1 FZH         0.0854
     57 H19       -32.9950   40.7101   15.1520 H         1 FZH         0.2019
     58 H20       -31.4322   40.5989   14.6471 H         1 FZH         0.2019
     59 H21       -30.6647   41.4512   12.5690 H         1 FZH         0.0377
     60 H22       -31.3176   43.7376   11.1075 H         1 FZH         0.0271
     61 H23       -32.8601   42.8246   11.2246 H         1 FZH         0.0271
     62 H24       -31.9073   40.9077   10.2004 H         1 FZH         0.0268
     63 H25       -30.2470   41.5814   10.3281 H         1 FZH         0.0268
     64 H26       -32.3508   42.9963    8.7248 H         1 FZH         0.0302
     65 H27       -29.3472   42.6964    8.3356 H         1 FZH         0.0283
     66 H28       -30.1417   44.0557    9.2003 H         1 FZH         0.0283
     67 H29       -29.5851   44.6957    6.9142 H         1 FZH         0.0500
     68 H30       -31.3663   44.6404    7.1403 H         1 FZH         0.0500
     69 H31       -31.8880   40.9540    5.6305 H         1 FZH         0.0500
     70 H32       -32.7930   42.3408    6.3265 H         1 FZH         0.0500
     71 H33       -32.3529   40.6187    8.0147 H         1 FZH         0.0283
     72 H34       -30.5892   40.7425    7.6972 H         1 FZH         0.0283
     73 H35       -27.0822   43.1159   12.5573 H         1 FZH         0.2331
     74 H36       -23.5258   45.7948    9.4816 H         1 FZH         0.0394
     75 H37       -23.4845   43.9997    9.5324 H         1 FZH         0.0394
     76 H38       -22.9511   44.9511   10.9596 H         1 FZH         0.0394
     77 H39       -25.5736   46.6932    9.7091 H         1 FZH         0.0558
@<TRIPOS>BOND
     1    2    1 ar 
     2    1   12 ar 
     3   13    2 ar 
     4    3    4 1  
     5   14    3 1  
     6    3   20 1  
     7    4   15 1  
     8    6    5 1  
     9    6    7 ar 
    10   11    6 ar 
    11    8    7 ar 
    12    9    8 ar 
    13   10    9 ar 
    14   10   11 ar 
    15   12   10 1  
    16   12   38 ar 
    17   13   14 1  
    18   13   31 ar 
    19   15   16 1  
    20   15   19 1  
    21   16   17 1  
    22   17   18 1  
    23   18   19 1  
    24   18   20 1  
    25   20   21 1  
    26   21   22 1  
    27   22   23 1  
    28   23   24 1  
    29   23   30 1  
    30   24   25 1  
    31   25   26 1  
    32   26   27 2  
    33   26   28 2  
    34   26   29 1  
    35   29   30 1  
    36   31   32 1  
    37   31   38 ar 
    38   32   33 am 
    39   33   34 2  
    40   33   35 1  
    41   35   36 1  
    42   35   37 2  
    43   37   38 1  
    44    1   39 1  
    45    2   40 1  
    46    3   41 1  
    47    4   42 1  
    48    4   43 1  
    49    5   44 1  
    50    5   45 1  
    51    5   46 1  
    52    7   47 1  
    53    9   48 1  
    54   11   49 1  
    55   14   50 1  
    56   15   51 1  
    57   16   52 1  
    58   16   53 1  
    59   17   54 1  
    60   17   55 1  
    61   18   56 1  
    62   19   57 1  
    63   19   58 1  
    64   20   59 1  
    65   21   60 1  
    66   21   61 1  
    67   22   62 1  
    68   22   63 1  
    69   23   64 1  
    70   24   65 1  
    71   24   66 1  
    72   25   67 1  
    73   25   68 1  
    74   29   69 1  
    75   29   70 1  
    76   30   71 1  
    77   30   72 1  
    78   32   73 1  
    79   36   74 1  
    80   36   75 1  
    81   36   76 1  
    82   37   77 1  
@<TRIPOS>SUBSTRUCTURE
     1 FZH         1

