### 
### Created by X-TOOL on Wed Jan  1 15:39:37 2020
### 

@<TRIPOS>MOLECULE
6hdq_ligand
   76    81     1     0     0
SMALL
GAST_HUCK


@<TRIPOS>ATOM
      1 C15        25.2380    5.9950    6.0140 C.ar      1 FZE        -0.0125
      2 C21        25.0700    6.0480    1.8350 C.3       1 FZE         0.0497
      3 C26        25.7340    5.8400   -0.6340 C.3       1 FZE        -0.0201
      4 C28        26.7460    4.7320   -0.3690 C.3       1 FZE        -0.0045
      5 C01        24.5960    3.7520   10.9060 C.3       1 FZE        -0.0255
      6 C05        24.6480    5.1250   10.2870 C.ar      1 FZE        -0.0203
      7 C06        24.8160    6.2600   11.0580 C.ar      1 FZE         0.0101
      8 N08        24.8740    7.4990   10.5580 N.ar      1 FZE        -0.3058
      9 C09        24.7650    7.6400    9.2320 C.ar      1 FZE         0.0090
     10 C11        24.5900    6.5790    8.3530 C.ar      1 FZE        -0.0037
     11 C12        24.5330    5.3070    8.9170 C.ar      1 FZE        -0.0369
     12 C14        24.4710    6.7650    6.8750 C.ar      1 FZE        -0.0075
     13 N17        25.2070    6.0580    4.6720 N.ar      1 FZE        -0.3003
     14 C18        24.3710    6.9190    4.0670 C.ar      1 FZE         0.1414
     15 N19        24.3610    6.9520    2.7190 N.pl3     1 FZE        -0.3070
     16 C23        25.5330    6.7600    0.5640 C.3       1 FZE         0.0134
     17 C31        25.9330    3.5570    0.1730 C.3       1 FZE        -0.0043
     18 C34        24.5010    4.1050    0.2020 C.3       1 FZE        -0.0172
     19 N36        24.5230    5.0680   -0.9140 N.4       1 FZE         0.2316
     20 C38        24.1640    4.8290    1.5190 C.3       1 FZE         0.0247
     21 C40        24.0890    3.8100    2.6610 C.3       1 FZE        -0.0427
     22 C43        22.7370    3.6670    3.3590 C.3       1 FZE        -0.0497
     23 C46        22.6870    2.6330    4.4880 C.3       1 FZE        -0.0407
     24 C48        23.8990    2.7530    5.4050 C.3       1 FZE        -0.0448
     25 C51        23.8760    1.7280    6.5330 C.3       1 FZE         0.0110
     26 C54        22.5810    1.7400    7.2850 C.3       1 FZE         0.2490
     27 F55        22.5580    0.6910    8.1680 F         1 FZE        -0.2057
     28 F56        22.5270    2.8560    8.0820 F         1 FZE        -0.2057
     29 C57        21.3620    1.6880    6.4160 C.3       1 FZE         0.0110
     30 C60        21.4180    2.7520    5.3190 C.3       1 FZE        -0.0448
     31 C63        23.5630    7.7460    4.8760 C.ar      1 FZE         0.1319
     32 N64        22.7010    8.6420    4.2620 N.am      1 FZE        -0.2259
     33 C66        21.8680    9.4850    4.9000 C.2       1 FZE         0.2214
     34 O67        21.1620   10.2380    4.2290 O.2       1 FZE        -0.3972
     35 C68        21.8790    9.4410    6.3570 C.2       1 FZE         0.0321
     36 C69        20.9650   10.3680    7.1060 C.3       1 FZE        -0.0220
     37 C73        22.7050    8.5730    6.9890 C.2       1 FZE        -0.0428
     38 C75        23.5890    7.6870    6.2820 C.ar      1 FZE         0.0142
     39 H1         25.9206    5.2816    6.4614 H         1 FZE         0.0661
     40 H2         25.9652    5.6832    2.3600 H         1 FZE         0.0558
     41 H3         26.0324    6.4439   -1.5036 H         1 FZE         0.0851
     42 H4         27.4893    5.0597    0.3727 H         1 FZE         0.0322
     43 H5         27.2578    4.4481   -1.3003 H         1 FZE         0.0322
     44 H6         24.7061    3.8373   11.9971 H         1 FZE         0.0405
     45 H7         25.4133    3.1365   10.5021 H         1 FZE         0.0405
     46 H8         23.6307    3.2800   10.6708 H         1 FZE         0.0405
     47 H9         24.9061    6.1386   12.1314 H         1 FZE         0.0747
     48 H10        24.8163    8.6411    8.8195 H         1 FZE         0.0760
     49 H11        24.3965    4.4447    8.2744 H         1 FZE         0.0661
     50 H12        23.7957    7.6898    2.2752 H         1 FZE         0.1785
     51 H13        26.4891    7.2599    0.7783 H         1 FZE         0.0342
     52 H14        24.7772    7.5132    0.2966 H         1 FZE         0.0342
     53 H15        26.2687    3.2774    1.1825 H         1 FZE         0.0322
     54 H16        26.0081    2.6849   -0.4931 H         1 FZE         0.0322
     55 H17        23.7687    3.3026    0.0292 H         1 FZE         0.0854
     56 H18        24.5879    4.5961   -1.8024 H         1 FZE         0.2019
     57 H19        23.7045    5.6563   -0.9050 H         1 FZE         0.2019
     58 H20        23.1502    5.2380    1.3969 H         1 FZE         0.0378
     59 H21        24.8279    4.1044    3.4208 H         1 FZE         0.0271
     60 H22        24.3584    2.8261    2.2494 H         1 FZE         0.0271
     61 H23        21.9928    3.3790    2.6018 H         1 FZE         0.0268
     62 H24        22.4687    4.6458    3.7831 H         1 FZE         0.0268
     63 H25        22.7012    1.6344    4.0270 H         1 FZE         0.0301
     64 H26        23.9118    3.7615    5.8440 H         1 FZE         0.0270
     65 H27        24.8104    2.6013    4.8081 H         1 FZE         0.0270
     66 H28        24.6938    1.9539    7.2331 H         1 FZE         0.0323
     67 H29        24.0267    0.7264    6.1041 H         1 FZE         0.0323
     68 H30        20.4709    1.8602    7.0375 H         1 FZE         0.0323
     69 H31        21.2967    0.6943    5.9488 H         1 FZE         0.0323
     70 H32        20.5464    2.6306    4.6591 H         1 FZE         0.0270
     71 H33        21.3888    3.7477    5.7856 H         1 FZE         0.0270
     72 H34        22.6980    8.6636    3.2622 H         1 FZE         0.2357
     73 H35        21.0917   10.2130    8.1876 H         1 FZE         0.0406
     74 H36        19.9219   10.1602    6.8255 H         1 FZE         0.0406
     75 H37        21.2121   11.4097    6.8535 H         1 FZE         0.0406
     76 H38        22.6991    8.5453    8.0776 H         1 FZE         0.0571
@<TRIPOS>BOND
     1    1   12 ar 
     2   13    1 ar 
     3   15    2 1  
     4    2   16 1  
     5    2   20 1  
     6    3    4 1  
     7   16    3 1  
     8    3   19 1  
     9    4   17 1  
    10    6    5 1  
    11    6    7 ar 
    12   11    6 ar 
    13    8    7 ar 
    14    9    8 ar 
    15   10    9 ar 
    16   10   11 ar 
    17   12   10 1  
    18   12   38 ar 
    19   14   13 ar 
    20   14   15 1  
    21   14   31 ar 
    22   17   18 1  
    23   18   19 1  
    24   18   20 1  
    25   20   21 1  
    26   21   22 1  
    27   22   23 1  
    28   23   24 1  
    29   23   30 1  
    30   24   25 1  
    31   25   26 1  
    32   26   27 1  
    33   26   28 1  
    34   26   29 1  
    35   29   30 1  
    36   31   32 1  
    37   31   38 ar 
    38   32   33 am 
    39   33   34 2  
    40   33   35 1  
    41   35   36 1  
    42   35   37 2  
    43   37   38 1  
    44    1   39 1  
    45    2   40 1  
    46    3   41 1  
    47    4   42 1  
    48    4   43 1  
    49    5   44 1  
    50    5   45 1  
    51    5   46 1  
    52    7   47 1  
    53    9   48 1  
    54   11   49 1  
    55   15   50 1  
    56   16   51 1  
    57   16   52 1  
    58   17   53 1  
    59   17   54 1  
    60   18   55 1  
    61   19   56 1  
    62   19   57 1  
    63   20   58 1  
    64   21   59 1  
    65   21   60 1  
    66   22   61 1  
    67   22   62 1  
    68   23   63 1  
    69   24   64 1  
    70   24   65 1  
    71   25   66 1  
    72   25   67 1  
    73   29   68 1  
    74   29   69 1  
    75   30   70 1  
    76   30   71 1  
    77   32   72 1  
    78   36   73 1  
    79   36   74 1  
    80   36   75 1  
    81   37   76 1  
@<TRIPOS>SUBSTRUCTURE
     1 FZE         1

