### 
### Created by X-TOOL on Wed Jan  1 15:39:36 2020
### 

@<TRIPOS>MOLECULE
6hf5_ligand
   24    25     1     0     0
SMALL
GAST_HUCK


@<TRIPOS>ATOM
      1 O24         8.4990   22.4940    6.6270 O.co2     1 G1N        -0.5770
      2 C6          7.3520   22.6830    6.0720 C.2       1 G1N         0.0365
      3 O25         7.3750   23.3640    4.9800 O.co2     1 G1N        -0.5770
      4 C4          6.2370   22.0390    6.5560 C.2       1 G1N         0.0595
      5 N3          6.2530   21.1330    7.6090 N.2       1 G1N        -0.3342
      6 C2          5.1250   20.5280    7.9730 C.2       1 G1N         0.0588
      7 S1          3.9370   21.0310    6.8180 S.3       1 G1N         0.0217
      8 C5          5.0110   22.0960    5.9640 C.2       1 G1N         0.1582
      9 N9          4.6500   22.8360    4.9270 N.am      1 G1N        -0.1603
     10 S10         3.0800   22.7830    4.3060 S.o2      1 G1N         0.1017
     11 O12         2.9960   23.9860    3.4130 O.2       1 G1N        -0.1420
     12 O11         2.0410   23.0200    5.4020 O.2       1 G1N        -0.1420
     13 C15         2.5730   21.3600    3.2130 C.ar      1 G1N         0.1436
     14 C16         3.2560   21.0010    2.0400 C.ar      1 G1N        -0.0143
     15 C17         2.7690   19.9540    1.2480 C.ar      1 G1N        -0.0315
     16 C18         1.5860   19.2760    1.5840 C.ar      1 G1N         0.0116
     17 N19         0.8530   19.6300    2.7180 N.ar      1 G1N        -0.2944
     18 C20         1.3740   20.6860    3.5250 C.ar      1 G1N         0.0389
     19 H1          4.9797   19.8578    8.8190 H         1 G1N         0.0977
     20 H2          5.3230   23.4408    4.5012 H         1 G1N         0.2298
     21 H3          4.1555   21.5315    1.7491 H         1 G1N         0.0760
     22 H4          3.3155   19.6613    0.3587 H         1 G1N         0.0713
     23 H5          1.2370   18.4661    0.9537 H         1 G1N         0.0827
     24 H6          0.8265   20.9815    4.4127 H         1 G1N         0.0847
@<TRIPOS>BOND
     1    1    2 ar 
     2    2    3 ar 
     3    2    4 1  
     4    4    5 1  
     5    4    8 2  
     6    5    6 2  
     7    6    7 1  
     8    7    8 1  
     9    8    9 1  
    10    9   10 am 
    11   10   11 2  
    12   10   12 2  
    13   10   13 1  
    14   13   14 ar 
    15   13   18 ar 
    16   14   15 ar 
    17   15   16 ar 
    18   16   17 ar 
    19   17   18 ar 
    20    6   19 1  
    21    9   20 1  
    22   14   21 1  
    23   15   22 1  
    24   16   23 1  
    25   18   24 1  
@<TRIPOS>SUBSTRUCTURE
     1 G1N         1

