### 
### Created by X-TOOL on Mon Aug  2 16:13:50 2021
### 

@<TRIPOS>MOLECULE
6hgf_ligand
   56    59     1     0     0
SMALL
GAST_HUCK


@<TRIPOS>ATOM
      1 C1        -41.1600  -16.3850    8.8390 C.3       1 HCY        -0.0610
      2 C2        -41.2540  -16.7180   10.3160 C.3       1 HCY         0.0243
      3 C3        -39.9930  -17.3940   10.7890 C.2       1 HCY         0.1764
      4 C4        -38.7440  -17.0070   10.1390 C.2       1 HCY         0.0476
      5 C5        -38.6870  -16.1270    9.1430 C.2       1 HCY        -0.0412
      6 C6        -37.3730  -15.5360    8.7400 C.3       1 HCY        -0.0169
      7 C7        -37.1260  -15.7690    7.2380 C.3       1 HCY        -0.0393
      8 C8        -38.3070  -15.2260    6.4400 C.3       1 HCY        -0.0395
      9 C9        -39.6340  -15.8970    6.8870 C.3       1 HCY        -0.0357
     10 C10       -39.8960  -15.6450    8.4080 C.3       1 HCY        -0.0355
     11 C12       -40.5360  -15.7700    4.4650 C.3       1 HCY        -0.0203
     12 C11       -40.8950  -15.6310    5.9530 C.3       1 HCY         0.0500
     13 C13       -39.2980  -14.9560    4.1040 C.3       1 HCY         0.0074
     14 C14       -38.1000  -15.4680    4.9470 C.3       1 HCY        -0.0316
     15 C15       -36.9120  -14.7330    4.2990 C.3       1 HCY        -0.0480
     16 C16       -37.2950  -14.6390    2.8000 C.3       1 HCY        -0.0179
     17 C17       -38.7290  -15.1920    2.6770 C.3       1 HCY         0.1362
     18 C18       -39.4980  -13.4140    4.2590 C.3       1 HCY        -0.0577
     19 C19       -40.0480  -14.1450    8.7840 C.3       1 HCY        -0.0889
     20 C20       -39.5620  -14.4460    1.5880 C.2       1 HCY         0.1839
     21 C21       -40.7550  -15.1980    0.9800 C.3       1 HCY         0.1213
     22 O1        -40.0190  -18.2310   11.6740 O.2       1 HCY        -0.3440
     23 O2        -41.5550  -14.4200    6.2280 O.3       1 HCY        -0.3925
     24 O3        -38.7390  -16.5840    2.4430 O.3       1 HCY        -0.3852
     25 O4        -39.2830  -13.3200    1.2060 O.2       1 HCY        -0.3272
     26 O5        -41.5760  -14.2030    0.4010 O.3       1 HCY        -0.3762
     27 H1        -42.0249  -15.7575    8.5780 H         1 HCY         0.0172
     28 H2        -41.2082  -17.3286    8.2757 H         1 HCY         0.0172
     29 H3        -42.1085  -17.3907   10.4812 H         1 HCY         0.0483
     30 H4        -41.4024  -15.7897   10.8871 H         1 HCY         0.0483
     31 H5        -37.8162  -17.4597   10.4857 H         1 HCY         0.1318
     32 H6        -36.5675  -16.0112    9.3191 H         1 HCY         0.0450
     33 H7        -37.3825  -14.4551    8.9436 H         1 HCY         0.0450
     34 H8        -37.0184  -16.8469    7.0466 H         1 HCY         0.0293
     35 H9        -36.2063  -15.2487    6.9323 H         1 HCY         0.0293
     36 H10       -38.3804  -14.1430    6.6178 H         1 HCY         0.0299
     37 H11       -39.4516  -16.9781    6.7979 H         1 HCY         0.0212
     38 H12       -41.3837  -15.4168    3.8594 H         1 HCY         0.0294
     39 H13       -40.3429  -16.8298    4.2426 H         1 HCY         0.0294
     40 H14       -41.6172  -16.4300    6.1766 H         1 HCY         0.0586
     41 H15       -37.9750  -16.5517    4.8056 H         1 HCY         0.0308
     42 H16       -35.9815  -15.3051    4.4287 H         1 HCY         0.0267
     43 H17       -36.7895  -13.7301    4.7339 H         1 HCY         0.0267
     44 H18       -36.6027  -15.2407    2.1928 H         1 HCY         0.0278
     45 H19       -37.2618  -13.5919    2.4646 H         1 HCY         0.0278
     46 H20       -39.9015  -13.1953    5.2587 H         1 HCY         0.0234
     47 H21       -40.2022  -13.0568    3.4932 H         1 HCY         0.0234
     48 H22       -38.5311  -12.9045    4.1343 H         1 HCY         0.0234
     49 H23       -40.2289  -14.0546    9.8653 H         1 HCY         0.0112
     50 H24       -40.8964  -13.7130    8.2330 H         1 HCY         0.0112
     51 H25       -39.1264  -13.6056    8.5201 H         1 HCY         0.0112
     52 H26       -41.3048  -15.7423    1.7619 H         1 HCY         0.0785
     53 H27       -40.4113  -15.9069    0.2123 H         1 HCY         0.0785
     54 H28       -42.3593  -14.3774    5.7241 H         1 HCY         0.2097
     55 H29       -39.6371  -16.8858    2.3734 H         1 HCY         0.2077
     56 H30       -41.0844  -13.7363   -0.2647 H         1 HCY         0.2129
@<TRIPOS>BOND
     1    1    2 1  
     2    1   10 1  
     3    2    3 1  
     4    3    4 1  
     5    3   22 2  
     6    4    5 2  
     7    5    6 1  
     8    5   10 1  
     9    6    7 1  
    10    7    8 1  
    11    8    9 1  
    12    8   14 1  
    13    9   10 1  
    14    9   12 1  
    15   10   19 1  
    16   12   11 1  
    17   11   13 1  
    18   12   23 1  
    19   13   14 1  
    20   13   17 1  
    21   13   18 1  
    22   14   15 1  
    23   15   16 1  
    24   16   17 1  
    25   17   20 1  
    26   17   24 1  
    27   20   21 1  
    28   20   25 2  
    29   21   26 1  
    30    1   27 1  
    31    1   28 1  
    32    2   29 1  
    33    2   30 1  
    34    4   31 1  
    35    6   32 1  
    36    6   33 1  
    37    7   34 1  
    38    7   35 1  
    39    8   36 1  
    40    9   37 1  
    41   11   38 1  
    42   11   39 1  
    43   12   40 1  
    44   14   41 1  
    45   15   42 1  
    46   15   43 1  
    47   16   44 1  
    48   16   45 1  
    49   18   46 1  
    50   18   47 1  
    51   18   48 1  
    52   19   49 1  
    53   19   50 1  
    54   19   51 1  
    55   21   52 1  
    56   21   53 1  
    57   23   54 1  
    58   24   55 1  
    59   26   56 1  
@<TRIPOS>SUBSTRUCTURE
     1 HCY         1

