### 
### Created by X-TOOL on Mon Aug  2 16:13:50 2021
### 

@<TRIPOS>MOLECULE
6hgg_ligand
   56    59     1     0     0
SMALL
GAST_HUCK


@<TRIPOS>ATOM
      1 C1         -5.1580   21.6460   86.8110 C.3       1 HCY        -0.0610
      2 C2         -5.2940   21.4490   88.3380 C.3       1 HCY         0.0243
      3 C3         -4.0370   20.8240   88.8670 C.2       1 HCY         0.1764
      4 C4         -2.7760   21.3400   88.3100 C.2       1 HCY         0.0476
      5 C5         -2.6660   21.8240   87.0720 C.2       1 HCY        -0.0412
      6 C6         -1.3350   22.3150   86.6200 C.3       1 HCY        -0.0169
      7 C7         -1.0650   22.1880   85.1410 C.3       1 HCY        -0.0393
      8 C8         -2.2530   22.5690   84.3130 C.3       1 HCY        -0.0395
      9 C9         -3.5660   21.9360   84.8050 C.3       1 HCY        -0.0357
     10 C10        -3.8470   22.3090   86.3170 C.3       1 HCY        -0.0355
     11 C12        -4.4080   21.8360   82.3410 C.3       1 HCY        -0.0203
     12 C11        -4.7700   22.1610   83.8510 C.3       1 HCY         0.0500
     13 C13        -3.0710   22.4260   81.9140 C.3       1 HCY         0.0074
     14 C14        -1.9900   22.0380   82.9130 C.3       1 HCY        -0.0316
     15 C15        -0.7050   22.5450   82.2380 C.3       1 HCY        -0.0480
     16 C16        -0.9000   22.1430   80.7340 C.3       1 HCY        -0.0179
     17 C17        -2.4150   21.8510   80.5540 C.3       1 HCY         0.1362
     18 C18        -3.1790   23.9670   81.7420 C.3       1 HCY        -0.0577
     19 C19        -3.9460   23.8670   86.5690 C.3       1 HCY        -0.0889
     20 C20        -3.0410   22.5130   79.3400 C.2       1 HCY         0.1839
     21 C21        -4.2970   21.8500   78.7770 C.3       1 HCY         0.1213
     22 O1         -4.0630   19.9170   89.6980 O.2       1 HCY        -0.3440
     23 O2         -5.2740   23.4340   83.9770 O.3       1 HCY        -0.3925
     24 O3         -2.6450   20.4990   80.4340 O.3       1 HCY        -0.3852
     25 O4         -2.5850   23.5010   78.8160 O.2       1 HCY        -0.3272
     26 O5         -4.0550   21.7410   77.3880 O.3       1 HCY        -0.3762
     27 H1         -5.9971   22.2746   86.4783 H         1 HCY         0.0172
     28 H2         -5.2315   20.6558   86.3377 H         1 HCY         0.0172
     29 H3         -6.1496   20.7909   88.5496 H         1 HCY         0.0483
     30 H4         -5.4525   22.4238   88.8224 H         1 HCY         0.0483
     31 H5         -1.8882   21.3259   88.9405 H         1 HCY         0.1318
     32 H6         -0.5628   21.7436   87.1559 H         1 HCY         0.0450
     33 H7         -1.2568   23.3788   86.8888 H         1 HCY         0.0450
     34 H8         -0.7983   21.1444   84.9182 H         1 HCY         0.0293
     35 H9         -0.2239   22.8458   84.8769 H         1 HCY         0.0293
     36 H10        -2.3577   23.6639   84.3014 H         1 HCY         0.0299
     37 H11        -3.3942   20.8495   84.7959 H         1 HCY         0.0212
     38 H12        -5.1965   22.2481   81.6941 H         1 HCY         0.0294
     39 H13        -4.3656   20.7438   82.2171 H         1 HCY         0.0294
     40 H14        -5.5621   21.4609   84.1548 H         1 HCY         0.0586
     41 H15        -1.9415   20.9419   82.9912 H         1 HCY         0.0308
     42 H16         0.1829   22.0551   82.6642 H         1 HCY         0.0267
     43 H17        -0.6087   23.6356   82.3444 H         1 HCY         0.0267
     44 H18        -0.3087   21.2455   80.4998 H         1 HCY         0.0278
     45 H19        -0.5903   22.9682   80.0759 H         1 HCY         0.0278
     46 H20        -3.6225   24.4068   82.6475 H         1 HCY         0.0234
     47 H21        -3.8151   24.1954   80.8741 H         1 HCY         0.0234
     48 H22        -2.1759   24.3894   81.5828 H         1 HCY         0.0234
     49 H23        -4.1415   24.0543   87.6352 H         1 HCY         0.0112
     50 H24        -4.7665   24.2844   85.9670 H         1 HCY         0.0112
     51 H25        -2.9988   24.3461   86.2803 H         1 HCY         0.0112
     52 H26        -5.1832   22.4729   78.9684 H         1 HCY         0.0785
     53 H27        -4.4442   20.8558   79.2240 H         1 HCY         0.0785
     54 H28        -6.0611   23.5152   83.4513 H         1 HCY         0.2097
     55 H29        -3.5762   20.3458   80.3252 H         1 HCY         0.2077
     56 H30        -3.9192   22.6073   77.0224 H         1 HCY         0.2129
@<TRIPOS>BOND
     1    1    2 1  
     2    1   10 1  
     3    2    3 1  
     4    3    4 1  
     5    3   22 2  
     6    4    5 2  
     7    5    6 1  
     8    5   10 1  
     9    6    7 1  
    10    7    8 1  
    11    8    9 1  
    12    8   14 1  
    13    9   10 1  
    14    9   12 1  
    15   10   19 1  
    16   12   11 1  
    17   11   13 1  
    18   12   23 1  
    19   13   14 1  
    20   13   17 1  
    21   13   18 1  
    22   14   15 1  
    23   15   16 1  
    24   16   17 1  
    25   17   20 1  
    26   17   24 1  
    27   20   21 1  
    28   20   25 2  
    29   21   26 1  
    30    1   27 1  
    31    1   28 1  
    32    2   29 1  
    33    2   30 1  
    34    4   31 1  
    35    6   32 1  
    36    6   33 1  
    37    7   34 1  
    38    7   35 1  
    39    8   36 1  
    40    9   37 1  
    41   11   38 1  
    42   11   39 1  
    43   12   40 1  
    44   14   41 1  
    45   15   42 1  
    46   15   43 1  
    47   16   44 1  
    48   16   45 1  
    49   18   46 1  
    50   18   47 1  
    51   18   48 1  
    52   19   49 1  
    53   19   50 1  
    54   19   51 1  
    55   21   52 1  
    56   21   53 1  
    57   23   54 1  
    58   24   55 1  
    59   26   56 1  
@<TRIPOS>SUBSTRUCTURE
     1 HCY         1

