### 
### Created by X-TOOL on Mon Aug  2 16:13:50 2021
### 

@<TRIPOS>MOLECULE
6hgi_ligand
   55    58     1     0     0
SMALL
GAST_HUCK


@<TRIPOS>ATOM
      1 C1          4.7060   21.4750   -8.7900 C.3       1 C0R        -0.0610
      2 C2          4.6810   21.1390  -10.2610 C.3       1 C0R         0.0243
      3 C3          3.5220   20.2380  -10.5580 C.2       1 C0R         0.1764
      4 C4          2.2660   20.5810   -9.9000 C.2       1 C0R         0.0476
      5 C5          2.1950   21.5480   -8.9840 C.2       1 C0R        -0.0412
      6 C6          0.8600   21.9520   -8.4470 C.3       1 C0R        -0.0169
      7 C7          0.6700   21.5710   -6.9990 C.3       1 C0R        -0.0392
      8 C8          1.8220   22.0890   -6.1960 C.3       1 C0R        -0.0392
      9 C9          3.1520   21.5730   -6.8100 C.3       1 C0R        -0.0357
     10 C10         3.3620   22.0520   -8.2620 C.3       1 C0R        -0.0355
     11 C11         4.4180   21.7850   -5.9150 C.3       1 C0R         0.0502
     12 C12         4.1720   21.3820   -4.4520 C.3       1 C0R        -0.0195
     13 C13         2.8530   21.9440   -3.9090 C.3       1 C0R        -0.0081
     14 C14         1.7160   21.4990   -4.8260 C.3       1 C0R        -0.0306
     15 C15         0.4570   21.8370   -4.0320 C.3       1 C0R        -0.0469
     16 C16         0.8700   21.6550   -2.5720 C.3       1 C0R        -0.0334
     17 C17         2.3630   21.2740   -2.5920 C.3       1 C0R         0.0406
     18 C18         2.8890   23.4780   -3.7420 C.3       1 C0R        -0.0568
     19 C19         3.3160   23.5820   -8.4360 C.3       1 C0R        -0.0889
     20 C20         3.0340   21.7330   -1.3170 C.2       1 C0R         0.1339
     21 C21         4.2270   20.9270   -0.8390 C.3       1 C0R         0.1174
     22 O1          3.6090   19.2970  -11.3240 O.2       1 C0R        -0.3440
     23 O2          4.8910   23.0980   -6.0080 O.3       1 C0R        -0.3925
     24 O3          2.6830   22.6680   -0.6290 O.2       1 C0R        -0.3888
     25 O4          4.3590   21.2930    0.5140 O.3       1 C0R        -0.3757
     26 H1          5.4966   22.2199   -8.6165 H         1 C0R         0.0172
     27 H2          4.9361   20.5582   -8.2274 H         1 C0R         0.0172
     28 H3          5.6174   20.6312  -10.5352 H         1 C0R         0.0483
     29 H4          4.5817   22.0657  -10.8453 H         1 C0R         0.0483
     30 H5          1.3625   20.0331  -10.1636 H         1 C0R         0.1318
     31 H6          0.0779   21.4609   -9.0447 H         1 C0R         0.0450
     32 H7          0.7604   23.0436   -8.5387 H         1 C0R         0.0450
     33 H8          0.6234   20.4756   -6.9103 H         1 C0R         0.0293
     34 H9         -0.2663   22.0095   -6.6234 H         1 C0R         0.0293
     35 H10         1.8083   23.1883   -6.1587 H         1 C0R         0.0299
     36 H11         3.0303   20.4818   -6.8765 H         1 C0R         0.0212
     37 H12         5.2059   21.1241   -6.3054 H         1 C0R         0.0586
     38 H13         4.9996   21.7634   -3.8358 H         1 C0R         0.0297
     39 H14         4.1423   20.2843   -4.3874 H         1 C0R         0.0297
     40 H15         1.7611   20.4070   -4.9506 H         1 C0R         0.0310
     41 H16        -0.3635   21.1524   -4.2929 H         1 C0R         0.0270
     42 H17         0.1436   22.8742   -4.2217 H         1 C0R         0.0270
     43 H18         0.2782   20.8538   -2.1053 H         1 C0R         0.0293
     44 H19         0.7230   22.5918   -2.0145 H         1 C0R         0.0293
     45 H20         2.4868   20.1836   -2.6669 H         1 C0R         0.0536
     46 H21         3.2363   23.9406   -4.6776 H         1 C0R         0.0237
     47 H22         3.5768   23.7419   -2.9252 H         1 C0R         0.0237
     48 H23         1.8796   23.8448   -3.5043 H         1 C0R         0.0237
     49 H24         3.4737   23.8355   -9.4947 H         1 C0R         0.0112
     50 H25         4.1065   24.0443   -7.8266 H         1 C0R         0.0112
     51 H26         2.3349   23.9587   -8.1111 H         1 C0R         0.0112
     52 H27         5.1314   21.1915   -1.4065 H         1 C0R         0.0792
     53 H28         4.0355   19.8482   -0.9362 H         1 C0R         0.0792
     54 H29         5.7095   23.1730   -5.5316 H         1 C0R         0.2097
     55 H30         4.5096   22.2291    0.5745 H         1 C0R         0.2130
@<TRIPOS>BOND
     1    1    2 1  
     2    1   10 1  
     3    2    3 1  
     4    3    4 1  
     5    3   22 2  
     6    4    5 2  
     7    5    6 1  
     8    5   10 1  
     9    6    7 1  
    10    7    8 1  
    11    8    9 1  
    12    8   14 1  
    13    9   10 1  
    14    9   11 1  
    15   10   19 1  
    16   11   12 1  
    17   11   23 1  
    18   12   13 1  
    19   13   14 1  
    20   13   17 1  
    21   13   18 1  
    22   14   15 1  
    23   15   16 1  
    24   16   17 1  
    25   17   20 1  
    26   20   21 1  
    27   20   24 2  
    28   21   25 1  
    29    1   26 1  
    30    1   27 1  
    31    2   28 1  
    32    2   29 1  
    33    4   30 1  
    34    6   31 1  
    35    6   32 1  
    36    7   33 1  
    37    7   34 1  
    38    8   35 1  
    39    9   36 1  
    40   11   37 1  
    41   12   38 1  
    42   12   39 1  
    43   14   40 1  
    44   15   41 1  
    45   15   42 1  
    46   16   43 1  
    47   16   44 1  
    48   17   45 1  
    49   18   46 1  
    50   18   47 1  
    51   18   48 1  
    52   19   49 1  
    53   19   50 1  
    54   19   51 1  
    55   21   52 1  
    56   21   53 1  
    57   23   54 1  
    58   25   55 1  
@<TRIPOS>SUBSTRUCTURE
     1 C0R         1

