### 
### Created by X-TOOL on Mon Aug  2 16:13:51 2021
### 

@<TRIPOS>MOLECULE
6hgj_ligand
   54    57     1     0     0
SMALL
GAST_HUCK


@<TRIPOS>ATOM
      1 C1        -36.6940   17.2040   -1.3370 C.3       1 AS4        -0.0260
      2 C5        -39.1620   17.4400   -1.2940 C.3       1 AS4        -0.0149
      3 C6        -38.1160   15.4000   -0.2710 C.2       1 AS4         0.1307
      4 C7        -38.0110   15.8350   -4.6950 C.3       1 AS4        -0.0355
      5 C8        -36.7340   16.0080   -5.4520 C.2       1 AS4        -0.0412
      6 C9        -36.6730   16.2870   -6.7550 C.2       1 AS4         0.0476
      7 C10       -37.8790   16.3270   -7.5640 C.2       1 AS4         0.1764
      8 C15       -38.0960   14.3480   -4.3550 C.3       1 AS4        -0.0889
      9 C16       -36.1720   17.4920    0.9900 C.3       1 AS4        -0.0347
     10 C17       -37.7040   17.5610    0.8280 C.3       1 AS4         0.0452
     11 C18       -38.4030   16.8100    1.9340 C.2       1 AS4         0.1326
     12 C19       -39.8710   17.0850    2.1540 C.3       1 AS4         0.1172
     13 C20       -35.5980   16.9260   -0.3150 C.3       1 AS4        -0.0483
     14 C         -37.9640   16.8950   -0.5290 C.3       1 AS4         0.0558
     15 C2        -36.6860   16.3630   -2.6030 C.3       1 AS4        -0.0404
     16 C3        -37.9240   16.7240   -3.4330 C.3       1 AS4        -0.0361
     17 C4        -39.2560   16.7170   -2.6440 C.3       1 AS4         0.0491
     18 O         -39.6600   15.3970   -2.4180 O.3       1 AS4        -0.3926
     19 O1        -39.2070   14.8480   -0.2380 O.2       1 AS4        -0.3135
     20 O2        -37.8910   16.7970   -8.7090 O.2       1 AS4        -0.3440
     21 C11       -39.1360   15.7590   -6.9520 C.3       1 AS4         0.0243
     22 C12       -39.2380   16.2580   -5.5240 C.3       1 AS4        -0.0610
     23 C13       -35.4680   15.7870   -4.6950 C.3       1 AS4        -0.0169
     24 C14       -35.4280   16.6220   -3.4210 C.3       1 AS4        -0.0394
     25 O3        -37.8210   15.9990    2.6490 O.2       1 AS4        -0.3890
     26 O4        -39.9250   18.0770    3.1290 O.3       1 AS4        -0.3757
     27 H1        -36.6604   18.2633   -1.6315 H         1 AS4         0.0294
     28 H2        -39.0343   18.5197   -1.4609 H         1 AS4         0.0280
     29 H3        -40.0811   17.2645   -0.7157 H         1 AS4         0.0280
     30 H4        -37.2204   14.8017   -0.1102 H         1 AS4         0.1345
     31 H5        -35.7078   16.4872   -7.2178 H         1 AS4         0.1318
     32 H6        -38.1557   13.7623   -5.2842 H         1 AS4         0.0112
     33 H7        -38.9928   14.1618   -3.7459 H         1 AS4         0.0112
     34 H8        -37.2006   14.0492   -3.7902 H         1 AS4         0.0112
     35 H9        -35.9122   16.8334    1.8318 H         1 AS4         0.0291
     36 H10       -35.7675   18.4984    1.1733 H         1 AS4         0.0291
     37 H11       -38.0478   18.6059    0.8224 H         1 AS4         0.0519
     38 H12       -40.3837   16.1763    2.5023 H         1 AS4         0.0792
     39 H13       -40.3394   17.4363    1.2228 H         1 AS4         0.0792
     40 H14       -34.6651   17.4401   -0.5895 H         1 AS4         0.0268
     41 H15       -35.4089   15.8461   -0.2254 H         1 AS4         0.0268
     42 H16       -36.7236   15.2978   -2.3311 H         1 AS4         0.0298
     43 H17       -37.7761   17.7583   -3.7770 H         1 AS4         0.0212
     44 H18       -40.0172   17.2246   -3.2546 H         1 AS4         0.0584
     45 H19       -38.9925   14.9442   -1.9160 H         1 AS4         0.2097
     46 H20       -39.0895   14.6600   -6.9595 H         1 AS4         0.0483
     47 H21       -40.0129   16.0929   -7.5261 H         1 AS4         0.0483
     48 H22       -39.3040   17.3560   -5.5319 H         1 AS4         0.0172
     49 H23       -40.1443   15.8395   -5.0620 H         1 AS4         0.0172
     50 H24       -34.6164   16.0665   -5.3327 H         1 AS4         0.0450
     51 H25       -35.3922   14.7227   -4.4276 H         1 AS4         0.0450
     52 H26       -34.5428   16.3455   -2.8294 H         1 AS4         0.0293
     53 H27       -35.3749   17.6888   -3.6837 H         1 AS4         0.0293
     54 H28       -40.8324   18.2926    3.3099 H         1 AS4         0.2130
@<TRIPOS>BOND
     1    1   13 1  
     2    1   14 1  
     3   15    1 1  
     4   14    2 1  
     5    2   17 1  
     6   14    3 1  
     7    3   19 2  
     8    4    5 1  
     9    4    8 1  
    10   16    4 1  
    11    4   22 1  
    12    5    6 2  
    13    5   23 1  
    14    6    7 1  
    15    7   20 2  
    16    7   21 1  
    17   10    9 1  
    18   13    9 1  
    19   10   11 1  
    20   14   10 1  
    21   11   12 1  
    22   11   25 2  
    23   12   26 1  
    24   15   16 1  
    25   15   24 1  
    26   16   17 1  
    27   17   18 1  
    28   21   22 1  
    29   23   24 1  
    30    1   27 1  
    31    2   28 1  
    32    2   29 1  
    33    3   30 1  
    34    6   31 1  
    35    8   32 1  
    36    8   33 1  
    37    8   34 1  
    38    9   35 1  
    39    9   36 1  
    40   10   37 1  
    41   12   38 1  
    42   12   39 1  
    43   13   40 1  
    44   13   41 1  
    45   15   42 1  
    46   16   43 1  
    47   17   44 1  
    48   18   45 1  
    49   21   46 1  
    50   21   47 1  
    51   22   48 1  
    52   22   49 1  
    53   23   50 1  
    54   23   51 1  
    55   24   52 1  
    56   24   53 1  
    57   26   54 1  
@<TRIPOS>SUBSTRUCTURE
     1 AS4         1

