### 
### Created by X-TOOL on Mon Aug  2 16:13:51 2021
### 

@<TRIPOS>MOLECULE
6hgv_ligand
   60    61     1     0     0
SMALL
GAST_HUCK


@<TRIPOS>ATOM
      1 C10        -8.3990  -30.5880  -34.4770 C.3       1 G3Q         0.1217
      2 N12        -9.3000  -32.8890  -34.4230 N.4       1 G3Q         0.2326
      3 C13       -10.7200  -32.9350  -34.0810 C.3       1 G3Q        -0.0203
      4 C15       -10.9300  -32.3670  -32.6790 C.3       1 G3Q        -0.0193
      5 C21       -16.3890  -24.8910  -37.8720 C.3       1 G3Q         0.0429
      6 C22       -17.8040  -24.9950  -37.3000 C.3       1 G3Q        -0.0301
      7 C24       -18.7230  -23.9800  -39.4390 C.3       1 G3Q        -0.0529
      8 C26       -16.2640  -23.7290  -38.8580 C.3       1 G3Q        -0.0301
      9 C02       -14.2530  -25.5430  -36.6930 C.2       1 G3Q         0.2844
     10 C04       -12.0840  -26.0910  -35.3590 C.ar      1 G3Q         0.0559
     11 C05       -11.4120  -25.9160  -34.1580 C.ar      1 G3Q        -0.0494
     12 C06       -10.2390  -26.6160  -33.8980 C.ar      1 G3Q        -0.0460
     13 C07        -9.7330  -27.4970  -34.8420 C.ar      1 G3Q         0.0758
     14 C09        -8.3670  -29.3510  -35.3740 C.3       1 G3Q         0.0980
     15 C11        -8.9610  -31.7600  -35.2840 C.3       1 G3Q        -0.0040
     16 C14       -11.1830  -34.3890  -34.0840 C.3       1 G3Q        -0.0193
     17 C16       -11.5770  -32.1580  -35.0820 C.3       1 G3Q        -0.0193
     18 C18       -10.3990  -27.6740  -36.0460 C.ar      1 G3Q        -0.0460
     19 C19       -11.5690  -26.9730  -36.3010 C.ar      1 G3Q        -0.0494
     20 C23       -18.8500  -25.1050  -38.4080 C.3       1 G3Q        -0.0510
     21 C25       -17.2970  -23.8350  -39.9790 C.3       1 G3Q        -0.0510
     22 N03       -13.3150  -25.3340  -35.5900 N.am      1 G3Q        -0.2258
     23 N20       -15.4360  -24.6980  -36.7740 N.am      1 G3Q        -0.2653
     24 O01       -14.0860  -26.3720  -37.5220 O.2       1 G3Q        -0.3916
     25 O08        -8.5430  -28.2060  -34.5800 O.3       1 G3Q        -0.3250
     26 O17        -7.1080  -30.8920  -34.0430 O.3       1 G3Q        -0.3839
     27 H1         -9.0421  -30.3963  -33.6054 H         1 G3Q         0.0674
     28 H2         -9.0560  -33.7425  -34.9005 H         1 G3Q         0.2020
     29 H3         -8.7659  -32.8160  -33.5713 H         1 G3Q         0.2020
     30 H4        -11.9997  -32.4033  -32.4252 H         1 G3Q         0.0287
     31 H5        -10.5814  -31.3241  -32.6499 H         1 G3Q         0.0287
     32 H6        -10.3602  -32.9645  -31.9521 H         1 G3Q         0.0287
     33 H7        -16.1507  -25.8275  -38.3975 H         1 G3Q         0.0553
     34 H8        -18.0133  -24.0978  -36.6990 H         1 G3Q         0.0287
     35 H9        -17.8661  -25.8877  -36.6602 H         1 G3Q         0.0287
     36 H10       -19.0183  -23.0324  -38.9648 H         1 G3Q         0.0265
     37 H11       -19.3982  -24.1951  -40.2803 H         1 G3Q         0.0265
     38 H12       -15.2560  -23.7400  -39.2982 H         1 G3Q         0.0287
     39 H13       -16.4180  -22.7832  -38.3179 H         1 G3Q         0.0287
     40 H14       -11.8041  -25.2287  -33.4171 H         1 G3Q         0.0477
     41 H15        -9.7199  -26.4730  -32.9572 H         1 G3Q         0.0506
     42 H16        -9.1762  -29.4128  -36.1166 H         1 G3Q         0.0636
     43 H17        -7.3979  -29.2956  -35.8914 H         1 G3Q         0.0636
     44 H18        -8.2072  -32.0833  -36.0170 H         1 G3Q         0.0840
     45 H19        -9.8673  -31.4285  -35.8119 H         1 G3Q         0.0840
     46 H20       -12.2517  -34.4340  -33.8274 H         1 G3Q         0.0287
     47 H21       -10.6038  -34.9598  -33.3433 H         1 G3Q         0.0287
     48 H22       -11.0274  -34.8213  -35.0834 H         1 G3Q         0.0287
     49 H23       -12.6344  -32.2202  -34.7853 H         1 G3Q         0.0287
     50 H24       -11.4517  -32.5907  -36.0855 H         1 G3Q         0.0287
     51 H25       -11.2612  -31.1044  -35.0949 H         1 G3Q         0.0287
     52 H26       -10.0054  -28.3598  -36.7875 H         1 G3Q         0.0506
     53 H27       -12.0857  -27.1147  -37.2433 H         1 G3Q         0.0477
     54 H28       -19.8514  -25.0588  -37.9553 H         1 G3Q         0.0266
     55 H29       -18.7232  -26.0703  -38.9200 H         1 G3Q         0.0266
     56 H30       -17.2429  -22.9271  -40.5977 H         1 G3Q         0.0266
     57 H31       -17.0608  -24.7141  -40.5965 H         1 G3Q         0.0266
     58 H32       -13.5343  -24.6099  -34.9361 H         1 G3Q         0.2218
     59 H33       -15.5976  -23.9909  -36.0856 H         1 G3Q         0.1854
     60 H34        -6.5515  -31.0522  -34.7961 H         1 G3Q         0.2101
@<TRIPOS>BOND
     1   14    1 1  
     2    1   15 1  
     3    1   26 1  
     4    2    3 1  
     5   15    2 1  
     6    3    4 1  
     7    3   16 1  
     8    3   17 1  
     9    5    6 1  
    10    5    8 1  
    11   23    5 1  
    12    6   20 1  
    13   20    7 1  
    14   21    7 1  
    15    8   21 1  
    16   22    9 am 
    17    9   23 am 
    18    9   24 2  
    19   11   10 ar 
    20   10   19 ar 
    21   10   22 1  
    22   12   11 ar 
    23   13   12 ar 
    24   13   18 ar 
    25   25   13 1  
    26   14   25 1  
    27   18   19 ar 
    28    1   27 1  
    29    2   28 1  
    30    2   29 1  
    31    4   30 1  
    32    4   31 1  
    33    4   32 1  
    34    5   33 1  
    35    6   34 1  
    36    6   35 1  
    37    7   36 1  
    38    7   37 1  
    39    8   38 1  
    40    8   39 1  
    41   11   40 1  
    42   12   41 1  
    43   14   42 1  
    44   14   43 1  
    45   15   44 1  
    46   15   45 1  
    47   16   46 1  
    48   16   47 1  
    49   16   48 1  
    50   17   49 1  
    51   17   50 1  
    52   17   51 1  
    53   18   52 1  
    54   19   53 1  
    55   20   54 1  
    56   20   55 1  
    57   21   56 1  
    58   21   57 1  
    59   22   58 1  
    60   23   59 1  
    61   26   60 1  
@<TRIPOS>SUBSTRUCTURE
     1 G3Q         1

