### 
### Created by X-TOOL on Mon Aug  2 16:13:51 2021
### 

@<TRIPOS>MOLECULE
6hgx_ligand
   64    66     1     0     0
SMALL
GAST_HUCK


@<TRIPOS>ATOM
      1 C10        -9.4030  -30.9250  -35.4790 C.3       1 G3T         0.1255
      2 C13       -10.4340  -33.3000  -34.5350 C.3       1 G3T        -0.0073
      3 C15       -10.2800  -32.2770  -32.4670 C.3       1 G3T        -0.0184
      4 C17       -11.1660  -31.3060  -31.6680 C.3       1 G3T        -0.0192
      5 C20       -10.7540  -28.0410  -35.8280 C.ar      1 G3T        -0.0460
      6 C21       -11.7830  -27.1790  -36.1400 C.ar      1 G3T        -0.0494
      7 C24       -16.2270  -23.2620  -38.8250 C.3       1 G3T        -0.0301
      8 C26       -18.5960  -23.9990  -39.4370 C.3       1 G3T        -0.0529
      9 C28       -17.4810  -24.8730  -37.3260 C.3       1 G3T        -0.0301
     10 C02       -14.0920  -25.3370  -36.7380 C.2       1 G3T         0.2844
     11 C04       -11.9800  -26.0440  -35.3860 C.ar      1 G3T         0.0559
     12 C05       -11.1320  -25.7790  -34.3170 C.ar      1 G3T        -0.0494
     13 C06       -10.0970  -26.6520  -33.9990 C.ar      1 G3T        -0.0460
     14 C07        -9.8980  -27.7960  -34.7610 C.ar      1 G3T         0.0758
     15 C09        -8.4700  -29.6900  -35.3720 C.3       1 G3T         0.0983
     16 C12        -9.0930  -33.3020  -35.2690 C.3       1 G3T         0.0882
     17 C16       -10.5130  -33.6920  -31.9210 C.3       1 G3T        -0.0192
     18 C18        -8.8180  -31.8860  -32.1870 C.3       1 G3T        -0.0192
     19 C19       -10.3970  -30.9730  -34.3010 C.3       1 G3T        -0.0019
     20 C23       -16.1270  -24.5070  -37.9430 C.3       1 G3T         0.0429
     21 C25       -17.2270  -23.5220  -39.9510 C.3       1 G3T        -0.0510
     22 C27       -18.5080  -25.1450  -38.4220 C.3       1 G3T        -0.0510
     23 N03       -13.0650  -25.1320  -35.7130 N.am      1 G3T        -0.2258
     24 N14       -10.6150  -32.2000  -33.7090 N.4       1 G3T         0.2425
     25 N22       -15.1100  -24.3160  -36.9180 N.am      1 G3T        -0.2653
     26 O01       -14.1300  -26.2960  -37.4320 O.2       1 G3T        -0.3916
     27 O08        -8.8550  -28.6990  -34.4380 O.3       1 G3T        -0.3250
     28 O11        -8.6510  -32.0730  -35.7490 O.3       1 G3T        -0.3634
     29 H1        -10.0263  -30.7713  -36.3722 H         1 G3T         0.0677
     30 H2        -10.4949  -34.2100  -33.9201 H         1 G3T         0.0837
     31 H3        -11.2399  -33.3087  -35.2836 H         1 G3T         0.0837
     32 H4        -10.8963  -31.3557  -30.6027 H         1 G3T         0.0287
     33 H5        -12.2223  -31.5867  -31.7923 H         1 G3T         0.0287
     34 H6        -11.0129  -30.2813  -32.0375 H         1 G3T         0.0287
     35 H7        -10.6089  -28.9313  -36.4292 H         1 G3T         0.0506
     36 H8        -12.4363  -27.3943  -36.9778 H         1 G3T         0.0477
     37 H9        -15.2401  -23.0354  -39.2547 H         1 G3T         0.0287
     38 H10       -16.5681  -22.4090  -38.2199 H         1 G3T         0.0287
     39 H11       -19.1898  -24.3418  -40.2972 H         1 G3T         0.0265
     40 H12       -19.1025  -23.1485  -38.9574 H         1 G3T         0.0265
     41 H13       -17.8313  -24.0394  -36.6997 H         1 G3T         0.0287
     42 H14       -17.3652  -25.7741  -36.7059 H         1 G3T         0.0287
     43 H15       -11.2788  -24.8828  -33.7251 H         1 G3T         0.0477
     44 H16        -9.4468  -26.4399  -33.1579 H         1 G3T         0.0506
     45 H17        -8.4232  -29.2170  -36.3640 H         1 G3T         0.0636
     46 H18        -7.4692  -30.0481  -35.0889 H         1 G3T         0.0636
     47 H19        -9.1816  -33.9846  -36.1270 H         1 G3T         0.0613
     48 H20        -8.3309  -33.6839  -34.5737 H         1 G3T         0.0613
     49 H21        -9.8891  -34.4070  -32.4773 H         1 G3T         0.0287
     50 H22       -11.5730  -33.9608  -32.0394 H         1 G3T         0.0287
     51 H23       -10.2438  -33.7226  -30.8549 H         1 G3T         0.0287
     52 H24        -8.6294  -30.8727  -32.5713 H         1 G3T         0.0287
     53 H25        -8.1456  -32.5987  -32.6869 H         1 G3T         0.0287
     54 H26        -8.6340  -31.9070  -31.1027 H         1 G3T         0.0287
     55 H27       -11.3663  -30.6073  -34.6709 H         1 G3T         0.0841
     56 H28       -10.0210  -30.2925  -33.5229 H         1 G3T         0.0841
     57 H29       -15.8127  -25.3474  -38.5794 H         1 G3T         0.0553
     58 H30       -16.8135  -24.2941  -40.6164 H         1 G3T         0.0266
     59 H31       -17.3698  -22.5891  -40.5160 H         1 G3T         0.0266
     60 H32       -18.2234  -26.0657  -38.9523 H         1 G3T         0.0266
     61 H33       -19.4950  -25.2806  -37.9556 H         1 G3T         0.0266
     62 H34       -13.1149  -24.2828  -35.1873 H         1 G3T         0.2218
     63 H35       -11.6196  -32.2003  -33.6259 H         1 G3T         0.2040
     64 H36       -15.1123  -23.4950  -36.3471 H         1 G3T         0.1854
@<TRIPOS>BOND
     1   15    1 1  
     2    1   19 1  
     3    1   28 1  
     4   16    2 1  
     5   24    2 1  
     6    3    4 1  
     7    3   17 1  
     8    3   18 1  
     9   24    3 1  
    10    6    5 ar 
    11    5   14 ar 
    12   11    6 ar 
    13   20    7 1  
    14    7   21 1  
    15   21    8 1  
    16   22    8 1  
    17   20    9 1  
    18    9   22 1  
    19   10   23 am 
    20   25   10 am 
    21   10   26 2  
    22   11   12 ar 
    23   23   11 1  
    24   12   13 ar 
    25   13   14 ar 
    26   14   27 1  
    27   27   15 1  
    28   28   16 1  
    29   19   24 1  
    30   20   25 1  
    31    1   29 1  
    32    2   30 1  
    33    2   31 1  
    34    4   32 1  
    35    4   33 1  
    36    4   34 1  
    37    5   35 1  
    38    6   36 1  
    39    7   37 1  
    40    7   38 1  
    41    8   39 1  
    42    8   40 1  
    43    9   41 1  
    44    9   42 1  
    45   12   43 1  
    46   13   44 1  
    47   15   45 1  
    48   15   46 1  
    49   16   47 1  
    50   16   48 1  
    51   17   49 1  
    52   17   50 1  
    53   17   51 1  
    54   18   52 1  
    55   18   53 1  
    56   18   54 1  
    57   19   55 1  
    58   19   56 1  
    59   20   57 1  
    60   21   58 1  
    61   21   59 1  
    62   22   60 1  
    63   22   61 1  
    64   23   62 1  
    65   24   63 1  
    66   25   64 1  
@<TRIPOS>SUBSTRUCTURE
     1 G3T         1

