### 
### Created by X-TOOL on Mon Aug  2 16:10:05 2021
### 

@<TRIPOS>MOLECULE
6hgy_ligand
  118   120     1     0     0
SMALL
GAST_HUCK


@<TRIPOS>ATOM
      1 C1          5.5510  -21.9830   12.8820 C.3       1 G4B        -0.0653
      2 C2          4.1680  -21.3780   12.7850 C.3       1 G4B        -0.0559
      3 C3          3.5710  -21.1460   14.1670 C.3       1 G4B        -0.0532
      4 C4          2.2090  -20.4710   14.0560 C.3       1 G4B        -0.0515
      5 C5          1.5940  -20.2250   15.4280 C.3       1 G4B        -0.0463
      6 C6          0.1970  -19.6370   15.2830 C.3       1 G4B        -0.0358
      7 C7         -0.3960  -19.3630   16.6430 C.2       1 G4B        -0.0958
      8 C8         -1.6140  -18.8390   16.7370 C.2       1 G4B        -0.0800
      9 C15        -4.5430  -15.2200   17.6930 C.3       1 G4B         0.0164
     10 C16        -5.9150  -15.1730   18.3420 C.ar      1 G4B        -0.0493
     11 C17        -6.2080  -16.0140   19.4340 C.ar      1 G4B        -0.0685
     12 C18        -7.4710  -15.9670   20.0460 C.ar      1 G4B        -0.0398
     13 C19        -8.4500  -15.0750   19.5790 C.ar      1 G4B         0.0805
     14 C21        -6.8970  -14.2760   17.8840 C.ar      1 G4B        -0.0685
     15 C23        -4.5300  -14.2120   15.2340 C.2       1 G4B         0.2057
     16 C30        -5.8250  -10.6070   16.0230 C.3       1 G4B        -0.0584
     17 C31        -2.6420  -11.7640   14.0850 C.2       1 G4B         0.2022
     18 C34        -1.2300  -11.9500   12.0330 C.3       1 G4B         0.0718
     19 C36        -0.6910  -13.3600   11.7650 C.3       1 G4B         0.0998
     20 C38        -2.3900  -15.3160   11.6250 C.2       1 G4B         0.2615
     21 C40        -3.7420  -15.6330   11.0120 C.3       1 G4B         0.1503
     22 C9         -2.4020  -18.5200   15.4870 C.3       1 G4B         0.0536
     23 C10        -3.6210  -17.7090   15.8680 C.2       1 G4B         0.1863
     24 O11        -4.6250  -18.3150   16.2150 O.2       1 G4B        -0.3945
     25 N12        -3.5210  -16.3360   15.7920 N.am      1 G4B        -0.2627
     26 C13        -4.5870  -15.4210   16.1630 C.3       1 G4B         0.1391
     27 C20        -8.1600  -14.2280   18.4970 C.ar      1 G4B        -0.0398
     28 O22        -9.6750  -15.0340   20.1770 O.3       1 G4B        -0.3376
     29 O24        -4.9290  -14.4400   14.1070 O.2       1 G4B        -0.3942
     30 N25        -4.0790  -12.9870   15.5870 N.am      1 G4B        -0.2633
     31 C26        -4.0260  -11.8280   14.6890 C.3       1 G4B         0.1331
     32 C28        -4.3980  -10.5450   15.4680 C.3       1 G4B        -0.0063
     33 C29        -4.2300   -9.2200   14.7030 C.3       1 G4B        -0.0584
     34 O32        -1.7140  -11.5120   14.8440 O.2       1 G4B        -0.3945
     35 N33        -2.5080  -11.9860   12.7600 N.am      1 G4B        -0.2793
     36 O37        -1.6060  -14.2070   11.0740 O.3       1 G4B        -0.2727
     37 O39        -1.9320  -15.9600   12.5550 O.2       1 G4B        -0.3676
     38 C42        -3.8920  -17.1320   10.6920 C.3       1 G4B         0.0177
     39 C43        -5.2810  -17.4590   10.1950 C.ar      1 G4B        -0.0491
     40 C44        -6.3570  -17.5220   11.0950 C.ar      1 G4B        -0.0685
     41 C45        -7.6490  -17.8330   10.6340 C.ar      1 G4B        -0.0398
     42 C46        -7.8710  -18.0860    9.2690 C.ar      1 G4B         0.0805
     43 C47        -6.7920  -18.0230    8.3710 C.ar      1 G4B        -0.0398
     44 C48        -5.5020  -17.7140    8.8350 C.ar      1 G4B        -0.0685
     45 O49        -9.1270  -18.3850    8.8250 O.3       1 G4B        -0.3376
     46 N50        -3.9080  -14.6570    9.9360 N.am      1 G4B        -0.2608
     47 C51        -3.4450  -14.7290    8.6770 C.2       1 G4B         0.2043
     48 O52        -2.8250  -15.6790    8.2210 O.2       1 G4B        -0.3944
     49 C53        -3.6600  -13.5190    7.8000 C.3       1 G4B         0.1332
     50 N55        -2.2950  -13.0010    7.6110 N.am      1 G4B        -0.2654
     51 C56        -1.5680  -12.1690    8.4060 C.2       1 G4B         0.1783
     52 O57        -0.4350  -11.8690    8.0570 O.2       1 G4B        -0.3969
     53 C58        -2.1170  -11.5510    9.6920 C.3       1 G4B         0.0395
     54 C59        -1.2500  -11.0060   10.8230 C.3       1 G4B        -0.0104
     55 C60        -4.3990  -13.8600    6.4910 C.3       1 G4B        -0.0063
     56 C61        -4.2990  -12.7300    5.4510 C.3       1 G4B        -0.0584
     57 C62        -5.8570  -14.2940    6.7550 C.3       1 G4B        -0.0584
     58 H1          5.9549  -22.1384   11.8707 H         1 G4B         0.0230
     59 H2          5.4930  -22.9484   13.4060 H         1 G4B         0.0230
     60 H3          6.2108  -21.3021   13.4397 H         1 G4B         0.0230
     61 H4          3.5156  -22.0620   12.2224 H         1 G4B         0.0263
     62 H5          4.2334  -20.4157   12.2561 H         1 G4B         0.0263
     63 H6          4.2469  -20.5028   14.7496 H         1 G4B         0.0265
     64 H7          3.4546  -22.1133   14.6777 H         1 G4B         0.0265
     65 H8          1.5361  -21.1175   13.4735 H         1 G4B         0.0267
     66 H9          2.3289  -19.5069   13.5401 H         1 G4B         0.0267
     67 H10         2.2273  -19.5218   15.9888 H         1 G4B         0.0285
     68 H11         1.5317  -21.1779   15.9739 H         1 G4B         0.0285
     69 H12        -0.4436  -20.3507   14.7443 H         1 G4B         0.0391
     70 H13         0.2556  -18.6963   14.7159 H         1 G4B         0.0391
     71 H14         0.1713  -19.5935   17.5436 H         1 G4B         0.0461
     72 H15        -2.0452  -18.6390   17.7168 H         1 G4B         0.0470
     73 H16        -3.9773  -16.0526   18.1365 H         1 G4B         0.0453
     74 H17        -4.0263  -14.2721   17.9040 H         1 G4B         0.0453
     75 H18        -5.4548  -16.7005   19.8034 H         1 G4B         0.0530
     76 H19        -7.6910  -16.6214   20.8817 H         1 G4B         0.0525
     77 H20        -6.6775  -13.6169   17.0518 H         1 G4B         0.0530
     78 H21        -6.0472   -9.6776   16.5679 H         1 G4B         0.0234
     79 H22        -5.9155  -11.4636   16.7071 H         1 G4B         0.0234
     80 H23        -6.5367  -10.7241   15.1925 H         1 G4B         0.0234
     81 H24        -0.5087  -11.4969   12.7290 H         1 G4B         0.0584
     82 H25        -0.4484  -13.8273   12.7308 H         1 G4B         0.0636
     83 H26         0.2236  -13.2719   11.1602 H         1 G4B         0.0636
     84 H27        -4.5181  -15.4144   11.7602 H         1 G4B         0.0838
     85 H28        -2.7180  -19.4550   15.0013 H         1 G4B         0.0621
     86 H29        -1.7751  -17.9402   14.7935 H         1 G4B         0.0621
     87 H30        -2.6618  -15.9458   15.4611 H         1 G4B         0.1885
     88 H31        -5.5481  -15.9134   15.9536 H         1 G4B         0.0821
     89 H32        -8.9118  -13.5363   18.1344 H         1 G4B         0.0525
     90 H33        -9.7017  -15.6665   20.8854 H         1 G4B         0.2458
     91 H34        -3.7591  -12.8623   16.5262 H         1 G4B         0.1883
     92 H35        -4.7571  -11.9641   13.8785 H         1 G4B         0.0802
     93 H36        -3.7116  -10.5022   16.3265 H         1 G4B         0.0343
     94 H37        -4.5225   -8.3819   15.3527 H         1 G4B         0.0234
     95 H38        -4.8688   -9.2300   13.8075 H         1 G4B         0.0234
     96 H39        -3.1787   -9.1010   14.4022 H         1 G4B         0.0234
     97 H40        -3.3354  -12.1891   12.2364 H         1 G4B         0.1856
     98 H41        -3.6935  -17.7133   11.6045 H         1 G4B         0.0454
     99 H42        -3.1618  -17.4062    9.9164 H         1 G4B         0.0454
    100 H43        -6.1913  -17.3302   12.1490 H         1 G4B         0.0530
    101 H44        -8.4760  -17.8777   11.3333 H         1 G4B         0.0525
    102 H45        -6.9553  -18.2135    7.3164 H         1 G4B         0.0525
    103 H46        -4.6735  -17.6727    8.1371 H         1 G4B         0.0530
    104 H47        -9.7297  -18.3849    9.5594 H         1 G4B         0.2458
    105 H48        -4.4300  -13.8355   10.1653 H         1 G4B         0.1886
    106 H49        -4.2634  -12.7722    8.3368 H         1 G4B         0.0802
    107 H50        -1.8347  -13.3047    6.7768 H         1 G4B         0.1883
    108 H51        -2.7467  -12.3284   10.1493 H         1 G4B         0.0503
    109 H52        -2.7485  -10.7096    9.3707 H         1 G4B         0.0503
    110 H53        -0.2217  -10.8792   10.4536 H         1 G4B         0.0313
    111 H54        -1.6490  -10.0309   11.1390 H         1 G4B         0.0313
    112 H55        -3.8855  -14.7304    6.0566 H         1 G4B         0.0343
    113 H56        -4.8405  -13.0220    4.5391 H         1 G4B         0.0234
    114 H57        -3.2418  -12.5484    5.2073 H         1 G4B         0.0234
    115 H58        -4.7433  -11.8120    5.8631 H         1 G4B         0.0234
    116 H59        -5.8697  -15.1005    7.5029 H         1 G4B         0.0234
    117 H60        -6.3074  -14.6551    5.8187 H         1 G4B         0.0234
    118 H61        -6.4326  -13.4356    7.1316 H         1 G4B         0.0234
@<TRIPOS>BOND
     1    2    1 1  
     2    3    2 1  
     3    4    3 1  
     4    5    4 1  
     5    6    5 1  
     6    7    6 1  
     7    8    7 2  
     8   22    8 1  
     9    9   10 1  
    10   26    9 1  
    11   10   11 ar 
    12   10   14 ar 
    13   11   12 ar 
    14   12   13 ar 
    15   27   13 ar 
    16   13   28 1  
    17   14   27 ar 
    18   15   26 1  
    19   15   29 2  
    20   30   15 am 
    21   32   16 1  
    22   31   17 1  
    23   17   34 2  
    24   17   35 am 
    25   18   19 1  
    26   35   18 1  
    27   18   54 1  
    28   19   36 1  
    29   20   21 1  
    30   36   20 1  
    31   20   37 2  
    32   21   38 1  
    33   21   46 1  
    34   23   22 1  
    35   23   24 2  
    36   25   23 am 
    37   26   25 1  
    38   31   30 1  
    39   31   32 1  
    40   32   33 1  
    41   38   39 1  
    42   39   40 ar 
    43   39   44 ar 
    44   40   41 ar 
    45   41   42 ar 
    46   42   43 ar 
    47   42   45 1  
    48   43   44 ar 
    49   46   47 am 
    50   47   48 2  
    51   47   49 1  
    52   49   50 1  
    53   49   55 1  
    54   50   51 am 
    55   51   52 2  
    56   51   53 1  
    57   53   54 1  
    58   55   56 1  
    59   55   57 1  
    60    1   58 1  
    61    1   59 1  
    62    1   60 1  
    63    2   61 1  
    64    2   62 1  
    65    3   63 1  
    66    3   64 1  
    67    4   65 1  
    68    4   66 1  
    69    5   67 1  
    70    5   68 1  
    71    6   69 1  
    72    6   70 1  
    73    7   71 1  
    74    8   72 1  
    75    9   73 1  
    76    9   74 1  
    77   11   75 1  
    78   12   76 1  
    79   14   77 1  
    80   16   78 1  
    81   16   79 1  
    82   16   80 1  
    83   18   81 1  
    84   19   82 1  
    85   19   83 1  
    86   21   84 1  
    87   22   85 1  
    88   22   86 1  
    89   25   87 1  
    90   26   88 1  
    91   27   89 1  
    92   28   90 1  
    93   30   91 1  
    94   31   92 1  
    95   32   93 1  
    96   33   94 1  
    97   33   95 1  
    98   33   96 1  
    99   35   97 1  
   100   38   98 1  
   101   38   99 1  
   102   40  100 1  
   103   41  101 1  
   104   43  102 1  
   105   44  103 1  
   106   45  104 1  
   107   46  105 1  
   108   49  106 1  
   109   50  107 1  
   110   53  108 1  
   111   53  109 1  
   112   54  110 1  
   113   54  111 1  
   114   55  112 1  
   115   56  113 1  
   116   56  114 1  
   117   56  115 1  
   118   57  116 1  
   119   57  117 1  
   120   57  118 1  
@<TRIPOS>SUBSTRUCTURE
     1 G4B         1

