### 
### Created by X-TOOL on Mon Aug  2 16:10:05 2021
### 

@<TRIPOS>MOLECULE
6hhg_ligand
   82    87     1     0     0
SMALL
GAST_HUCK


@<TRIPOS>ATOM
      1 CAK        16.7040  -11.5810   -8.9560 C.ar      1 G4T        -0.0540
      2 CAH        16.3280  -10.2450   -8.8960 C.ar      1 G4T        -0.0614
      3 CAG        15.8050   -9.7220   -7.7180 C.ar      1 G4T        -0.0619
      4 CAI        15.6570  -10.5420   -6.6050 C.ar      1 G4T        -0.0614
      5 CAL        16.0320  -11.8790   -6.6680 C.ar      1 G4T        -0.0540
      6 CBK        16.5420  -12.4080   -7.8450 C.ar      1 G4T        -0.0139
      7 CBN        16.9200  -13.7530   -7.8760 C.ar      1 G4T         0.0136
      8 CAU        17.7840  -14.1810   -6.8740 C.ar      1 G4T        -0.0226
      9 CBR        18.2090  -15.5010   -6.8450 C.ar      1 G4T         0.0721
     10 CBP        19.0730  -15.9580   -5.8550 C.2       1 G4T         0.1943
     11 OAD        19.4850  -15.2010   -4.9780 O.2       1 G4T        -0.3770
     12 NBE        19.4800  -17.2990   -5.8570 N.2       1 G4T        -0.2481
     13 CAJ        19.0510  -18.1320   -6.7890 C.2       1 G4T         0.0393
     14 CAS        18.1860  -17.7010   -7.7900 C.3       1 G4T         0.0651
     15 CBQ        17.7620  -16.3780   -7.8200 C.ar      1 G4T         0.0679
     16 NBA        16.9290  -15.9510   -8.7810 N.ar      1 G4T        -0.2842
     17 CBO        16.4970  -14.6790   -8.8470 C.ar      1 G4T         0.0526
     18 CBL        15.6210  -14.3830   -9.8940 C.ar      1 G4T        -0.0053
     19 CAR        14.3730  -13.8160   -9.6420 C.ar      1 G4T        -0.0555
     20 CAN        13.5010  -13.5370  -10.6860 C.ar      1 G4T        -0.0512
     21 CAQ        15.9710  -14.7020  -11.2020 C.ar      1 G4T        -0.0555
     22 CAM        15.0960  -14.4260  -12.2500 C.ar      1 G4T        -0.0512
     23 CBH        13.8570  -13.8460  -11.9920 C.ar      1 G4T         0.0049
     24 CAZ        12.9670  -13.5600  -13.0230 C.3       1 G4T         0.0035
     25 NBT        12.8450  -14.6740  -13.9780 N.4       1 G4T         0.2479
     26 CAY        12.0530  -15.7770  -13.3920 C.3       1 G4T        -0.0283
     27 CAW        11.9010  -16.9260  -14.3790 C.3       1 G4T         0.0105
     28 CAX        12.1560  -14.1670  -15.1710 C.3       1 G4T        -0.0283
     29 CAV        12.0130  -15.2620  -16.2180 C.3       1 G4T         0.0105
     30 CBS        11.2090  -16.4110  -15.6350 C.3       1 G4T         0.0525
     31 NBD        11.1350  -17.4650  -16.6550 N.am      1 G4T        -0.2644
     32 CBG        10.0090  -17.7230  -17.3310 C.2       1 G4T         0.2874
     33 OAC         8.9750  -17.1010  -17.0870 O.2       1 G4T        -0.3903
     34 NBB        10.0760  -18.6970  -18.2590 N.am      1 G4T        -0.2227
     35 CBJ         8.9940  -19.0240  -18.9740 C.ar      1 G4T         0.0530
     36 CAT         8.2630  -18.0650  -19.6750 C.ar      1 G4T        -0.0221
     37 CAP         8.6140  -20.3590  -19.0460 C.ar      1 G4T        -0.0558
     38 CAO         7.5000  -20.7370  -19.7890 C.ar      1 G4T        -0.0744
     39 CBI         6.7630  -19.7800  -20.4760 C.ar      1 G4T         0.0432
     40 CL          5.3820  -20.2510  -21.3960 Cl        1 G4T        -0.0962
     41 CBM         7.1460  -18.4470  -20.4070 C.ar      1 G4T         0.0661
     42 NBC         6.4060  -17.5740  -21.0880 N.am      1 G4T        -0.2365
     43 CBF         5.7280  -16.6380  -20.4000 C.2       1 G4T         0.2034
     44 OAB         5.7260  -16.5350  -19.1740 O.2       1 G4T        -0.3847
     45 CAF         4.9130  -15.6760  -21.2700 C.3       1 G4T         0.0404
     46 CAA         4.1250  -14.6040  -20.5200 C.3       1 G4T        -0.0477
     47 H1         17.1252  -11.9824   -9.8706 H         1 G4T         0.0622
     48 H2         16.4422   -9.6101   -9.7672 H         1 G4T         0.0617
     49 H3         15.5139   -8.6790   -7.6679 H         1 G4T         0.0616
     50 H4         15.2482  -10.1377   -5.6860 H         1 G4T         0.0617
     51 H5         15.9255  -12.5111   -5.7938 H         1 G4T         0.0622
     52 H6         18.1248  -13.4842   -6.1168 H         1 G4T         0.0770
     53 H7         19.3791  -19.1703   -6.7733 H         1 G4T         0.1329
     54 H8         17.2814  -18.3227   -7.7174 H         1 G4T         0.0782
     55 H9         18.6884  -17.8952   -8.7491 H         1 G4T         0.0782
     56 H10        14.0807  -13.5910   -8.6227 H         1 G4T         0.0631
     57 H11        12.5409  -13.0773  -10.4811 H         1 G4T         0.0569
     58 H12        16.9285  -15.1672  -11.4065 H         1 G4T         0.0631
     59 H13        15.3804  -14.6633  -13.2687 H         1 G4T         0.0569
     60 H14        13.3231  -12.6694  -13.5615 H         1 G4T         0.0989
     61 H15        11.9770  -13.3551  -12.5896 H         1 G4T         0.0989
     62 H16        13.7615  -15.0127  -14.2258 H         1 G4T         0.2049
     63 H17        11.0553  -15.3998  -13.1233 H         1 G4T         0.0815
     64 H18        12.5618  -16.1443  -12.4885 H         1 G4T         0.0815
     65 H19        11.2957  -17.7246  -13.9253 H         1 G4T         0.0339
     66 H20        12.8935  -17.3217  -14.6404 H         1 G4T         0.0339
     67 H21        12.7362  -13.3348  -15.5963 H         1 G4T         0.0815
     68 H22        11.1561  -13.8085  -14.8851 H         1 G4T         0.0815
     69 H23        13.0100  -15.6226  -16.5113 H         1 G4T         0.0339
     70 H24        11.4938  -14.8609  -17.1009 H         1 G4T         0.0339
     71 H25        10.1951  -16.0693  -15.3796 H         1 G4T         0.0557
     72 H26        11.9521  -18.0073  -16.8507 H         1 G4T         0.1856
     73 H27        10.9389  -19.1780  -18.4141 H         1 G4T         0.2254
     74 H28         8.5657  -17.0245  -19.6486 H         1 G4T         0.0375
     75 H29         9.1899  -21.1114  -18.5193 H         1 G4T         0.0382
     76 H30         7.2066  -21.7796  -19.8320 H         1 G4T         0.0548
     77 H31         6.3557  -17.6134  -22.0860 H         1 G4T         0.2257
     78 H32         4.1976  -16.2735  -21.8541 H         1 G4T         0.0505
     79 H33         5.6091  -15.1669  -21.9528 H         1 G4T         0.0505
     80 H34         3.5821  -13.9759  -21.2416 H         1 G4T         0.0254
     81 H35         4.8184  -13.9787  -19.9385 H         1 G4T         0.0254
     82 H36         3.4069  -15.0853  -19.8398 H         1 G4T         0.0254
@<TRIPOS>BOND
     1    1    2 ar 
     2    1    6 ar 
     3    2    3 ar 
     4    3    4 ar 
     5    4    5 ar 
     6    5    6 ar 
     7    6    7 1  
     8    7    8 ar 
     9    7   17 ar 
    10    8    9 ar 
    11    9   10 1  
    12    9   15 ar 
    13   10   11 2  
    14   10   12 1  
    15   12   13 2  
    16   13   14 1  
    17   14   15 1  
    18   15   16 ar 
    19   16   17 ar 
    20   17   18 1  
    21   18   19 ar 
    22   18   21 ar 
    23   19   20 ar 
    24   20   23 ar 
    25   21   22 ar 
    26   22   23 ar 
    27   23   24 1  
    28   24   25 1  
    29   25   26 1  
    30   25   28 1  
    31   26   27 1  
    32   27   30 1  
    33   28   29 1  
    34   29   30 1  
    35   30   31 1  
    36   31   32 am 
    37   32   33 2  
    38   32   34 am 
    39   34   35 1  
    40   35   36 ar 
    41   35   37 ar 
    42   36   41 ar 
    43   37   38 ar 
    44   38   39 ar 
    45   39   40 1  
    46   39   41 ar 
    47   41   42 1  
    48   42   43 am 
    49   43   44 2  
    50   43   45 1  
    51   45   46 1  
    52    1   47 1  
    53    2   48 1  
    54    3   49 1  
    55    4   50 1  
    56    5   51 1  
    57    8   52 1  
    58   13   53 1  
    59   14   54 1  
    60   14   55 1  
    61   19   56 1  
    62   20   57 1  
    63   21   58 1  
    64   22   59 1  
    65   24   60 1  
    66   24   61 1  
    67   25   62 1  
    68   26   63 1  
    69   26   64 1  
    70   27   65 1  
    71   27   66 1  
    72   28   67 1  
    73   28   68 1  
    74   29   69 1  
    75   29   70 1  
    76   30   71 1  
    77   31   72 1  
    78   34   73 1  
    79   36   74 1  
    80   37   75 1  
    81   38   76 1  
    82   42   77 1  
    83   45   78 1  
    84   45   79 1  
    85   46   80 1  
    86   46   81 1  
    87   46   82 1  
@<TRIPOS>SUBSTRUCTURE
     1 G4T         1

