### 
### Created by X-TOOL on Mon Aug  2 16:10:05 2021
### 

@<TRIPOS>MOLECULE
6hhh_ligand
   75    80     1     0     0
SMALL
GAST_HUCK


@<TRIPOS>ATOM
      1 CAL        -6.2700    0.8410  -14.0330 C.ar      1 G4Q        -0.0540
      2 CAM        -7.5930    1.2460  -14.0000 C.ar      1 G4Q        -0.0614
      3 CAN        -8.1450    1.9210  -15.0870 C.ar      1 G4Q        -0.0619
      4 CAO        -7.3710    2.1890  -16.2050 C.ar      1 G4Q        -0.0614
      5 CAP        -6.0400    1.7760  -16.2390 C.ar      1 G4Q        -0.0540
      6 CAK        -5.4830    1.1120  -15.1520 C.ar      1 G4Q        -0.0139
      7 CAH        -4.1380    0.7200  -15.1710 C.ar      1 G4Q         0.0136
      8 CAG        -3.7120   -0.1190  -16.1990 C.ar      1 G4Q        -0.0226
      9 CAD        -2.3830   -0.5220  -16.2150 C.ar      1 G4Q         0.0721
     10 CAC        -1.9090   -1.3570  -17.2210 C.2       1 G4Q         0.1943
     11 OBO        -2.6510   -1.7630  -18.1150 O.2       1 G4Q        -0.3770
     12 NAB        -0.5650   -1.7450  -17.2140 N.2       1 G4Q        -0.2481
     13 CAA         0.2570   -1.3270  -16.2660 C.2       1 G4Q         0.0393
     14 CAF        -0.1840   -0.4930  -15.2500 C.3       1 G4Q         0.0651
     15 CAE        -1.5140   -0.0870  -15.2190 C.ar      1 G4Q         0.0679
     16 NAJ        -1.9410    0.7260  -14.2390 N.ar      1 G4Q        -0.2842
     17 CAI        -3.2090    1.1540  -14.1890 C.ar      1 G4Q         0.0526
     18 CAQ        -3.5710    1.9870  -13.1230 C.ar      1 G4Q        -0.0053
     19 CAV        -3.2510    1.6260  -11.8160 C.ar      1 G4Q        -0.0555
     20 CAU        -3.6350    2.4380  -10.7470 C.ar      1 G4Q        -0.0512
     21 CAR        -4.2640    3.1800  -13.3420 C.ar      1 G4Q        -0.0555
     22 CAS        -4.6550    3.9820  -12.2830 C.ar      1 G4Q        -0.0512
     23 CAT        -4.3300    3.6210  -10.9860 C.ar      1 G4Q         0.0049
     24 CAW        -4.7440    4.4480   -9.9530 C.3       1 G4Q         0.0037
     25 NAX        -3.6550    4.9690   -9.1390 N.4       1 G4Q         0.2505
     26 CBC        -4.3090    5.7020   -8.0470 C.3       1 G4Q        -0.0107
     27 CBB        -3.2960    6.2960   -7.0980 C.3       1 G4Q         0.0643
     28 CAY        -2.9170    5.9350   -9.9610 C.3       1 G4Q        -0.0107
     29 CAZ        -1.7890    6.5680   -9.1650 C.3       1 G4Q         0.0643
     30 NBA        -2.2510    7.0440   -7.8350 N.pl3     1 G4Q        -0.3065
     31 CBD        -1.7130    8.1460   -7.2840 C.ar      1 G4Q         0.0260
     32 CBI        -1.8430    8.3840   -5.9200 C.ar      1 G4Q        -0.0567
     33 CBH        -1.2840    9.5300   -5.3540 C.ar      1 G4Q        -0.0518
     34 CBE        -1.0240    9.0580   -8.0700 C.ar      1 G4Q        -0.0567
     35 CBF        -0.4680   10.2000   -7.5030 C.ar      1 G4Q        -0.0518
     36 CBG        -0.5820   10.4410   -6.1360 C.ar      1 G4Q         0.0536
     37 NBJ        -0.0500   11.5560   -5.6160 N.am      1 G4Q        -0.2413
     38 CBK         1.2830   11.6440   -5.4090 C.2       1 G4Q         0.1999
     39 OBM         2.0940   10.7430   -5.6380 O.2       1 G4Q        -0.3866
     40 CBL         1.7550   13.0150   -4.8800 C.3       1 G4Q         0.0397
     41 CBN         0.7660   14.1760   -5.0910 C.3       1 G4Q        -0.0478
     42 H1         -5.8448    0.3122  -13.1876 H         1 G4Q         0.0622
     43 H2         -8.2009    1.0378  -13.1270 H         1 G4Q         0.0617
     44 H3         -9.1815    2.2370  -15.0581 H         1 G4Q         0.0616
     45 H4         -7.7987    2.7175  -17.0493 H         1 G4Q         0.0617
     46 H5         -5.4363    1.9736  -17.1174 H         1 G4Q         0.0622
     47 H6         -4.4014   -0.4491  -16.9677 H         1 G4Q         0.0770
     48 H7          1.2988   -1.6435  -16.2837 H         1 G4Q         0.1329
     49 H8          0.4270    0.4203  -15.2995 H         1 G4Q         0.0782
     50 H9          0.0122   -1.0146  -14.3016 H         1 G4Q         0.0782
     51 H10        -2.7015    0.7107  -11.6282 H         1 G4Q         0.0631
     52 H11        -3.3922    2.1477   -9.7312 H         1 G4Q         0.0569
     53 H12        -4.4992    3.4824  -14.3560 H         1 G4Q         0.0631
     54 H13        -5.2149    4.8914  -12.4690 H         1 G4Q         0.0569
     55 H14        -5.4198    3.8752   -9.3009 H         1 G4Q         0.0989
     56 H15        -5.2883    5.2991  -10.3882 H         1 G4Q         0.0989
     57 H16        -3.0524    4.2375   -8.7957 H         1 G4Q         0.2050
     58 H17        -4.9584    5.0104   -7.4902 H         1 G4Q         0.0834
     59 H18        -4.9175    6.5127   -8.4742 H         1 G4Q         0.0834
     60 H19        -2.8215    5.4856   -6.5253 H         1 G4Q         0.0561
     61 H20        -3.8091    6.9814   -6.4074 H         1 G4Q         0.0561
     62 H21        -3.6066    6.7227  -10.2987 H         1 G4Q         0.0834
     63 H22        -2.4954    5.4173  -10.8352 H         1 G4Q         0.0834
     64 H23        -1.3906    7.4233   -9.7305 H         1 G4Q         0.0561
     65 H24        -0.9937    5.8221   -9.0195 H         1 G4Q         0.0561
     66 H25        -2.3793    7.6783   -5.2959 H         1 G4Q         0.0481
     67 H26        -1.3982    9.7127   -4.2916 H         1 G4Q         0.0474
     68 H27        -0.9181    8.8794   -9.1339 H         1 G4Q         0.0481
     69 H28         0.0590   10.9091   -8.1310 H         1 G4Q         0.0474
     70 H29        -0.6421   12.3266   -5.3800 H         1 G4Q         0.2214
     71 H30         2.6947   13.2716   -5.3910 H         1 G4Q         0.0504
     72 H31         1.9397   12.9176   -3.8000 H         1 G4Q         0.0504
     73 H32         1.1952   15.1023   -4.6813 H         1 G4Q         0.0254
     74 H33        -0.1793   13.9507   -4.5757 H         1 G4Q         0.0254
     75 H34         0.5756   14.3046   -6.1667 H         1 G4Q         0.0254
@<TRIPOS>BOND
     1    1    2 ar 
     2    1    6 ar 
     3    2    3 ar 
     4    3    4 ar 
     5    4    5 ar 
     6    5    6 ar 
     7    6    7 1  
     8    7    8 ar 
     9    7   17 ar 
    10    8    9 ar 
    11    9   10 1  
    12    9   15 ar 
    13   10   11 2  
    14   10   12 1  
    15   12   13 2  
    16   13   14 1  
    17   14   15 1  
    18   15   16 ar 
    19   16   17 ar 
    20   17   18 1  
    21   18   19 ar 
    22   18   21 ar 
    23   19   20 ar 
    24   20   23 ar 
    25   21   22 ar 
    26   22   23 ar 
    27   23   24 1  
    28   24   25 1  
    29   25   26 1  
    30   25   28 1  
    31   26   27 1  
    32   27   30 1  
    33   28   29 1  
    34   29   30 1  
    35   30   31 1  
    36   31   32 ar 
    37   31   34 ar 
    38   32   33 ar 
    39   33   36 ar 
    40   34   35 ar 
    41   35   36 ar 
    42   36   37 1  
    43   37   38 am 
    44   38   39 2  
    45   38   40 1  
    46   40   41 1  
    47    1   42 1  
    48    2   43 1  
    49    3   44 1  
    50    4   45 1  
    51    5   46 1  
    52    8   47 1  
    53   13   48 1  
    54   14   49 1  
    55   14   50 1  
    56   19   51 1  
    57   20   52 1  
    58   21   53 1  
    59   22   54 1  
    60   24   55 1  
    61   24   56 1  
    62   25   57 1  
    63   26   58 1  
    64   26   59 1  
    65   27   60 1  
    66   27   61 1  
    67   28   62 1  
    68   28   63 1  
    69   29   64 1  
    70   29   65 1  
    71   32   66 1  
    72   33   67 1  
    73   34   68 1  
    74   35   69 1  
    75   37   70 1  
    76   40   71 1  
    77   40   72 1  
    78   41   73 1  
    79   41   74 1  
    80   41   75 1  
@<TRIPOS>SUBSTRUCTURE
     1 G4Q         1

