### 
### Created by X-TOOL on Mon Aug  2 16:10:06 2021
### 

@<TRIPOS>MOLECULE
6hhi_ligand
   80    85     1     0     0
SMALL
GAST_HUCK


@<TRIPOS>ATOM
      1 CAQ        -5.9240    1.7950  -16.2540 C.ar      1 G4N        -0.0540
      2 CBB        -7.2600    2.1790  -16.2550 C.ar      1 G4N        -0.0614
      3 CBD        -8.0430    1.9930  -15.1230 C.ar      1 G4N        -0.0619
      4 CBE        -7.4940    1.4210  -13.9820 C.ar      1 G4N        -0.0614
      5 CAZ        -6.1630    1.0310  -13.9860 C.ar      1 G4N        -0.0540
      6 CBG        -5.3670    1.2300  -15.1160 C.ar      1 G4N        -0.0139
      7 CBH        -4.0230    0.8500  -15.1240 C.ar      1 G4N         0.0136
      8 CBI        -3.6030    0.0130  -16.1500 C.ar      1 G4N        -0.0226
      9 CBQ        -2.2780   -0.3940  -16.1920 C.ar      1 G4N         0.0721
     10 CBR        -1.8160   -1.2360  -17.2010 C.2       1 G4N         0.1943
     11 OBK        -2.5690   -1.6450  -18.0860 O.2       1 G4N        -0.3770
     12 NBN        -0.4690   -1.6220  -17.2080 N.2       1 G4N        -0.2481
     13 CBO         0.3640   -1.2010  -16.2730 C.2       1 G4N         0.0393
     14 CBJ        -0.0730   -0.3620  -15.2570 C.3       1 G4N         0.0651
     15 CBP        -1.4000    0.0460  -15.2130 C.ar      1 G4N         0.0679
     16 NBL        -1.8230    0.8550  -14.2310 N.ar      1 G4N        -0.2842
     17 CBM        -3.0970    1.2730  -14.1530 C.ar      1 G4N         0.0526
     18 CBF        -3.4310    2.1280  -13.0960 C.ar      1 G4N        -0.0053
     19 CBA        -4.0040    3.3710  -13.3600 C.ar      1 G4N        -0.0555
     20 CAR        -4.3460    4.2290  -12.3270 C.ar      1 G4N        -0.0512
     21 CAX        -3.1730    1.7650  -11.7770 C.ar      1 G4N        -0.0555
     22 CAY        -3.5090    2.6270  -10.7380 C.ar      1 G4N        -0.0512
     23 CBC        -4.0890    3.8610  -11.0150 C.ar      1 G4N         0.0049
     24 CAW        -4.4420    4.7380   -9.9960 C.3       1 G4N         0.0035
     25 NAV        -3.3430    5.0430   -9.0750 N.4       1 G4N         0.2479
     26 CAU        -2.3800    5.9420   -9.7290 C.3       1 G4N        -0.0283
     27 CAT        -1.2910    6.3860   -8.7560 C.3       1 G4N         0.0107
     28 CAO        -3.9570    5.7050   -7.9170 C.3       1 G4N        -0.0283
     29 CAP        -2.9190    6.1120   -6.9000 C.3       1 G4N         0.0107
     30 CAS        -1.9640    7.0780   -7.5700 C.3       1 G4N         0.0512
     31 NAN        -0.9780    7.5890   -6.6030 N.am      1 G4N        -0.2829
     32 CAM        -0.1000    6.8380   -5.9200 C.2       1 G4N         0.2017
     33 OAL         0.0100    5.6150   -6.0050 O.2       1 G4N        -0.3847
     34 CAK         0.7180    7.5750   -5.0730 C.ar      1 G4N         0.0363
     35 CAJ         0.5610    8.9540   -5.0080 C.ar      1 G4N        -0.0215
     36 CAC         1.6880    6.9500   -4.2990 C.ar      1 G4N        -0.0574
     37 CAD         2.4940    7.7100   -3.4590 C.ar      1 G4N        -0.0699
     38 CAH         2.3370    9.0890   -3.3940 C.ar      1 G4N        -0.0369
     39 CAI         1.3650    9.7100   -4.1670 C.ar      1 G4N         0.0717
     40 NAB         1.2000   11.0290   -4.1290 N.am      1 G4N        -0.2331
     41 CAA         1.8040   11.7120   -5.1100 C.2       1 G4N         0.2033
     42 OAE         2.4820   11.1820   -5.9830 O.2       1 G4N        -0.3849
     43 CAF         1.6230   13.2240   -5.0980 C.3       1 G4N         0.0403
     44 CAG         2.3310   13.9480   -6.2420 C.3       1 G4N        -0.0477
     45 H1         -5.3180    1.9369  -17.1415 H         1 G4N         0.0622
     46 H2         -7.6926    2.6255  -17.1430 H         1 G4N         0.0617
     47 H3         -9.0842    2.2946  -15.1297 H         1 G4N         0.0616
     48 H4         -8.1014    1.2806  -13.0952 H         1 G4N         0.0617
     49 H5         -5.7367    0.5674  -13.1037 H         1 G4N         0.0622
     50 H6         -4.3027   -0.3181  -16.9088 H         1 G4N         0.0770
     51 H7          1.4061   -1.5160  -16.2996 H         1 G4N         0.1329
     52 H8          0.5377    0.5511  -15.3151 H         1 G4N         0.0782
     53 H9          0.1311   -0.8799  -14.3083 H         1 G4N         0.0782
     54 H10        -4.1843    3.6702  -14.3862 H         1 G4N         0.0631
     55 H11        -4.8122    5.1834  -12.5435 H         1 G4N         0.0569
     56 H12        -2.7097    0.8095  -11.5593 H         1 G4N         0.0631
     57 H13        -3.3186    2.3368   -9.7111 H         1 G4N         0.0569
     58 H14        -5.2637    4.2881   -9.4195 H         1 G4N         0.0989
     59 H15        -4.7854    5.6789  -10.4508 H         1 G4N         0.0989
     60 H16        -2.8763    4.1966   -8.7891 H         1 G4N         0.2049
     61 H17        -2.9129    6.8297  -10.1005 H         1 G4N         0.0815
     62 H18        -1.9130    5.4144  -10.5737 H         1 G4N         0.0815
     63 H19        -0.6070    7.0868   -9.2570 H         1 G4N         0.0339
     64 H20        -0.7259    5.5102   -8.4045 H         1 G4N         0.0339
     65 H21        -4.6684    5.0119   -7.4443 H         1 G4N         0.0815
     66 H22        -4.4925    6.6024   -8.2603 H         1 G4N         0.0815
     67 H23        -2.3697    5.2251   -6.5512 H         1 G4N         0.0339
     68 H24        -3.4063    6.6017   -6.0440 H         1 G4N         0.0339
     69 H25        -2.5418    7.9328   -7.9513 H         1 G4N         0.0559
     70 H26        -0.9612    8.5758   -6.4421 H         1 G4N         0.1848
     71 H27        -0.1924    9.4410   -5.6165 H         1 G4N         0.0553
     72 H28         1.8157    5.8747   -4.3499 H         1 G4N         0.0539
     73 H29         3.2490    7.2241   -2.8515 H         1 G4N         0.0588
     74 H30         2.9714    9.6783   -2.7418 H         1 G4N         0.0537
     75 H31         0.6619   11.4799   -3.4169 H         1 G4N         0.2256
     76 H32         2.0183   13.6114   -4.1474 H         1 G4N         0.0505
     77 H33         0.5471   13.4433   -5.1643 H         1 G4N         0.0505
     78 H34         2.1500   15.0298   -6.1590 H         1 G4N         0.0254
     79 H35         1.9407   13.5838   -7.2038 H         1 G4N         0.0254
     80 H36         3.4119   13.7518   -6.1869 H         1 G4N         0.0254
@<TRIPOS>BOND
     1    1    2 ar 
     2    1    6 ar 
     3    2    3 ar 
     4    3    4 ar 
     5    4    5 ar 
     6    5    6 ar 
     7    6    7 1  
     8    7    8 ar 
     9    7   17 ar 
    10    8    9 ar 
    11    9   10 1  
    12    9   15 ar 
    13   10   11 2  
    14   10   12 1  
    15   12   13 2  
    16   13   14 1  
    17   14   15 1  
    18   15   16 ar 
    19   16   17 ar 
    20   17   18 1  
    21   18   19 ar 
    22   18   21 ar 
    23   19   20 ar 
    24   20   23 ar 
    25   21   22 ar 
    26   22   23 ar 
    27   23   24 1  
    28   24   25 1  
    29   25   26 1  
    30   25   28 1  
    31   26   27 1  
    32   27   30 1  
    33   28   29 1  
    34   29   30 1  
    35   30   31 1  
    36   31   32 am 
    37   32   33 2  
    38   32   34 1  
    39   34   35 ar 
    40   34   36 ar 
    41   35   39 ar 
    42   36   37 ar 
    43   37   38 ar 
    44   38   39 ar 
    45   39   40 1  
    46   40   41 am 
    47   41   42 2  
    48   41   43 1  
    49   43   44 1  
    50    1   45 1  
    51    2   46 1  
    52    3   47 1  
    53    4   48 1  
    54    5   49 1  
    55    8   50 1  
    56   13   51 1  
    57   14   52 1  
    58   14   53 1  
    59   19   54 1  
    60   20   55 1  
    61   21   56 1  
    62   22   57 1  
    63   24   58 1  
    64   24   59 1  
    65   25   60 1  
    66   26   61 1  
    67   26   62 1  
    68   27   63 1  
    69   27   64 1  
    70   28   65 1  
    71   28   66 1  
    72   29   67 1  
    73   29   68 1  
    74   30   69 1  
    75   31   70 1  
    76   35   71 1  
    77   36   72 1  
    78   37   73 1  
    79   38   74 1  
    80   40   75 1  
    81   43   76 1  
    82   43   77 1  
    83   44   78 1  
    84   44   79 1  
    85   44   80 1  
@<TRIPOS>SUBSTRUCTURE
     1 G4N         1

