### 
### Created by X-TOOL on Mon Aug  2 16:10:06 2021
### 

@<TRIPOS>MOLECULE
6hhj_ligand
   83    89     1     0     0
SMALL
GAST_HUCK


@<TRIPOS>ATOM
      1 CAR        15.8580  -11.8020   -6.9540 C.ar      1 G4H        -0.0540
      2 CAS        15.4940  -10.4620   -6.9130 C.ar      1 G4H        -0.0614
      3 CAT        15.6450   -9.6630   -8.0390 C.ar      1 G4H        -0.0619
      4 CAU        16.1600  -10.2060   -9.2110 C.ar      1 G4H        -0.0614
      5 CAV        16.5250  -11.5470   -9.2510 C.ar      1 G4H        -0.0540
      6 CBJ        16.3600  -12.3540   -8.1270 C.ar      1 G4H        -0.0139
      7 CBM        16.7260  -13.7000   -8.1220 C.ar      1 G4H         0.0136
      8 CBN        17.5680  -14.1040   -7.0920 C.ar      1 G4H        -0.0226
      9 CBS        17.9850  -15.4230   -7.0160 C.ar      1 G4H         0.0721
     10 CBQ        18.8280  -15.8440   -5.9960 C.2       1 G4H         0.1943
     11 OAN        19.2220  -15.0530   -5.1430 O.2       1 G4H        -0.3770
     12 NBT        19.2340  -17.1830   -5.9380 N.2       1 G4H        -0.2481
     13 CBR        18.8190  -18.0470   -6.8480 C.2       1 G4H         0.0393
     14 CBO        17.9720  -17.6490   -7.8810 C.3       1 G4H         0.0651
     15 CBP        17.5510  -16.3270   -7.9680 C.ar      1 G4H         0.0679
     16 NBK        16.7370  -15.9240   -8.9540 N.ar      1 G4H        -0.2842
     17 CBL        16.3130  -14.6520   -9.0680 C.ar      1 G4H         0.0526
     18 CBI        15.4590  -14.3830  -10.1390 C.ar      1 G4H        -0.0053
     19 CBH        14.1830  -13.8630   -9.9270 C.ar      1 G4H        -0.0555
     20 CBG        13.3370  -13.6180  -11.0060 C.ar      1 G4H        -0.0512
     21 CBD        15.8710  -14.6810  -11.4330 C.ar      1 G4H        -0.0555
     22 CBE        15.0250  -14.4360  -12.5130 C.ar      1 G4H        -0.0512
     23 CBF        13.7520  -13.9090  -12.3000 C.ar      1 G4H         0.0049
     24 CBC        12.8960  -13.6510  -13.3710 C.3       1 G4H         0.0035
     25 NBB        12.5990  -14.8380  -14.1880 N.4       1 G4H         0.2479
     26 CBA        11.4120  -15.5180  -13.6430 C.3       1 G4H        -0.0278
     27 CAZ        10.9860  -16.7060  -14.5040 C.3       1 G4H         0.0159
     28 CAW        12.2920  -14.3750  -15.5510 C.3       1 G4H        -0.0278
     29 CAX        11.9680  -15.5450  -16.4620 C.3       1 G4H         0.0159
     30 CAY        10.7240  -16.2330  -15.9400 C.3       1 G4H         0.0754
     31 NAQ        10.3110  -17.3330  -16.8620 N.am      1 G4H        -0.2060
     32 CAL         9.2890  -17.3150  -17.7280 C.ar      1 G4H         0.0823
     33 CAH         8.3720  -16.3810  -18.0050 C.ar      1 G4H        -0.0325
     34 CAI        10.9040  -18.5130  -17.0100 C.2       1 G4H         0.3084
     35 OAD        11.8890  -18.9120  -16.3930 O.2       1 G4H        -0.3965
     36 NAJ        10.2720  -19.2310  -17.9220 N.am      1 G4H        -0.2169
     37 CAO        10.6210  -20.5990  -18.3590 C.3       1 G4H         0.0413
     38 CAK         9.2670  -18.4910  -18.3750 C.ar      1 G4H         0.0800
     39 CAE         8.3500  -18.7700  -19.2980 C.ar      1 G4H        -0.0643
     40 CAF         7.3770  -17.8410  -19.6230 C.ar      1 G4H        -0.0678
     41 CAG         7.3880  -16.6230  -18.9640 C.ar      1 G4H         0.0386
     42 NAC         6.4470  -15.7280  -19.2720 N.am      1 G4H        -0.2453
     43 CAB         5.5640  -15.4030  -18.3150 C.2       1 G4H         0.1995
     44 OAP         5.5770  -15.8630  -17.1760 O.2       1 G4H        -0.3867
     45 CAA         4.4900  -14.4000  -18.7320 C.3       1 G4H         0.0396
     46 CAM         4.3740  -14.1580  -20.2370 C.3       1 G4H        -0.0478
     47 H1         15.7503  -12.4188   -6.0691 H         1 G4H         0.0622
     48 H2         15.0911  -10.0389   -5.9999 H         1 G4H         0.0617
     49 H3         15.3617   -8.6172   -8.0042 H         1 G4H         0.0616
     50 H4         16.2767   -9.5850  -10.0918 H         1 G4H         0.0617
     51 H5         16.9397  -11.9665  -10.1604 H         1 G4H         0.0622
     52 H6         17.8981  -13.3873   -6.3487 H         1 G4H         0.0770
     53 H7         19.1435  -19.0849   -6.7899 H         1 G4H         0.1329
     54 H8         17.0647  -18.2660   -7.8025 H         1 G4H         0.0782
     55 H9         18.4913  -17.8788   -8.8230 H         1 G4H         0.0782
     56 H10        13.8480  -13.6485   -8.9186 H         1 G4H         0.0631
     57 H11        12.3518  -13.1990  -10.8359 H         1 G4H         0.0569
     58 H12        16.8539  -15.1055  -11.6025 H         1 G4H         0.0631
     59 H13        15.3575  -14.6557  -13.5211 H         1 G4H         0.0569
     60 H14        13.3650  -12.8935  -14.0162 H         1 G4H         0.0989
     61 H15        11.9492  -13.2577  -12.9723 H         1 G4H         0.0989
     62 H16        13.3874  -15.4660  -14.1965 H         1 G4H         0.2049
     63 H17        10.5814  -14.7984  -13.5951 H         1 G4H         0.0815
     64 H18        11.6434  -15.8788  -12.6300 H         1 G4H         0.0815
     65 H19        10.0671  -17.1471  -14.0905 H         1 G4H         0.0344
     66 H20        11.7858  -17.4611  -14.5075 H         1 G4H         0.0344
     67 H21        13.1629  -13.8365  -15.9529 H         1 G4H         0.0815
     68 H22        11.4265  -13.6971  -15.5144 H         1 G4H         0.0815
     69 H23        12.8089  -16.2541  -16.4679 H         1 G4H         0.0344
     70 H24        11.7886  -15.1803  -17.4842 H         1 G4H         0.0344
     71 H25         9.9052  -15.4990  -15.9103 H         1 G4H         0.0625
     72 H26         8.3937  -15.4318  -17.4819 H         1 G4H         0.0345
     73 H27        11.5025  -20.9483  -17.8014 H         1 G4H         0.0543
     74 H28        10.8467  -20.5937  -19.4356 H         1 G4H         0.0543
     75 H29         9.7737  -21.2732  -18.1653 H         1 G4H         0.0543
     76 H30         8.3652  -19.7313  -19.7987 H         1 G4H         0.0431
     77 H31         6.6263  -18.0609  -20.3734 H         1 G4H         0.0352
     78 H32         6.4016  -15.3151  -20.1817 H         1 G4H         0.2207
     79 H33         4.7170  -13.4380  -18.2493 H         1 G4H         0.0504
     80 H34         3.5194  -14.7712  -18.3713 H         1 G4H         0.0504
     81 H35         3.5773  -13.4246  -20.4301 H         1 G4H         0.0254
     82 H36         4.1318  -15.1042  -20.7430 H         1 G4H         0.0254
     83 H37         5.3294  -13.7710  -20.6209 H         1 G4H         0.0254
@<TRIPOS>BOND
     1    1    2 ar 
     2    1    6 ar 
     3    2    3 ar 
     4    3    4 ar 
     5    4    5 ar 
     6    5    6 ar 
     7    6    7 1  
     8    7    8 ar 
     9    7   17 ar 
    10    8    9 ar 
    11    9   10 1  
    12    9   15 ar 
    13   10   11 2  
    14   10   12 1  
    15   12   13 2  
    16   13   14 1  
    17   14   15 1  
    18   15   16 ar 
    19   16   17 ar 
    20   17   18 1  
    21   18   19 ar 
    22   18   21 ar 
    23   19   20 ar 
    24   20   23 ar 
    25   21   22 ar 
    26   22   23 ar 
    27   23   24 1  
    28   24   25 1  
    29   25   26 1  
    30   25   28 1  
    31   26   27 1  
    32   27   30 1  
    33   28   29 1  
    34   29   30 1  
    35   30   31 1  
    36   31   32 1  
    37   31   34 am 
    38   32   33 ar 
    39   32   38 ar 
    40   33   41 ar 
    41   34   35 2  
    42   34   36 am 
    43   36   37 1  
    44   36   38 1  
    45   38   39 ar 
    46   39   40 ar 
    47   40   41 ar 
    48   41   42 1  
    49   42   43 am 
    50   43   44 2  
    51   43   45 1  
    52   45   46 1  
    53    1   47 1  
    54    2   48 1  
    55    3   49 1  
    56    4   50 1  
    57    5   51 1  
    58    8   52 1  
    59   13   53 1  
    60   14   54 1  
    61   14   55 1  
    62   19   56 1  
    63   20   57 1  
    64   21   58 1  
    65   22   59 1  
    66   24   60 1  
    67   24   61 1  
    68   25   62 1  
    69   26   63 1  
    70   26   64 1  
    71   27   65 1  
    72   27   66 1  
    73   28   67 1  
    74   28   68 1  
    75   29   69 1  
    76   29   70 1  
    77   30   71 1  
    78   33   72 1  
    79   37   73 1  
    80   37   74 1  
    81   37   75 1  
    82   39   76 1  
    83   40   77 1  
    84   42   78 1  
    85   45   79 1  
    86   45   80 1  
    87   46   81 1  
    88   46   82 1  
    89   46   83 1  
@<TRIPOS>SUBSTRUCTURE
     1 G4H         1

