### 
### Created by X-TOOL on Mon Aug  2 16:13:51 2021
### 

@<TRIPOS>MOLECULE
6hhr_ligand
   31    33     1     0     0
SMALL
GAST_HUCK


@<TRIPOS>ATOM
      1 C1         64.5570   32.5020   27.0680 C.ar      1 G5E         0.0805
      2 C2         63.2990   32.8280   26.5580 C.ar      1 G5E        -0.0033
      3 C3         63.2070   33.6090   25.4090 C.ar      1 G5E         0.0941
      4 C7         64.2610   34.9760   23.6210 C.2       1 G5E         0.1751
      5 C10        64.4860   36.7690   22.3550 C.2       1 G5E         0.2135
      6 C12        65.7010   36.8360   24.4810 C.ar      1 G5E         0.1367
      7 C13        67.0730   36.9160   24.2230 C.ar      1 G5E         0.1624
      8 C14        67.9280   37.5050   25.1560 C.ar      1 G5E        -0.0369
      9 C15        67.4160   38.0080   26.3520 C.ar      1 G5E        -0.0752
     10 C16        66.0500   37.9280   26.6120 C.ar      1 G5E        -0.0748
     11 C4         64.3790   34.0650   24.7770 C.ar      1 G5E         0.0459
     12 C5         65.6450   33.7490   25.3130 C.ar      1 G5E        -0.0658
     13 C6         65.7250   32.9650   26.4530 C.ar      1 G5E        -0.0426
     14 N8         63.5310   34.7800   22.5570 N.2       1 G5E        -0.1866
     15 N9         63.6780   35.8990   21.7290 N.am      1 G5E        -0.1829
     16 N11        64.8540   36.2270   23.5310 N.am      1 G5E        -0.1575
     17 C17        65.1940   37.3420   25.6800 C.ar      1 G5E        -0.0321
     18 S18        64.9770   38.2910   21.7600 S.2       1 G5E        -0.3161
     19 F19        67.5510   36.4190   23.0590 F         1 G5E        -0.1895
     20 O20        61.9880   33.9160   24.8920 O.3       1 G5E        -0.3327
     21 O21        64.6490   31.7490   28.1880 O.3       1 G5E        -0.3349
     22 H1         62.4010   32.4759   27.0526 H         1 G5E         0.0464
     23 H2         68.9904   37.5715   24.9510 H         1 G5E         0.0572
     24 H3         68.0808   38.4609   27.0787 H         1 G5E         0.0509
     25 H4         65.6517   38.3218   27.5401 H         1 G5E         0.0553
     26 H5         66.5473   34.1161   24.8374 H         1 G5E         0.0567
     27 H6         66.6933   32.7104   26.8684 H         1 G5E         0.0461
     28 H7         63.2563   36.0273   20.8314 H         1 G5E         0.2583
     29 H8         64.1318   37.2790   25.8868 H         1 G5E         0.0533
     30 H9         61.3093   33.5337   25.4357 H         1 G5E         0.2497
     31 H10        63.7770   31.5143   28.4830 H         1 G5E         0.2487
@<TRIPOS>BOND
     1    2    1 ar 
     2    1   13 ar 
     3    1   21 1  
     4    3    2 ar 
     5   11    3 ar 
     6    3   20 1  
     7    4   11 1  
     8    4   14 2  
     9   16    4 1  
    10    5   15 am 
    11   16    5 am 
    12    5   18 2  
    13    6    7 ar 
    14    6   16 1  
    15    6   17 ar 
    16    7    8 ar 
    17    7   19 1  
    18    8    9 ar 
    19    9   10 ar 
    20   10   17 ar 
    21   11   12 ar 
    22   12   13 ar 
    23   14   15 1  
    24    2   22 1  
    25    8   23 1  
    26    9   24 1  
    27   10   25 1  
    28   12   26 1  
    29   13   27 1  
    30   15   28 1  
    31   17   29 1  
    32   20   30 1  
    33   21   31 1  
@<TRIPOS>SUBSTRUCTURE
     1 G5E         1

