### 
### Created by X-TOOL on Wed Jan  1 15:39:37 2020
### 

@<TRIPOS>MOLECULE
6hjj_ligand
   62    65     1     0     0
SMALL
GAST_HUCK


@<TRIPOS>ATOM
      1 C10         7.6800  -28.4880   -7.4910 C.ar      1 G7T        -0.0486
      2 C13         7.9270  -26.9900   -9.3560 C.ar      1 G7T         0.0619
      3 C15         9.6020  -25.1530   -9.5380 C.2       1 G7T         0.2069
      4 C17        10.8250  -23.1160   -9.7250 C.3       1 G7T         0.0400
      5 C20        13.8950  -20.8730   -9.1520 C.ar      1 G7T        -0.0137
      6 C21        14.2210  -19.6120   -8.6810 C.ar      1 G7T         0.0883
      7 C22        15.6480  -19.0380   -8.9730 C.3       1 G7T         0.3767
      8 C26        13.3010  -18.8840   -7.9650 C.ar      1 G7T         0.1742
      9 C28        12.0340  -19.4040   -7.7080 C.ar      1 G7T         0.0083
     10 N01         4.1600  -30.4060   -9.7890 N.pl3     1 G7T        -0.3126
     11 C02         3.7430  -30.8530   -8.4670 C.ar      1 G7T         0.1267
     12 N03         2.7490  -31.7930   -8.3920 N.ar      1 G7T        -0.2660
     13 C04         2.3300  -32.2410   -7.1860 C.ar      1 G7T         0.0562
     14 N05         2.8620  -31.7980   -6.0310 N.ar      1 G7T        -0.2681
     15 C06         3.8470  -30.8580   -5.9930 C.ar      1 G7T         0.1610
     16 C07         4.3370  -30.3400   -7.2660 C.ar      1 G7T         0.0833
     17 C08         5.3600  -29.4110   -6.8670 C.2       1 G7T         0.0577
     18 C09         6.2730  -28.5430   -7.7510 C.ar      1 G7T        -0.0191
     19 C11         8.3470  -29.2580   -6.3520 C.3       1 G7T        -0.0328
     20 C12         8.4850  -27.7230   -8.2820 C.ar      1 G7T        -0.0380
     21 N14         8.8100  -26.1640  -10.1880 N.am      1 G7T        -0.2338
     22 C16        10.5410  -24.2650  -10.3290 C.3       1 G7T         0.0586
     23 C18        12.2960  -22.7980   -9.4410 C.2       1 G7T         0.1395
     24 C19        12.6500  -21.3840   -8.9010 C.ar      1 G7T         0.0578
     25 F23        15.8950  -18.0480   -8.1410 F         1 G7T        -0.2235
     26 F24        15.6860  -18.6010  -10.2220 F         1 G7T        -0.2235
     27 F25        16.5300  -19.9880   -8.8020 F         1 G7T        -0.2235
     28 F27        13.6190  -17.6860   -7.5200 F         1 G7T        -0.1514
     29 C29        11.7050  -20.6480   -8.1750 C.ar      1 G7T        -0.0176
     30 O30        13.1480  -23.5980   -9.6280 O.2       1 G7T        -0.3792
     31 O31         9.5350  -24.9920   -8.3150 O.2       1 G7T        -0.3840
     32 C32         6.5700  -27.0370   -9.6040 C.ar      1 G7T        -0.0455
     33 C33         5.7380  -27.8260   -8.7940 C.ar      1 G7T        -0.0713
     34 N34         5.4330  -29.4040   -5.4910 N.2       1 G7T        -0.2057
     35 N35         4.5410  -30.2570   -4.9910 N.pl3     1 G7T        -0.1864
     36 C36         4.4570  -30.4280   -3.5360 C.3       1 G7T         0.0738
     37 C37         3.9480  -31.7930   -3.0870 C.3       1 G7T        -0.0341
     38 C38         3.6760  -29.2520   -2.9770 C.3       1 G7T        -0.0341
     39 H1         10.2977  -23.1147   -8.7596 H         1 G7T         0.0510
     40 H2         10.4319  -22.3073  -10.3586 H         1 G7T         0.0510
     41 H3         14.6196  -21.4505   -9.7147 H         1 G7T         0.0897
     42 H4         11.3127  -18.8264   -7.1412 H         1 G7T         0.0694
     43 H5          4.9045  -29.7004   -9.8830 H         1 G7T         0.1842
     44 H6          3.7104  -30.7955  -10.6299 H         1 G7T         0.1842
     45 H7          1.5393  -32.9816   -7.1483 H         1 G7T         0.1029
     46 H8          9.4282  -29.0556   -6.3565 H         1 G7T         0.0395
     47 H9          8.1752  -30.3359   -6.4881 H         1 G7T         0.0395
     48 H10         7.9178  -28.9367   -5.3915 H         1 G7T         0.0395
     49 H11         9.5506  -27.6764   -8.0885 H         1 G7T         0.0443
     50 H12         8.8599  -26.2996  -11.1775 H         1 G7T         0.2272
     51 H13        10.0727  -24.0410  -11.2988 H         1 G7T         0.0532
     52 H14        11.4808  -24.8125  -10.4933 H         1 G7T         0.0532
     53 H15        10.7207  -21.0603   -7.9844 H         1 G7T         0.0890
     54 H16         6.1475  -26.4658  -10.4227 H         1 G7T         0.0459
     55 H17         4.6730  -27.8696   -8.9914 H         1 G7T         0.0571
     56 H18         5.4816  -30.3491   -3.1437 H         1 G7T         0.0652
     57 H19         3.9185  -31.8300   -1.9880 H         1 G7T         0.0259
     58 H20         4.6219  -32.5772   -3.4622 H         1 G7T         0.0259
     59 H21         2.9363  -31.9567   -3.4866 H         1 G7T         0.0259
     60 H22         3.5955  -29.3514   -1.8845 H         1 G7T         0.0259
     61 H23         2.6688  -29.2373   -3.4190 H         1 G7T         0.0259
     62 H24         4.1979  -28.3153   -3.2224 H         1 G7T         0.0259
@<TRIPOS>BOND
     1    1   18 ar 
     2    1   19 1  
     3   20    1 ar 
     4    2   20 ar 
     5   21    2 1  
     6    2   32 ar 
     7    3   21 am 
     8   22    3 1  
     9    3   31 2  
    10    4   22 1  
    11   23    4 1  
    12    5    6 ar 
    13   24    5 ar 
    14    6    7 1  
    15    6    8 ar 
    16    7   25 1  
    17    7   26 1  
    18    7   27 1  
    19    8    9 ar 
    20    8   28 1  
    21    9   29 ar 
    22   11   10 1  
    23   11   12 ar 
    24   16   11 ar 
    25   12   13 ar 
    26   14   13 ar 
    27   15   14 ar 
    28   16   15 ar 
    29   15   35 1  
    30   17   16 1  
    31   18   17 1  
    32   17   34 2  
    33   18   33 ar 
    34   23   24 1  
    35   23   30 2  
    36   24   29 ar 
    37   32   33 ar 
    38   34   35 1  
    39   35   36 1  
    40   36   37 1  
    41   36   38 1  
    42    4   39 1  
    43    4   40 1  
    44    5   41 1  
    45    9   42 1  
    46   10   43 1  
    47   10   44 1  
    48   13   45 1  
    49   19   46 1  
    50   19   47 1  
    51   19   48 1  
    52   20   49 1  
    53   21   50 1  
    54   22   51 1  
    55   22   52 1  
    56   29   53 1  
    57   32   54 1  
    58   33   55 1  
    59   36   56 1  
    60   37   57 1  
    61   37   58 1  
    62   37   59 1  
    63   38   60 1  
    64   38   61 1  
    65   38   62 1  
@<TRIPOS>SUBSTRUCTURE
     1 G7T         1

