### 
### Created by X-TOOL on Wed Jan  1 15:39:38 2020
### 

@<TRIPOS>MOLECULE
6hjk_ligand
   57    60     1     0     0
SMALL
GAST_HUCK


@<TRIPOS>ATOM
      1 C13       -28.4210   -8.5200   -6.3200 C.ar      1 G7W        -0.0658
      2 C15       -30.0480   -8.7680   -8.2450 C.2       1 G7W         0.0620
      3 C20       -33.8930  -10.4890   -9.5550 C.3       1 G7W        -0.0339
      4 C21       -31.8560   -8.2450   -9.5450 C.ar      1 G7W         0.1620
      5 C28       -27.6030   -9.2910   -8.4180 C.ar      1 G7W        -0.0658
      6 F01       -19.6620  -12.1990    2.5680 F         1 G7W        -0.1515
      7 C02       -20.0410  -11.7250    1.3680 C.ar      1 G7W         0.1741
      8 C03       -19.1030  -11.1390    0.5330 C.ar      1 G7W         0.0081
      9 C04       -19.5040  -10.6520   -0.7120 C.ar      1 G7W        -0.0179
     10 C05       -20.8540  -10.7500   -1.1240 C.ar      1 G7W         0.0601
     11 C06       -21.2510  -10.2010   -2.4860 C.2       1 G7W         0.1659
     12 C07       -22.7360   -9.9690   -2.8790 C.2       1 G7W         0.0178
     13 C08       -23.0190   -9.6010   -4.1650 C.2       1 G7W         0.0383
     14 C09       -24.4840   -9.5430   -4.6580 C.2       1 G7W         0.2352
     15 N10       -24.7540   -9.1230   -6.0120 N.am      1 G7W        -0.2309
     16 C11       -26.0830   -9.0400   -6.5550 C.ar      1 G7W         0.0685
     17 C12       -27.1500   -8.6070   -5.7860 C.ar      1 G7W        -0.0390
     18 C14       -28.6530   -8.8610   -7.6540 C.ar      1 G7W        -0.0216
     19 N16       -31.1480   -9.4080   -7.7690 N.2       1 G7W        -0.2013
     20 N17       -32.2030   -9.0890   -8.5510 N.pl3     1 G7W        -0.1843
     21 C18       -33.5610   -9.5870   -8.3780 C.3       1 G7W         0.0745
     22 C19       -33.7090  -10.2770   -7.0230 C.3       1 G7W        -0.0339
     23 N22       -32.5630   -7.6490  -10.5730 N.ar      1 G7W        -0.2679
     24 C23       -31.9600   -6.8470  -11.4360 C.ar      1 G7W         0.0563
     25 N24       -30.6480   -6.5700  -11.3430 N.ar      1 G7W        -0.2658
     26 C25       -29.8820   -7.1060  -10.3660 C.ar      1 G7W         0.1270
     27 N26       -28.4970   -6.7650  -10.3170 N.pl3     1 G7W        -0.3126
     28 C27       -30.4610   -7.9820   -9.4060 C.ar      1 G7W         0.0847
     29 C29       -26.3130   -9.3780   -7.8740 C.ar      1 G7W        -0.0390
     30 O30       -25.3660   -9.8610   -3.9020 O.2       1 G7W        -0.3689
     31 O31       -20.3670   -9.9230   -3.2930 O.2       1 G7W        -0.3652
     32 C32       -21.8050  -11.3410   -0.2780 C.ar      1 G7W        -0.0141
     33 C33       -21.3980  -11.8290    0.9500 C.ar      1 G7W         0.0881
     34 C34       -22.4150  -12.4630    1.8840 C.3       1 G7W         0.3766
     35 F35       -21.8630  -13.4730    2.5500 F         1 G7W        -0.2235
     36 F36       -23.4870  -12.8960    1.1750 F         1 G7W        -0.2235
     37 F37       -22.7780  -11.5060    2.7300 F         1 G7W        -0.2235
     38 H1        -29.2439   -8.1847   -5.6992 H         1 G7W         0.0587
     39 H2        -34.9165  -10.8761   -9.4430 H         1 G7W         0.0259
     40 H3        -33.1842  -11.3297   -9.5841 H         1 G7W         0.0259
     41 H4        -33.8187   -9.9142  -10.4899 H         1 G7W         0.0259
     42 H5        -27.7693   -9.5670   -9.4530 H         1 G7W         0.0587
     43 H6        -18.0676  -11.0596    0.8439 H         1 G7W         0.0694
     44 H7        -18.7740  -10.1942   -1.3697 H         1 G7W         0.0888
     45 H8        -23.5326  -10.0965   -2.1475 H         1 G7W         0.0811
     46 H9        -22.2082   -9.3472   -4.8463 H         1 G7W         0.0836
     47 H10       -23.9822   -8.8787   -6.5991 H         1 G7W         0.2270
     48 H11       -26.9856   -8.3324   -4.7503 H         1 G7W         0.0511
     49 H12       -34.2544   -8.7333   -8.3955 H         1 G7W         0.0653
     50 H13       -33.4540   -9.5686   -6.2210 H         1 G7W         0.0259
     51 H14       -33.0320  -11.1427   -6.9764 H         1 G7W         0.0259
     52 H15       -34.7476  -10.6164   -6.8958 H         1 G7W         0.0259
     53 H16       -32.5385   -6.4025  -12.2377 H         1 G7W         0.1030
     54 H17       -27.8947   -7.1615   -9.5815 H         1 G7W         0.1842
     55 H18       -28.0997   -6.1224  -11.0171 H         1 G7W         0.1842
     56 H19       -25.4897   -9.7134   -8.4943 H         1 G7W         0.0511
     57 H20       -22.8428  -11.4138   -0.5826 H         1 G7W         0.0894
@<TRIPOS>BOND
     1    1   17 ar 
     2   18    1 ar 
     3    2   18 1  
     4   19    2 2  
     5    2   28 1  
     6   21    3 1  
     7   20    4 1  
     8    4   23 ar 
     9    4   28 ar 
    10   18    5 ar 
    11    5   29 ar 
    12    7    6 1  
    13    8    7 ar 
    14    7   33 ar 
    15    9    8 ar 
    16   10    9 ar 
    17   11   10 1  
    18   10   32 ar 
    19   12   11 1  
    20   11   31 2  
    21   13   12 2  
    22   14   13 1  
    23   15   14 am 
    24   14   30 2  
    25   16   15 1  
    26   17   16 ar 
    27   29   16 ar 
    28   20   19 1  
    29   20   21 1  
    30   21   22 1  
    31   23   24 ar 
    32   24   25 ar 
    33   25   26 ar 
    34   26   27 1  
    35   26   28 ar 
    36   32   33 ar 
    37   33   34 1  
    38   34   35 1  
    39   34   36 1  
    40   34   37 1  
    41    1   38 1  
    42    3   39 1  
    43    3   40 1  
    44    3   41 1  
    45    5   42 1  
    46    8   43 1  
    47    9   44 1  
    48   12   45 1  
    49   13   46 1  
    50   15   47 1  
    51   17   48 1  
    52   21   49 1  
    53   22   50 1  
    54   22   51 1  
    55   22   52 1  
    56   24   53 1  
    57   27   54 1  
    58   27   55 1  
    59   29   56 1  
    60   32   57 1  
@<TRIPOS>SUBSTRUCTURE
     1 G7W         1

