### 
### Created by X-TOOL on Mon Aug  2 16:13:52 2021
### 

@<TRIPOS>MOLECULE
6hk3_ligand
   61    64     1     0     0
SMALL
GAST_HUCK


@<TRIPOS>ATOM
      1 C1          7.0970   13.7000  -39.0520 C.3       1 G8B        -0.0146
      2 N2          5.9150   14.5350  -37.0770 N.am      1 G8B        -0.2239
      3 C3          8.3650   14.2300  -37.0460 C.3       1 G8B        -0.0146
      4 C4          7.0950   14.2630  -36.2310 C.3       1 G8B         0.0698
      5 C5          3.9870   13.1100  -35.5450 C.ar      1 G8B         0.1090
      6 C6          4.4640   12.6430  -34.3200 C.ar      1 G8B        -0.0338
      7 C8          3.0600   10.6990  -34.5190 C.ar      1 G8B        -0.0003
      8 C9          2.5950   11.2010  -35.7270 C.ar      1 G8B        -0.0503
      9 C10         3.0460   12.3900  -36.2510 C.ar      1 G8B        -0.0338
     10 C11         2.5320    9.4200  -34.0270 C.ar      1 G8B         0.0738
     11 C12         2.0980    8.3570  -34.8420 C.ar      1 G8B         0.0379
     12 C13         1.5430    7.0940  -32.9710 C.ar      1 G8B         0.1615
     13 C14         1.9930    8.1880  -32.1640 C.ar      1 G8B         0.1745
     14 C15         1.9660    8.1940  -30.6930 C.2       1 G8B         0.2492
     15 C16         2.6640    9.5710  -28.7900 C.ar      1 G8B         0.0963
     16 C17         3.3750   10.7410  -28.4500 C.ar      1 G8B         0.1123
     17 C18         3.4860   11.1200  -27.1240 C.ar      1 G8B        -0.0460
     18 C19         2.8880   10.3610  -26.1480 C.ar      1 G8B        -0.0861
     19 C2          9.5150   13.1630  -38.9340 C.3       1 G8B        -0.0430
     20 C20         2.1910    9.2290  -26.4690 C.ar      1 G8B        -0.0867
     21 C21         2.0700    8.8310  -27.7800 C.ar      1 G8B        -0.0491
     22 C22         5.7890   13.7460  -38.3080 C.3       1 G8B         0.0698
     23 C23         4.6340   12.6150  -29.2230 C.3       1 G8B         0.0562
     24 C7          4.0040   11.4380  -33.8040 C.ar      1 G8B        -0.0503
     25 N1          8.2330   13.2810  -38.1820 N.4       1 G8B         0.2354
     26 N3          1.6070    7.2110  -34.3280 N.ar      1 G8B        -0.2533
     27 N4          2.4720    9.3140  -32.6890 N.ar      1 G8B        -0.2602
     28 N5          2.5660    9.2660  -30.1680 N.am      1 G8B        -0.2347
     29 N6          1.0570    5.9800  -32.3980 N.pl3     1 G8B        -0.3112
     30 O1          3.5330   15.0510  -37.1510 O.2       1 G8B        -0.1500
     31 O2          4.9360   15.3960  -35.0460 O.2       1 G8B        -0.1500
     32 O3          1.4380    7.2700  -30.0980 O.2       1 G8B        -0.3725
     33 O4          3.9160   11.4110  -29.5030 O.3       1 G8B        -0.3274
     34 S1          4.5480   14.6600  -36.2130 S.o2      1 G8B         0.0712
     35 H1          7.3104   14.7018  -39.4530 H         1 G8B         0.0830
     36 H2          7.0058   12.9844  -39.8824 H         1 G8B         0.0830
     37 H3          9.1988   13.9108  -36.4034 H         1 G8B         0.0830
     38 H4          8.5691   15.2372  -37.4383 H         1 G8B         0.0830
     39 H5          6.9629   13.2897  -35.7358 H         1 G8B         0.0531
     40 H6          7.1791   15.0531  -35.4703 H         1 G8B         0.0531
     41 H7          5.1960   13.2223  -33.7690 H         1 G8B         0.0639
     42 H8          1.8505   10.6362  -36.2764 H         1 G8B         0.0630
     43 H9          2.6693   12.7540  -37.2000 H         1 G8B         0.0639
     44 H10         2.1607    8.4634  -35.9189 H         1 G8B         0.0922
     45 H11         4.0420   12.0113  -26.8568 H         1 G8B         0.0495
     46 H12         2.9695   10.6630  -25.1101 H         1 G8B         0.0460
     47 H13         9.3877   12.4558  -39.7669 H         1 G8B         0.0778
     48 H14        10.3033   12.7972  -38.2597 H         1 G8B         0.0778
     49 H15         9.7997   14.1488  -39.3303 H         1 G8B         0.0778
     50 H16         1.7301    8.6406  -25.6838 H         1 G8B         0.0484
     51 H17         1.5086    7.9363  -28.0238 H         1 G8B         0.0467
     52 H18         5.4854   12.7209  -38.0493 H         1 G8B         0.0531
     53 H19         5.0239   14.2035  -38.9524 H         1 G8B         0.0531
     54 H20         5.0114   13.0439  -30.1630 H         1 G8B         0.0572
     55 H21         5.4800   12.3909  -28.5566 H         1 G8B         0.0572
     56 H22         3.9632   13.3367  -28.7341 H         1 G8B         0.0572
     57 H23         4.3755   11.0742  -32.8528 H         1 G8B         0.0630
     58 H24         8.0158   12.3709  -37.8071 H         1 G8B         0.2032
     59 H25         2.9839    9.9116  -30.8072 H         1 G8B         0.2220
     60 H26         0.7352    5.1972  -32.9851 H         1 G8B         0.1819
     61 H27         1.0062    5.9088  -31.3717 H         1 G8B         0.1819
@<TRIPOS>BOND
     1   22    1 1  
     2    1   25 1  
     3    2    4 1  
     4    2   22 1  
     5   34    2 am 
     6    4    3 1  
     7    3   25 1  
     8    6    5 ar 
     9    9    5 ar 
    10    5   34 1  
    11   24    6 ar 
    12    7    8 ar 
    13   10    7 1  
    14    7   24 ar 
    15    8    9 ar 
    16   10   11 ar 
    17   27   10 ar 
    18   26   11 ar 
    19   13   12 ar 
    20   12   26 ar 
    21   12   29 1  
    22   14   13 1  
    23   13   27 ar 
    24   28   14 am 
    25   14   32 2  
    26   15   16 ar 
    27   15   21 ar 
    28   15   28 1  
    29   16   17 ar 
    30   16   33 1  
    31   17   18 ar 
    32   18   20 ar 
    33   25   19 1  
    34   20   21 ar 
    35   33   23 1  
    36   34   30 2  
    37   34   31 2  
    38    1   35 1  
    39    1   36 1  
    40    3   37 1  
    41    3   38 1  
    42    4   39 1  
    43    4   40 1  
    44    6   41 1  
    45    8   42 1  
    46    9   43 1  
    47   11   44 1  
    48   17   45 1  
    49   18   46 1  
    50   19   47 1  
    51   19   48 1  
    52   19   49 1  
    53   20   50 1  
    54   21   51 1  
    55   22   52 1  
    56   22   53 1  
    57   23   54 1  
    58   23   55 1  
    59   23   56 1  
    60   24   57 1  
    61   25   58 1  
    62   28   59 1  
    63   29   60 1  
    64   29   61 1  
@<TRIPOS>SUBSTRUCTURE
     1 G8B         1

