### 
### Created by X-TOOL on Mon Aug  2 16:13:52 2021
### 

@<TRIPOS>MOLECULE
6hk4_ligand
   51    54     1     0     0
SMALL
GAST_HUCK


@<TRIPOS>ATOM
      1 C1        -17.1300    0.5750  -11.1170 C.3       1 G8E         0.0647
      2 C10       -12.6690    3.2350   -6.1590 C.ar      1 G8E         0.0738
      3 C11       -12.2380    4.3220   -6.9360 C.ar      1 G8E         0.0379
      4 C12       -11.7710    5.4820   -4.9990 C.ar      1 G8E         0.1616
      5 C13       -12.2060    4.3960   -4.2400 C.ar      1 G8E         0.1756
      6 C14       -12.1970    4.3700   -2.7260 C.2       1 G8E         0.2541
      7 C15       -12.7840    2.8300   -0.7530 C.ar      1 G8E         0.0941
      8 C16       -12.3780    3.7460    0.1570 C.ar      1 G8E        -0.0215
      9 C17       -12.4610    3.4660    1.4670 C.ar      1 G8E        -0.0479
     10 C18       -12.9740    2.2530    1.8890 C.ar      1 G8E        -0.0050
     11 C19       -13.3000    1.6260   -0.3280 C.ar      1 G8E         0.0313
     12 C2        -18.3630   -0.9740   -9.8350 C.3       1 G8E         0.0647
     13 C20       -15.8990   -0.1290  -10.5200 C.3       1 G8E         0.0531
     14 C3        -17.0250   -1.1960   -9.1280 C.3       1 G8E         0.0531
     15 C4        -14.1590   -0.1850   -8.2390 C.ar      1 G8E         0.1090
     16 C5        -14.5860    0.0450   -6.9250 C.ar      1 G8E        -0.0338
     17 C6        -14.0970    1.1450   -6.2360 C.ar      1 G8E        -0.0503
     18 C7        -13.1990    2.0000   -6.8680 C.ar      1 G8E        -0.0003
     19 C8        -12.7970    1.7650   -8.1690 C.ar      1 G8E        -0.0503
     20 C9        -13.2580    0.6610   -8.8750 C.ar      1 G8E        -0.0338
     21 N1        -16.0660   -1.2140   -9.9200 N.am      1 G8E        -0.2296
     22 N2        -11.7790    5.4230   -6.3400 N.ar      1 G8E        -0.2533
     23 N3        -12.6590    3.3040   -4.8230 N.ar      1 G8E        -0.2600
     24 N4        -12.7020    3.1010   -2.1730 N.am      1 G8E        -0.2251
     25 N5        -13.3990    1.3500    0.9930 N.ar      1 G8E        -0.3127
     26 N6        -11.2740    6.6540   -4.3440 N.pl3     1 G8E        -0.3111
     27 O1        -18.3780    0.1930  -10.6080 O.3       1 G8E        -0.3766
     28 O2        -13.6630   -2.0380  -10.2620 O.2       1 G8E        -0.1500
     29 O3        -15.2230   -2.7910   -8.1030 O.2       1 G8E        -0.1500
     30 O4        -11.7790    5.2950   -2.0910 O.2       1 G8E        -0.3700
     31 S1        -14.7910   -1.6060   -9.1490 S.o2      1 G8E         0.0710
     32 H1        -17.1359    0.3770  -12.1990 H         1 G8E         0.0576
     33 H2        -17.0145    1.6549  -10.9424 H         1 G8E         0.0576
     34 H3        -12.2783    4.2664   -8.0178 H         1 G8E         0.0922
     35 H4        -11.9872    4.7024   -0.1711 H         1 G8E         0.0622
     36 H5        -12.1247    4.1934    2.1970 H         1 G8E         0.0667
     37 H6        -13.0329    2.0311    2.9484 H         1 G8E         0.0691
     38 H7        -13.6292    0.8942   -1.0568 H         1 G8E         0.0711
     39 H8        -19.1551   -0.9030   -9.0751 H         1 G8E         0.0576
     40 H9        -18.5610   -1.8338  -10.4919 H         1 G8E         0.0576
     41 H10       -15.4394    0.5700   -9.8057 H         1 G8E         0.0501
     42 H11       -15.2002   -0.3196  -11.3479 H         1 G8E         0.0501
     43 H12       -17.0620   -2.1584   -8.5966 H         1 G8E         0.0501
     44 H13       -16.8693   -0.3829   -8.4037 H         1 G8E         0.0501
     45 H14       -15.2908   -0.6291   -6.4518 H         1 G8E         0.0639
     46 H15       -14.4109    1.3367   -5.2163 H         1 G8E         0.0630
     47 H16       -12.1101    2.4540   -8.6469 H         1 G8E         0.0630
     48 H17       -12.9261    0.4658   -9.8883 H         1 G8E         0.0639
     49 H18       -13.0031    2.3915   -2.8102 H         1 G8E         0.2279
     50 H19       -10.9519    7.4580   -4.9014 H         1 G8E         0.1819
     51 H20       -11.2386    6.6932   -3.3154 H         1 G8E         0.1819
@<TRIPOS>BOND
     1   13    1 1  
     2    1   27 1  
     3    2    3 ar 
     4   18    2 1  
     5    2   23 ar 
     6    3   22 ar 
     7    5    4 ar 
     8   22    4 ar 
     9    4   26 1  
    10    5    6 1  
    11   23    5 ar 
    12    6   24 am 
    13    6   30 2  
    14    7    8 ar 
    15    7   11 ar 
    16   24    7 1  
    17    8    9 ar 
    18    9   10 ar 
    19   25   10 ar 
    20   11   25 ar 
    21   14   12 1  
    22   12   27 1  
    23   21   13 1  
    24   21   14 1  
    25   15   16 ar 
    26   15   20 ar 
    27   31   15 1  
    28   16   17 ar 
    29   17   18 ar 
    30   19   18 ar 
    31   20   19 ar 
    32   21   31 am 
    33   31   28 2  
    34   31   29 2  
    35    1   32 1  
    36    1   33 1  
    37    3   34 1  
    38    8   35 1  
    39    9   36 1  
    40   10   37 1  
    41   11   38 1  
    42   12   39 1  
    43   12   40 1  
    44   13   41 1  
    45   13   42 1  
    46   14   43 1  
    47   14   44 1  
    48   16   45 1  
    49   17   46 1  
    50   19   47 1  
    51   20   48 1  
    52   24   49 1  
    53   26   50 1  
    54   26   51 1  
@<TRIPOS>SUBSTRUCTURE
     1 G8E         1

