### 
### Created by X-TOOL on Mon Aug  2 16:13:52 2021
### 

@<TRIPOS>MOLECULE
6hk6_ligand
   34    36     1     0     0
SMALL
GAST_HUCK


@<TRIPOS>ATOM
      1 C4        -71.9080  -17.9370   86.4020 C.ar      1 G8H        -0.0504
      2 C14       -70.2010  -24.8780   79.0350 C.ar      1 G8H        -0.0566
      3 C5        -72.4210  -19.2050   86.4690 C.ar      1 G8H        -0.0071
      4 C6        -73.1850  -19.8360   81.8110 C.2       1 G8H         0.2194
      5 C11       -71.1030  -23.8880   79.5110 C.ar      1 G8H        -0.0220
      6 C7        -73.8370  -20.8530   80.9160 C.3       1 G8H         0.0774
      7 C8        -72.8620  -21.8890   80.4210 C.ar      1 G8H        -0.0229
      8 C9        -72.8180  -23.1570   81.0350 C.ar      1 G8H        -0.0544
      9 C10       -71.9630  -24.1250   80.6020 C.ar      1 G8H        -0.0565
     10 C12       -71.1370  -22.6190   78.8760 C.ar      1 G8H        -0.0254
     11 C13       -72.0390  -21.6380   79.3520 C.ar      1 G8H        -0.0524
     12 N1        -72.8500  -19.8990   85.4000 N.ar      1 G8H        -0.2850
     13 N2        -73.2170  -20.1070   83.1460 N.am      1 G8H        -0.2163
     14 C3        -71.8180  -17.3390   85.1630 C.ar      1 G8H        -0.0563
     15 C1        -72.7650  -19.3010   84.2050 C.ar      1 G8H         0.1391
     16 C2        -72.2490  -18.0130   84.0420 C.ar      1 G8H        -0.0131
     17 O1        -72.7050  -18.8250   81.3280 O.2       1 G8H        -0.3797
     18 C15       -69.3820  -24.6140   77.9820 C.ar      1 G8H        -0.0633
     19 C16       -69.4190  -23.3550   77.3470 C.ar      1 G8H        -0.0636
     20 C17       -70.2710  -22.3850   77.7800 C.ar      1 G8H        -0.0576
     21 H1        -71.5823  -17.4188   87.2967 H         1 G8H         0.0578
     22 H2        -70.1657  -25.8496   79.5144 H         1 G8H         0.0619
     23 H3        -72.4851  -19.6777   87.4424 H         1 G8H         0.0774
     24 H4        -74.2718  -20.3340   80.0491 H         1 G8H         0.0667
     25 H5        -74.6353  -21.3591   81.4787 H         1 G8H         0.0667
     26 H6        -73.4782  -23.3662   81.8690 H         1 G8H         0.0589
     27 H7        -71.9439  -25.0869   81.1014 H         1 G8H         0.0620
     28 H8        -72.0806  -20.6712   78.8635 H         1 G8H         0.0536
     29 H9        -73.6111  -20.9890   83.4044 H         1 G8H         0.2313
     30 H10       -71.4085  -16.3395   85.0713 H         1 G8H         0.0691
     31 H11       -72.1895  -17.5568   83.0605 H         1 G8H         0.0598
     32 H12       -68.6965  -25.3757   77.6285 H         1 G8H         0.0599
     33 H13       -68.7632  -23.1578   76.5067 H         1 G8H         0.0612
     34 H14       -70.2866  -21.4231   77.2803 H         1 G8H         0.0604
@<TRIPOS>BOND
     1    3    1 ar 
     2    1   14 ar 
     3    5    2 ar 
     4    2   18 ar 
     5   12    3 ar 
     6    4    6 1  
     7   13    4 am 
     8    4   17 2  
     9    9    5 ar 
    10   10    5 ar 
    11    6    7 1  
    12    7    8 ar 
    13    7   11 ar 
    14    8    9 ar 
    15   11   10 ar 
    16   10   20 ar 
    17   15   12 ar 
    18   13   15 1  
    19   14   16 ar 
    20   15   16 ar 
    21   18   19 ar 
    22   19   20 ar 
    23    1   21 1  
    24    2   22 1  
    25    3   23 1  
    26    6   24 1  
    27    6   25 1  
    28    8   26 1  
    29    9   27 1  
    30   11   28 1  
    31   13   29 1  
    32   14   30 1  
    33   16   31 1  
    34   18   32 1  
    35   19   33 1  
    36   20   34 1  
@<TRIPOS>SUBSTRUCTURE
     1 G8H         1

