### 
### Created by X-TOOL on Mon Aug  2 16:13:53 2021
### 

@<TRIPOS>MOLECULE
6hk7_ligand
   55    57     1     0     0
SMALL
GAST_HUCK


@<TRIPOS>ATOM
      1 N1        -14.8810  -17.1030  -63.7340 N.2       1 G8N        -0.2538
      2 C2        -15.5180  -17.8650  -62.8310 C.3       1 G8N         0.0958
      3 N3         -9.1170  -20.0550  -56.1810 N.ar      1 G8N        -0.2533
      4 C4        -14.7040  -15.5190  -61.7940 C.3       1 G8N         0.1637
      5 N5         -7.2360  -15.5750  -56.5470 N.am      1 G8N        -0.2829
      6 C6        -13.8430  -17.5460  -57.8280 C.ar      1 G8N        -0.0338
      7 C10       -12.4870  -16.0640  -59.2130 C.ar      1 G8N        -0.0338
      8 C11       -10.1930  -18.1350  -56.9830 C.ar      1 G8N         0.0739
      9 C12       -10.2050  -19.4950  -56.6950 C.ar      1 G8N         0.0380
     10 C14        -8.0070  -17.9880  -56.2580 C.ar      1 G8N         0.1689
     11 C15        -6.8440  -17.0050  -56.1080 C.2       1 G8N         0.2247
     12 C16        -6.3210  -14.4080  -56.5070 C.3       1 G8N         0.0538
     13 C17        -5.5960  -14.4340  -55.0970 C.3       1 G8N         0.0673
     14 C18       -15.0060  -17.6410  -61.3950 C.3       1 G8N         0.0721
     15 C19        -4.4050  -12.5520  -55.7270 C.3       1 G8N         0.0365
     16 C1        -15.3040  -17.2550  -64.9840 C.3       1 G8N         0.0675
     17 C3        -14.7330  -15.8160  -63.3210 C.2       1 G8N         0.1753
     18 N2        -15.3120  -16.4010  -60.9810 N.am      1 G8N        -0.1786
     19 S1        -15.2540  -16.0740  -59.4740 S.o2      1 G8N         0.0794
     20 O1        -16.4440  -16.7970  -58.4690 O.2       1 G8N        -0.1493
     21 O2        -15.4630  -14.4570  -59.3260 O.2       1 G8N        -0.1493
     22 C5        -13.6970  -16.5600  -58.7900 C.ar      1 G8N         0.1098
     23 C7        -12.6850  -18.0490  -57.2460 C.ar      1 G8N        -0.0503
     24 C8        -11.4490  -17.5460  -57.6060 C.ar      1 G8N        -0.0002
     25 C9        -11.3120  -16.5640  -58.6210 C.ar      1 G8N        -0.0503
     26 C13        -7.9900  -19.3780  -55.9580 C.ar      1 G8N         0.1611
     27 N4         -9.1170  -17.4090  -56.7790 N.ar      1 G8N        -0.2604
     28 O3         -5.7440  -17.3780  -55.7340 O.2       1 G8N        -0.3826
     29 N6         -6.8670  -20.1880  -55.4390 N.pl3     1 G8N        -0.3112
     30 O4         -5.0670  -13.2060  -54.6640 O.3       1 G8N        -0.3810
     31 H1        -15.3702  -18.9223  -63.0961 H         1 G8N         0.0681
     32 H2        -16.5911  -17.6255  -62.8631 H         1 G8N         0.0681
     33 H3        -15.1841  -14.5416  -61.6386 H         1 G8N         0.1259
     34 H4        -13.6487  -15.4619  -61.4888 H         1 G8N         0.1259
     35 H5         -8.1674  -15.4272  -56.8797 H         1 G8N         0.1845
     36 H6        -14.8222  -17.9112  -57.5402 H         1 G8N         0.0639
     37 H7        -12.4387  -15.3048  -59.9852 H         1 G8N         0.0639
     38 H8        -11.0906  -20.0898  -56.8875 H         1 G8N         0.0922
     39 H9         -6.8933  -13.4754  -56.6201 H         1 G8N         0.0542
     40 H10        -5.5782  -14.4827  -57.3149 H         1 G8N         0.0542
     41 H11        -4.7692  -15.1572  -55.1547 H         1 G8N         0.0580
     42 H12        -6.3265  -14.7712  -54.3469 H         1 G8N         0.0580
     43 H13       -13.9140  -17.7717  -61.3742 H         1 G8N         0.0519
     44 H14       -15.4759  -18.3744  -60.7233 H         1 G8N         0.0519
     45 H15        -3.9977  -11.5941  -55.3713 H         1 G8N         0.0523
     46 H16        -5.1177  -12.3665  -56.5441 H         1 G8N         0.0523
     47 H17        -3.5842  -13.1861  -56.0933 H         1 G8N         0.0523
     48 H18       -14.7278  -16.5948  -65.6489 H         1 G8N         0.0628
     49 H19       -16.3711  -16.9951  -65.0442 H         1 G8N         0.0628
     50 H20       -15.1633  -18.3009  -65.2941 H         1 G8N         0.0628
     51 H21       -14.6366  -15.0085  -64.0452 H         1 G8N         0.2271
     52 H22       -12.7517  -18.8390  -56.5068 H         1 G8N         0.0630
     53 H23       -10.3350  -16.2106  -58.9302 H         1 G8N         0.0630
     54 H24        -5.9599  -19.7427  -55.2396 H         1 G8N         0.1819
     55 H25        -6.9919  -21.1975  -55.2769 H         1 G8N         0.1819
@<TRIPOS>BOND
     1    2    1 1  
     2    1   16 1  
     3   17    1 2  
     4   14    2 1  
     5    9    3 ar 
     6    3   26 ar 
     7    4   17 1  
     8   18    4 1  
     9   11    5 am 
    10    5   12 1  
    11    6   22 ar 
    12   23    6 ar 
    13   22    7 ar 
    14    7   25 ar 
    15    8    9 ar 
    16   24    8 1  
    17    8   27 ar 
    18   10   11 1  
    19   10   26 ar 
    20   27   10 ar 
    21   11   28 2  
    22   12   13 1  
    23   13   30 1  
    24   18   14 1  
    25   30   15 1  
    26   19   18 am 
    27   19   20 2  
    28   19   21 2  
    29   22   19 1  
    30   23   24 ar 
    31   24   25 ar 
    32   26   29 1  
    33    2   31 1  
    34    2   32 1  
    35    4   33 1  
    36    4   34 1  
    37    5   35 1  
    38    6   36 1  
    39    7   37 1  
    40    9   38 1  
    41   12   39 1  
    42   12   40 1  
    43   13   41 1  
    44   13   42 1  
    45   14   43 1  
    46   14   44 1  
    47   15   45 1  
    48   15   46 1  
    49   15   47 1  
    50   16   48 1  
    51   16   49 1  
    52   16   50 1  
    53   17   51 1  
    54   23   52 1  
    55   25   53 1  
    56   29   54 1  
    57   29   55 1  
@<TRIPOS>SUBSTRUCTURE
     1 G8N         1

