### 
### Created by X-TOOL on Wed Jan  1 15:39:36 2020
### 

@<TRIPOS>MOLECULE
6hke_ligand
   13    12     1     0     0
SMALL
GAST_HUCK


@<TRIPOS>ATOM
      1 C1          9.1170   30.9180    2.0510 C.2       1 MLT         0.0650
      2 O1          8.7240   30.1070    1.1840 O.co2     1 MLT        -0.5662
      3 O2          8.4230   31.1450    3.0680 O.co2     1 MLT        -0.5662
      4 C2         10.4220   31.6460    1.8210 C.3       1 MLT         0.1185
      5 O3         11.5620   30.8340    1.4720 O.3       1 MLT        -0.3760
      6 C3         10.8900   32.3580    3.0550 C.3       1 MLT         0.0381
      7 C4         12.1510   33.0470    2.6020 C.2       1 MLT         0.0389
      8 O4         13.0630   32.3800    2.0420 O.co2     1 MLT        -0.5688
      9 O5         12.1900   34.2810    2.7850 O.co2     1 MLT        -0.5688
     10 H1         10.2466   32.3744    1.0156 H         1 MLT         0.0782
     11 H2         12.3217   31.3916    1.3518 H         1 MLT         0.2125
     12 H3         11.1004   31.6446    3.8654 H         1 MLT         0.0474
     13 H4         10.1421   33.0894    3.3953 H         1 MLT         0.0474
@<TRIPOS>BOND
     1    1    2 ar 
     2    1    3 ar 
     3    1    4 1  
     4    4    5 1  
     5    4    6 1  
     6    6    7 1  
     7    7    8 ar 
     8    7    9 ar 
     9    4   10 1  
    10    5   11 1  
    11    6   12 1  
    12    6   13 1  
@<TRIPOS>SUBSTRUCTURE
     1 MLT         1

