### 
### Created by X-TOOL on Wed Jan  1 15:39:35 2020
### 

@<TRIPOS>MOLECULE
6hkj_ligand
   48    48     1     0     0
SMALL
GAST_HUCK


@<TRIPOS>ATOM
      1 OBA        13.8700   49.1660   40.7150 O.co2     1 G8W        -0.5690
      2 CAZ        13.9440   47.9180   40.4530 C.2       1 G8W         0.0350
      3 OBB        13.1700   47.2850   39.6600 O.co2     1 G8W        -0.5690
      4 CAY        15.1300   47.1810   41.1010 C.3       1 G8W         0.0038
      5 CAX        14.8590   45.6880   41.2680 C.3       1 G8W        -0.0066
      6 CAT        16.1820   44.8980   41.6150 C.3       1 G8W         0.0962
      7 CAU        17.1900   45.0370   40.4250 C.2       1 G8W         0.0600
      8 OAW        17.0790   44.2430   39.4360 O.co2     1 G8W        -0.5666
      9 OAV        18.0500   45.9680   40.5380 O.co2     1 G8W        -0.5666
     10 NAS        16.9020   45.4250   42.7510 N.am      1 G8W        -0.2575
     11 CAA        18.1310   44.9760   43.1380 C.2       1 G8W         0.2608
     12 OBD        18.5750   43.8890   42.7360 O.2       1 G8W        -0.4006
     13 N          18.7980   45.7720   44.0270 N.am      1 G8W        -0.2576
     14 CA         20.1170   45.4310   44.6100 C.3       1 G8W         0.0948
     15 C          20.3130   46.1320   45.9570 C.2       1 G8W         0.0599
     16 OXT        19.8640   47.3130   46.0700 O.co2     1 G8W        -0.5666
     17 O          20.9970   45.5120   46.8180 O.co2     1 G8W        -0.5666
     18 CB         21.1830   45.9200   43.5720 C.3       1 G8W        -0.0161
     19 CAL        22.4990   45.3650   44.0510 C.3       1 G8W        -0.0320
     20 CAK        23.5870   45.3400   42.9360 C.3       1 G8W         0.0433
     21 CAB        24.1250   46.7420   42.6120 C.2       1 G8W         0.2036
     22 OBC        24.2460   47.5130   43.5390 O.2       1 G8W        -0.3850
     23 NAJ        24.6120   46.9820   41.3650 N.am      1 G8W        -0.2311
     24 CAD        25.0640   48.2040   40.9860 C.ar      1 G8W         0.0868
     25 CAC        25.7220   48.3320   39.7550 C.ar      1 G8W        -0.0250
     26 CAE        26.1590   49.5830   39.3110 C.ar      1 G8W        -0.0106
     27 CAG        25.9110   50.7420   40.0870 C.ar      1 G8W         0.1961
     28 FAI        26.3380   52.0810   39.6320 F         1 G8W        -0.1664
     29 NAH        25.2540   50.6520   41.2720 N.ar      1 G8W        -0.2818
     30 CAF        24.8130   49.3870   41.7260 C.ar      1 G8W         0.0252
     31 H1         15.3211   47.6193   42.0916 H         1 G8W         0.0432
     32 H2         16.0181   47.3109   40.4651 H         1 G8W         0.0432
     33 H3         14.4417   45.2928   40.3301 H         1 G8W         0.0323
     34 H4         14.1327   45.5448   42.0816 H         1 G8W         0.0323
     35 H5         15.9290   43.8422   41.7917 H         1 G8W         0.0724
     36 H6         16.4770   46.1580   43.2821 H         1 G8W         0.1869
     37 H7         18.3711   46.6342   44.2996 H         1 G8W         0.1869
     38 H8         20.1982   44.3434   44.7531 H         1 G8W         0.0723
     39 H9         21.2168   47.0191   43.5451 H         1 G8W         0.0307
     40 H10        20.9466   45.5358   42.5688 H         1 G8W         0.0307
     41 H11        22.3377   44.3369   44.4074 H         1 G8W         0.0292
     42 H12        22.8616   45.9884   44.8816 H         1 G8W         0.0292
     43 H13        23.1480   44.9104   42.0235 H         1 G8W         0.0508
     44 H14        24.4233   44.7097   43.2724 H         1 G8W         0.0508
     45 H15        24.6379   46.2317   40.7044 H         1 G8W         0.2257
     46 H16        25.8932   47.4540   39.1427 H         1 G8W         0.0608
     47 H17        26.6896   49.6668   38.3695 H         1 G8W         0.0638
     48 H18        24.2702   49.3205   42.6620 H         1 G8W         0.0683
@<TRIPOS>BOND
     1    1    2 ar 
     2    2    3 ar 
     3    2    4 1  
     4    4    5 1  
     5    5    6 1  
     6    6    7 1  
     7    6   10 1  
     8    7    8 ar 
     9    7    9 ar 
    10   10   11 am 
    11   11   12 2  
    12   11   13 am 
    13   13   14 1  
    14   14   15 1  
    15   14   18 1  
    16   15   16 ar 
    17   15   17 ar 
    18   18   19 1  
    19   19   20 1  
    20   20   21 1  
    21   21   22 2  
    22   21   23 am 
    23   23   24 1  
    24   24   25 ar 
    25   24   30 ar 
    26   25   26 ar 
    27   26   27 ar 
    28   27   28 1  
    29   27   29 ar 
    30   29   30 ar 
    31    4   31 1  
    32    4   32 1  
    33    5   33 1  
    34    5   34 1  
    35    6   35 1  
    36   10   36 1  
    37   13   37 1  
    38   14   38 1  
    39   18   39 1  
    40   18   40 1  
    41   19   41 1  
    42   19   42 1  
    43   20   43 1  
    44   20   44 1  
    45   23   45 1  
    46   25   46 1  
    47   26   47 1  
    48   30   48 1  
@<TRIPOS>SUBSTRUCTURE
     1 G8W         1

