### 
### Created by X-TOOL on Mon Aug  2 16:13:53 2021
### 

@<TRIPOS>MOLECULE
6hkm_ligand
   55    58     1     0     0
SMALL
GAST_HUCK


@<TRIPOS>ATOM
      1 C4         -0.9030  -35.9470   -8.3020 C.ar      1 G92        -0.0504
      2 C5         -2.0490  -35.3050   -8.7010 C.ar      1 G92        -0.0266
      3 C6         -2.1970  -34.9060  -10.0260 C.ar      1 G92         0.1060
      4 C8         -3.5610  -32.9390  -10.1070 C.3       1 G92         0.5476
      5 C13        -0.0420  -35.8180  -10.5540 C.ar      1 G92        -0.0504
      6 C15         2.4560  -38.9790   -7.9810 C.3       1 G92         0.0359
      7 C17         1.5090  -41.0240   -9.1400 C.3       1 G92         0.0203
      8 C20         1.9600  -42.1050  -10.0920 C.ar      1 G92         0.0488
      9 C22         2.4300  -42.6680  -12.2920 C.ar      1 G92         0.0624
     10 C24         2.8080  -44.3140  -10.7190 C.ar      1 G92         0.0328
     11 C26         3.2280  -46.0440   -9.0840 C.ar      1 G92         0.1349
     12 C28         3.3470  -48.4850   -9.4810 C.3       1 G92         0.0604
     13 O1          2.3390  -36.2690   -8.6280 O.2       1 G92        -0.3896
     14 C2          1.3170  -36.9140   -8.7640 C.2       1 G92         0.1993
     15 C3          0.1110  -36.2120   -9.2300 C.ar      1 G92         0.0387
     16 O7         -3.3280  -34.2870  -10.4320 O.3       1 G92        -0.2218
     17 F9         -4.8670  -32.6560  -10.4730 F         1 G92        -0.1398
     18 F10        -3.4150  -32.7050   -8.7390 F         1 G92        -0.1398
     19 F11        -2.6740  -32.1640  -10.8300 F         1 G92        -0.1398
     20 C12        -1.1940  -35.1730  -10.9490 C.ar      1 G92        -0.0266
     21 N14         1.2740  -38.2430   -8.4770 N.am      1 G92        -0.2736
     22 C16         2.7570  -40.1780   -8.8850 C.3       1 G92        -0.0148
     23 C18         0.4310  -40.1120   -9.7170 C.3       1 G92        -0.0148
     24 C19         0.0650  -39.0830   -8.6420 C.3       1 G92         0.0359
     25 N21         2.0250  -41.7960  -11.3830 N.ar      1 G92        -0.2747
     26 N23         2.8080  -43.8950  -11.9900 N.ar      1 G92        -0.2941
     27 C25         3.2260  -45.6140  -10.3930 C.ar      1 G92        -0.0133
     28 O27         3.6510  -47.2960   -8.7330 O.3       1 G92        -0.3151
     29 C29         2.8060  -45.1730   -8.0510 C.ar      1 G92         0.1343
     30 O30         2.8440  -45.6610   -6.7690 O.3       1 G92        -0.3183
     31 C31         2.2650  -44.9710   -5.6500 C.3       1 G92         0.0588
     32 C32         2.3840  -43.8860   -8.3480 C.ar      1 G92        -0.0169
     33 C33         2.3750  -43.4120   -9.6860 C.ar      1 G92         0.0176
     34 H1         -0.7833  -36.2489   -7.2678 H         1 G92         0.0642
     35 H2         -2.8383  -35.1089   -7.9843 H         1 G92         0.0556
     36 H3          0.7431  -36.0176  -11.2743 H         1 G92         0.0642
     37 H4          2.2582  -39.3360   -6.9595 H         1 G92         0.0524
     38 H5          3.3251  -38.3048   -7.9720 H         1 G92         0.0524
     39 H6          1.1411  -41.4764   -8.2073 H         1 G92         0.0539
     40 H7          2.4521  -42.3603  -13.3312 H         1 G92         0.1043
     41 H8          3.8039  -49.3555   -8.9875 H         1 G92         0.0580
     42 H9          3.7481  -48.3893  -10.5008 H         1 G92         0.0580
     43 H10         2.2563  -48.6204   -9.5272 H         1 G92         0.0580
     44 H11        -1.3178  -34.8731  -11.9833 H         1 G92         0.0556
     45 H12         3.5201  -40.8058   -8.4016 H         1 G92         0.0318
     46 H13         3.1409  -39.8104   -9.8481 H         1 G92         0.0318
     47 H14        -0.4561  -40.7043   -9.9857 H         1 G92         0.0318
     48 H15         0.8140  -39.5989  -10.6114 H         1 G92         0.0318
     49 H16        -0.7880  -38.4705   -8.9695 H         1 G92         0.0524
     50 H17        -0.1865  -39.5862   -7.6968 H         1 G92         0.0524
     51 H18         3.5504  -46.2862  -11.1791 H         1 G92         0.0508
     52 H19         2.4238  -45.5595   -4.7343 H         1 G92         0.0576
     53 H20         1.1860  -44.8393   -5.8187 H         1 G92         0.0576
     54 H21         2.7419  -43.9859   -5.5400 H         1 G92         0.0576
     55 H22         2.0564  -43.2328   -7.5473 H         1 G92         0.0547
@<TRIPOS>BOND
     1    1    2 ar 
     2   15    1 ar 
     3    2    3 ar 
     4    3   16 1  
     5   20    3 ar 
     6   16    4 1  
     7    4   17 1  
     8    4   18 1  
     9    4   19 1  
    10   15    5 ar 
    11    5   20 ar 
    12   21    6 1  
    13    6   22 1  
    14    7    8 1  
    15   22    7 1  
    16    7   23 1  
    17    8   25 ar 
    18    8   33 ar 
    19   25    9 ar 
    20    9   26 ar 
    21   10   26 ar 
    22   10   27 ar 
    23   33   10 ar 
    24   27   11 ar 
    25   11   28 1  
    26   11   29 ar 
    27   28   12 1  
    28   14   13 2  
    29   14   15 1  
    30   14   21 am 
    31   21   24 1  
    32   23   24 1  
    33   29   30 1  
    34   29   32 ar 
    35   30   31 1  
    36   32   33 ar 
    37    1   34 1  
    38    2   35 1  
    39    5   36 1  
    40    6   37 1  
    41    6   38 1  
    42    7   39 1  
    43    9   40 1  
    44   12   41 1  
    45   12   42 1  
    46   12   43 1  
    47   20   44 1  
    48   22   45 1  
    49   22   46 1  
    50   23   47 1  
    51   23   48 1  
    52   24   49 1  
    53   24   50 1  
    54   27   51 1  
    55   31   52 1  
    56   31   53 1  
    57   31   54 1  
    58   32   55 1  
@<TRIPOS>SUBSTRUCTURE
     1 G92         1

