### 
### Created by X-TOOL on Mon Aug  2 16:13:53 2021
### 

@<TRIPOS>MOLECULE
6hkn_ligand
   53    56     1     0     0
SMALL
GAST_HUCK


@<TRIPOS>ATOM
      1 C4         -0.8090  -36.0810  -11.6750 C.ar      1 G9E        -0.0611
      2 C5         -2.0040  -35.4660  -11.9370 C.ar      1 G9E        -0.0394
      3 C6         -2.8920  -35.1690  -10.9000 C.ar      1 G9E         0.0945
      4 C8         -4.2440  -33.1910  -10.8930 C.3       1 G9E         0.5473
      5 C13        -1.3510  -36.1360   -9.2950 C.ar      1 G9E         0.0478
      6 C17         2.3330  -40.2370  -10.5500 C.3       1 G9E        -0.0142
      7 C20        -0.3190  -39.2710   -9.8180 C.3       1 G9E         0.0357
      8 C21         1.3580  -42.1050  -11.7310 C.ar      1 G9E         0.0552
      9 C26         2.3210  -45.6370  -12.4280 C.ar      1 G9E        -0.0116
     10 O1          1.8070  -36.3730  -10.1280 O.2       1 G9E        -0.3967
     11 C2          0.8130  -37.0760  -10.1110 C.2       1 G9E         0.1915
     12 C3         -0.4680  -36.4220  -10.3610 C.ar      1 G9E         0.0557
     13 O7         -4.0780  -34.5720  -11.1920 O.3       1 G9E        -0.2254
     14 F9         -4.1290  -32.9550   -9.5180 F         1 G9E        -0.1398
     15 F10        -5.5060  -32.8030  -11.3250 F         1 G9E        -0.1398
     16 F11        -3.2860  -32.4550  -11.5720 F         1 G9E        -0.1398
     17 C12        -2.5630  -35.5100   -9.5850 C.ar      1 G9E        -0.0103
     18 N14        -1.0430  -36.4800   -7.9740 N.pl3     1 G9E        -0.3346
     19 N15         0.8720  -38.4000   -9.8460 N.am      1 G9E        -0.2757
     20 C16         2.1530  -39.0810   -9.5690 C.3       1 G9E         0.0357
     21 C18         1.0870  -41.1130  -10.6300 C.3       1 G9E         0.0224
     22 C19        -0.1310  -40.2770  -10.9410 C.3       1 G9E        -0.0142
     23 N22         1.3020  -41.6950  -12.9940 N.ar      1 G9E        -0.2696
     24 C23         1.5550  -42.5040  -14.0120 C.ar      1 G9E         0.0665
     25 N24         1.8750  -43.7720  -13.8560 N.ar      1 G9E        -0.2889
     26 C25         1.9730  -44.2920  -12.6240 C.ar      1 G9E         0.0401
     27 C27         2.4240  -46.1480  -11.1440 C.ar      1 G9E         0.1006
     28 O28         2.7590  -47.4510  -10.9530 O.3       1 G9E        -0.3152
     29 C29         3.9750  -47.7240  -10.2500 C.3       1 G9E         0.0616
     30 C30         2.1620  -45.3310  -10.0350 C.ar      1 G9E        -0.0191
     31 C31         1.8200  -44.0250  -10.1950 C.ar      1 G9E        -0.0424
     32 C32         1.7130  -43.4550  -11.4860 C.ar      1 G9E         0.0286
     33 H1         -0.1259  -36.3042  -12.4866 H         1 G9E         0.0611
     34 H2         -2.2632  -35.2074  -12.9573 H         1 G9E         0.0453
     35 H3          3.1815  -40.8546  -10.2204 H         1 G9E         0.0319
     36 H4          2.5441  -39.8267  -11.5485 H         1 G9E         0.0319
     37 H5         -1.2300  -38.6777   -9.9854 H         1 G9E         0.0523
     38 H6         -0.3911  -39.7884   -8.8500 H         1 G9E         0.0523
     39 H7          2.5096  -46.2773  -13.2821 H         1 G9E         0.0520
     40 H8         -3.2567  -35.2857   -8.7828 H         1 G9E         0.0447
     41 H9         -0.1485  -36.9424   -7.7574 H         1 G9E         0.1743
     42 H10        -1.7108  -36.2708   -7.2183 H         1 G9E         0.1743
     43 H11         2.9815  -38.3670   -9.6866 H         1 G9E         0.0523
     44 H12         2.1473  -39.4699   -8.5401 H         1 G9E         0.0523
     45 H13         0.9299  -41.6389   -9.6767 H         1 G9E         0.0547
     46 H14         0.0149  -39.7475  -11.8941 H         1 G9E         0.0319
     47 H15        -1.0176  -40.9241  -11.0130 H         1 G9E         0.0319
     48 H16         1.4960  -42.1047  -15.0180 H         1 G9E         0.1078
     49 H17         4.1163  -48.8120  -10.1706 H         1 G9E         0.0582
     50 H18         3.9220  -47.2867   -9.2421 H         1 G9E         0.0582
     51 H19         4.8216  -47.2833  -10.7969 H         1 G9E         0.0582
     52 H20         2.2331  -45.7465   -9.0363 H         1 G9E         0.0613
     53 H21         1.6267  -43.4120   -9.3221 H         1 G9E         0.0680
@<TRIPOS>BOND
     1    1    2 ar 
     2   12    1 ar 
     3    2    3 ar 
     4    3   13 1  
     5   17    3 ar 
     6   13    4 1  
     7    4   14 1  
     8    4   15 1  
     9    4   16 1  
    10   12    5 ar 
    11    5   17 ar 
    12    5   18 1  
    13    6   20 1  
    14   21    6 1  
    15    7   19 1  
    16   22    7 1  
    17    8   21 1  
    18   23    8 ar 
    19    8   32 ar 
    20   26    9 ar 
    21    9   27 ar 
    22   11   10 2  
    23   11   12 1  
    24   19   11 am 
    25   20   19 1  
    26   21   22 1  
    27   24   23 ar 
    28   25   24 ar 
    29   25   26 ar 
    30   26   32 ar 
    31   27   28 1  
    32   27   30 ar 
    33   28   29 1  
    34   30   31 ar 
    35   31   32 ar 
    36    1   33 1  
    37    2   34 1  
    38    6   35 1  
    39    6   36 1  
    40    7   37 1  
    41    7   38 1  
    42    9   39 1  
    43   17   40 1  
    44   18   41 1  
    45   18   42 1  
    46   20   43 1  
    47   20   44 1  
    48   21   45 1  
    49   22   46 1  
    50   22   47 1  
    51   24   48 1  
    52   29   49 1  
    53   29   50 1  
    54   29   51 1  
    55   30   52 1  
    56   31   53 1  
@<TRIPOS>SUBSTRUCTURE
     1 G9E         1

