### 
### Created by X-TOOL on Mon Aug  2 16:10:48 2021
### 

@<TRIPOS>MOLECULE
6hkx_ligand
   55    57     1     0     0
SMALL
GAST_HUCK


@<TRIPOS>ATOM
      1 C10       -13.8830    6.6960  -22.2370 C.ar      1 GCE         0.0469
      2 C13       -12.3210    6.0860  -20.0410 C.ar      1 GCE        -0.0370
      3 C14       -13.3780    5.2690  -20.4250 C.ar      1 GCE         0.1218
      4 C18       -17.8930    8.7170  -23.8740 C.3       1 GCE        -0.0313
      5 C26       -17.5830    9.7770  -27.8540 C.ar      1 GCE        -0.0323
      6 C19       -18.4330    7.9180  -22.6670 C.3       1 GCE        -0.0167
      7 C20       -18.1000    8.6290  -21.3460 C.3       1 GCE        -0.0360
      8 C22       -16.7500    8.4370  -26.0690 C.ar      1 GCE        -0.0101
      9 C23       -15.8880    7.7870  -26.9310 C.ar      1 GCE        -0.0364
     10 C24       -15.8730    8.1410  -28.2670 C.ar      1 GCE        -0.0323
     11 C29       -19.5550    3.7770  -26.4700 C.3       1 GCE         0.0680
     12 C01       -16.4420    3.4910  -24.8510 C.3       1 GCE         0.0522
     13 C03       -17.9050    5.6100  -25.0080 C.2       1 GCE         0.3151
     14 C06       -16.7090    8.0360  -24.6060 C.3       1 GCE         0.1373
     15 C08       -14.7070    7.0570  -23.4680 C.3       1 GCE         0.0762
     16 C11       -12.8510    7.4980  -21.8800 C.ar      1 GCE         0.1349
     17 C12       -12.0540    7.2250  -20.7700 C.ar      1 GCE        -0.0364
     18 C15       -14.1600    5.5660  -21.5250 C.ar      1 GCE        -0.0224
     19 C25       -16.7200    9.1360  -28.7250 C.ar      1 GCE        -0.0340
     20 C27       -17.6060    9.4220  -26.5080 C.ar      1 GCE        -0.0364
     21 F16       -13.6650    4.1340  -19.7250 F         1 GCE        -0.1887
     22 F17       -12.6600    8.5920  -22.6550 F         1 GCE        -0.1922
     23 N02       -17.7370    4.1330  -25.0740 N.am      1 GCE        -0.1346
     24 N05       -16.7650    6.4600  -24.6730 N.am      1 GCE        -0.2334
     25 N09       -15.2980    6.0410  -24.4210 N.4       1 GCE         0.3787
     26 N21       -19.3340    8.9170  -20.6200 N.4       1 GCE         0.2185
     27 O04       -18.9560    6.1450  -25.1940 O.2       1 GCE        -0.3983
     28 O28       -18.8310    3.2820  -25.3630 O.3       1 GCE        -0.2576
     29 S07       -15.2520    8.4390  -24.0160 S.3       1 GCE        -0.0997
     30 H1        -11.7146    5.8307  -19.1795 H         1 GCE         0.0536
     31 H2        -17.5568    9.7007  -23.5144 H         1 GCE         0.0206
     32 H3        -18.7134    8.8507  -24.5945 H         1 GCE         0.0206
     33 H4        -18.2418   10.5562  -28.2199 H         1 GCE         0.0698
     34 H5        -17.9751    6.9179  -22.6631 H         1 GCE         0.0310
     35 H6        -19.5249    7.8211  -22.7586 H         1 GCE         0.0310
     36 H7        -17.5728    9.5705  -21.5597 H         1 GCE         0.0813
     37 H8        -17.4575    7.9800  -20.7328 H         1 GCE         0.0813
     38 H9        -15.2304    7.0076  -26.5635 H         1 GCE         0.0851
     39 H10       -15.2001    7.6411  -28.9543 H         1 GCE         0.0698
     40 H11       -20.4012    3.1074  -26.6837 H         1 GCE         0.0553
     41 H12       -18.8945    3.8250  -27.3483 H         1 GCE         0.0553
     42 H13       -19.9333    4.7840  -26.2402 H         1 GCE         0.0553
     43 H14       -16.5517    2.4008  -24.9479 H         1 GCE         0.0511
     44 H15       -16.0809    3.7348  -23.8410 H         1 GCE         0.0511
     45 H16       -15.7193    3.8544  -25.5964 H         1 GCE         0.0511
     46 H17       -13.7671    7.1541  -24.0311 H         1 GCE         0.1133
     47 H18       -11.2461    7.8902  -20.4875 H         1 GCE         0.0576
     48 H19       -14.9763    4.9147  -21.8159 H         1 GCE         0.0534
     49 H20       -16.7069    9.4145  -29.7725 H         1 GCE         0.0856
     50 H21       -18.2847    9.9116  -25.8190 H         1 GCE         0.0851
     51 H22       -15.2662    5.1211  -24.0101 H         1 GCE         0.2298
     52 H23       -14.7843    6.0396  -25.2883 H         1 GCE         0.2298
     53 H24       -19.1133    9.3833  -19.7540 H         1 GCE         0.1994
     54 H25       -19.8174    8.0546  -20.4235 H         1 GCE         0.1994
     55 H26       -19.9230    9.5120  -21.1813 H         1 GCE         0.1994
@<TRIPOS>BOND
     1   15    1 1  
     2    1   16 ar 
     3    1   18 ar 
     4    3    2 ar 
     5   17    2 ar 
     6   18    3 ar 
     7    3   21 1  
     8    4    6 1  
     9   14    4 1  
    10    5   19 ar 
    11   20    5 ar 
    12    6    7 1  
    13    7   26 1  
    14    8    9 ar 
    15   14    8 1  
    16    8   20 ar 
    17    9   10 ar 
    18   10   19 ar 
    19   28   11 1  
    20   23   12 1  
    21   23   13 am 
    22   13   24 am 
    23   13   27 2  
    24   24   14 1  
    25   14   29 1  
    26   15   25 1  
    27   29   15 1  
    28   16   17 ar 
    29   16   22 1  
    30   23   28 1  
    31   24   25 1  
    32    2   30 1  
    33    4   31 1  
    34    4   32 1  
    35    5   33 1  
    36    6   34 1  
    37    6   35 1  
    38    7   36 1  
    39    7   37 1  
    40    9   38 1  
    41   10   39 1  
    42   11   40 1  
    43   11   41 1  
    44   11   42 1  
    45   12   43 1  
    46   12   44 1  
    47   12   45 1  
    48   15   46 1  
    49   17   47 1  
    50   18   48 1  
    51   19   49 1  
    52   20   50 1  
    53   25   51 1  
    54   25   52 1  
    55   26   53 1  
    56   26   54 1  
    57   26   55 1  
@<TRIPOS>SUBSTRUCTURE
     1 GCE         1

