### 
### Created by X-TOOL on Mon Aug  2 16:10:48 2021
### 

@<TRIPOS>MOLECULE
6hky_ligand
   55    57     1     0     0
SMALL
GAST_HUCK


@<TRIPOS>ATOM
      1 C10        60.0450   42.6960   -2.2910 C.ar      1 GCE         0.0469
      2 C13        61.6470   42.8890   -4.5350 C.ar      1 GCE        -0.0370
      3 C14        60.3420   42.4630   -4.6360 C.ar      1 GCE         0.1218
      4 C18        58.4630   40.2740    1.3230 C.3       1 GCE        -0.0313
      5 C26        57.3510   42.1910    4.8570 C.ar      1 GCE        -0.0323
      6 C19        58.6630   39.5040    0.0010 C.3       1 GCE        -0.0167
      7 C20        59.0060   38.0390    0.2780 C.3       1 GCE        -0.0360
      8 C22        57.7080   42.4010    2.4820 C.ar      1 GCE        -0.0101
      9 C23        57.3170   43.7290    2.5810 C.ar      1 GCE        -0.0364
     10 C24        56.9570   44.2790    3.8120 C.ar      1 GCE        -0.0323
     11 C29        53.2360   39.6740   -0.6010 C.3       1 GCE         0.0680
     12 C01        54.8840   42.1630   -2.1190 C.3       1 GCE         0.0522
     13 C03        55.6330   41.4490    0.2270 C.2       1 GCE         0.3151
     14 C06        58.1510   41.7930    1.1200 C.3       1 GCE         0.1373
     15 C08        59.1190   42.5840   -1.0750 C.3       1 GCE         0.0762
     16 C11        61.3580   43.1340   -2.1750 C.ar      1 GCE         0.1349
     17 C12        62.1640   43.2260   -3.3080 C.ar      1 GCE        -0.0364
     18 C15        59.5200   42.3640   -3.5210 C.ar      1 GCE        -0.0224
     19 C25        56.9670   43.5110    4.9580 C.ar      1 GCE        -0.0340
     20 C27        57.7170   41.6310    3.6340 C.ar      1 GCE        -0.0364
     21 F16        59.8930   42.1580   -5.8770 F         1 GCE        -0.1887
     22 F17        61.9050   43.4740   -0.9630 F         1 GCE        -0.1922
     23 N02        54.6050   41.5720   -0.8180 N.am      1 GCE        -0.1346
     24 N05        56.9920   41.9090    0.0340 N.am      1 GCE        -0.2334
     25 N09        57.5980   42.5670   -1.2300 N.4       1 GCE         0.3787
     26 N21        60.3560   37.9450    0.8220 N.4       1 GCE         0.2185
     27 O04        55.3700   40.9650    1.2800 O.2       1 GCE        -0.3983
     28 O28        53.2940   41.0890   -0.5410 O.3       1 GCE        -0.2576
     29 S07        59.4320   42.5900    0.4960 S.3       1 GCE        -0.0997
     30 H1         62.2657   42.9584   -5.4224 H         1 GCE         0.0536
     31 H2         59.3822   40.1844    1.9205 H         1 GCE         0.0206
     32 H3         57.6247   39.8165    1.8689 H         1 GCE         0.0206
     33 H4         57.3688   41.5746    5.7485 H         1 GCE         0.0698
     34 H5         59.4842   39.9665   -0.5662 H         1 GCE         0.0310
     35 H6         57.7363   39.5529   -0.5897 H         1 GCE         0.0310
     36 H7         58.9488   37.4664   -0.6595 H         1 GCE         0.0813
     37 H8         58.2897   37.6266    1.0038 H         1 GCE         0.0813
     38 H9         57.2909   44.3469    1.6907 H         1 GCE         0.0851
     39 H10        56.6661   45.3217    3.8684 H         1 GCE         0.0698
     40 H11        52.2112   39.3395   -0.3822 H         1 GCE         0.0553
     41 H12        53.9272   39.2469    0.1405 H         1 GCE         0.0553
     42 H13        53.5245   39.3375   -1.6078 H         1 GCE         0.0553
     43 H14        53.9707   42.1480   -2.7320 H         1 GCE         0.0511
     44 H15        55.6731   41.5853   -2.6226 H         1 GCE         0.0511
     45 H16        55.2189   43.2022   -1.9855 H         1 GCE         0.0511
     46 H17        59.2125   41.4892   -1.1255 H         1 GCE         0.1133
     47 H18        63.1913   43.5610   -3.2216 H         1 GCE         0.0576
     48 H19        58.4918   42.0340   -3.6159 H         1 GCE         0.0534
     49 H20        56.6802   43.9348    5.9136 H         1 GCE         0.0856
     50 H21        58.0100   40.5885    3.5840 H         1 GCE         0.0851
     51 H22        57.3439   42.0346   -2.0473 H         1 GCE         0.2298
     52 H23        57.2536   43.5098   -1.3227 H         1 GCE         0.2298
     53 H24        60.5786   36.9788    1.0033 H         1 GCE         0.1994
     54 H25        60.4092   38.4690    1.6815 H         1 GCE         0.1994
     55 H26        61.0132   38.3222    0.1573 H         1 GCE         0.1994
@<TRIPOS>BOND
     1   15    1 1  
     2    1   16 ar 
     3    1   18 ar 
     4    3    2 ar 
     5   17    2 ar 
     6   18    3 ar 
     7    3   21 1  
     8    4    6 1  
     9   14    4 1  
    10    5   19 ar 
    11   20    5 ar 
    12    6    7 1  
    13    7   26 1  
    14    8    9 ar 
    15   14    8 1  
    16    8   20 ar 
    17    9   10 ar 
    18   10   19 ar 
    19   28   11 1  
    20   23   12 1  
    21   23   13 am 
    22   13   24 am 
    23   13   27 2  
    24   24   14 1  
    25   14   29 1  
    26   15   25 1  
    27   29   15 1  
    28   16   17 ar 
    29   16   22 1  
    30   23   28 1  
    31   24   25 1  
    32    2   30 1  
    33    4   31 1  
    34    4   32 1  
    35    5   33 1  
    36    6   34 1  
    37    6   35 1  
    38    7   36 1  
    39    7   37 1  
    40    9   38 1  
    41   10   39 1  
    42   11   40 1  
    43   11   41 1  
    44   11   42 1  
    45   12   43 1  
    46   12   44 1  
    47   12   45 1  
    48   15   46 1  
    49   17   47 1  
    50   18   48 1  
    51   19   49 1  
    52   20   50 1  
    53   25   51 1  
    54   25   52 1  
    55   26   53 1  
    56   26   54 1  
    57   26   55 1  
@<TRIPOS>SUBSTRUCTURE
     1 GCE         1

