### 
### Created by X-TOOL on Wed Jan  1 15:39:35 2020
### 

@<TRIPOS>MOLECULE
6hkz_ligand
   68    69     1     0     0
SMALL
GAST_HUCK


@<TRIPOS>ATOM
      1 OBN        13.8670   49.3600   41.2940 O.co2     1 GBZ        -0.5690
      2 CBA        13.9530   48.1270   41.0510 C.2       1 GBZ         0.0350
      3 OBO        13.1630   47.4800   40.3130 O.co2     1 GBZ        -0.5690
      4 CAZ        15.1480   47.4080   41.6950 C.3       1 GBZ         0.0038
      5 CAY        14.8840   45.9070   41.8180 C.3       1 GBZ        -0.0066
      6 CAW        16.2110   45.1380   42.1970 C.3       1 GBZ         0.0962
      7 CAX        17.2140   45.2460   40.9970 C.2       1 GBZ         0.0600
      8 OBG        17.1430   44.4240   40.0620 O.co2     1 GBZ        -0.5666
      9 OBF        18.0190   46.2010   41.0370 O.co2     1 GBZ        -0.5666
     10 NAV        16.9340   45.7190   43.3300 N.am      1 GBZ        -0.2575
     11 CAU        18.1420   45.2570   43.7040 C.2       1 GBZ         0.2608
     12 OBE        18.5190   44.1720   43.2690 O.2       1 GBZ        -0.4006
     13 N          18.8650   46.0490   44.5460 N.am      1 GBZ        -0.2576
     14 CA         20.1400   45.6910   45.2340 C.3       1 GBZ         0.0948
     15 C          20.2940   46.4170   46.5940 C.2       1 GBZ         0.0599
     16 OXT        19.8130   47.5820   46.7050 O.co2     1 GBZ        -0.5666
     17 O          20.9710   45.8050   47.4600 O.co2     1 GBZ        -0.5666
     18 CB         21.3920   46.0190   44.4360 C.3       1 GBZ        -0.0161
     19 CAP        21.5150   47.5130   44.1490 C.3       1 GBZ        -0.0320
     20 CAO        22.7020   47.6890   43.1460 C.3       1 GBZ         0.0435
     21 CAN        24.0670   47.6870   43.9300 C.2       1 GBZ         0.2061
     22 OBB        24.0350   47.4620   45.1260 O.2       1 GBZ        -0.3847
     23 NAM        25.2750   47.8780   43.2910 N.am      1 GBZ        -0.2180
     24 CBJ        25.3230   47.9930   41.9360 C.ar      1 GBZ         0.0691
     25 CBH        25.1590   46.8370   41.1650 C.ar      1 GBZ        -0.0411
     26 CBI        25.1840   46.8880   39.7680 C.ar      1 GBZ        -0.0755
     27 CBK        25.3720   48.1110   39.1240 C.ar      1 GBZ        -0.0772
     28 CBM        25.5350   49.2680   39.8780 C.ar      1 GBZ        -0.0755
     29 CBL        25.5100   49.2070   41.2780 C.ar      1 GBZ        -0.0411
     30 CAL        26.4920   47.7860   44.1060 C.3       1 GBZ         0.0755
     31 CAJ        27.2550   49.0820   44.1060 C.3       1 GBZ         0.0558
     32 NAI        26.7070   50.0870   45.0610 N.am      1 GBZ        -0.2836
     33 CAH        26.3670   51.3050   44.5830 C.2       1 GBZ         0.2078
     34 OAK        26.4270   51.5930   43.3890 O.2       1 GBZ        -0.3848
     35 CAE        25.9720   52.3210   45.4410 C.ar      1 GBZ         0.0702
     36 CAD        24.9380   53.1570   44.9940 C.ar      1 GBZ        -0.0268
     37 CAC        24.5180   54.2300   45.7750 C.ar      1 GBZ         0.0082
     38 CAA        25.1520   54.4850   46.9910 C.ar      1 GBZ         0.2177
     39 FAB        24.7040   55.5310   47.7030 F         1 GBZ        -0.1498
     40 NAG        26.1780   53.7010   47.4300 N.ar      1 GBZ        -0.2584
     41 CAF        26.6280   52.5980   46.6520 C.ar      1 GBZ         0.0257
     42 H1         15.3213   47.8259   42.6976 H         1 GBZ         0.0432
     43 H2         16.0409   47.5662   41.0724 H         1 GBZ         0.0432
     44 H3         14.5075   45.5263   40.8571 H         1 GBZ         0.0323
     45 H4         14.1307   45.7354   42.6010 H         1 GBZ         0.0323
     46 H5         15.9666   44.0870   42.4107 H         1 GBZ         0.0724
     47 H6         16.5214   46.4757   43.8372 H         1 GBZ         0.1869
     48 H7         18.5034   46.9648   44.7207 H         1 GBZ         0.1869
     49 H8         20.1185   44.6059   45.4131 H         1 GBZ         0.0723
     50 H9         21.3557   45.4761   43.4800 H         1 GBZ         0.0307
     51 H10        22.2730   45.6942   45.0090 H         1 GBZ         0.0307
     52 H11        21.7226   48.0608   45.0800 H         1 GBZ         0.0292
     53 H12        20.5834   47.8899   43.7017 H         1 GBZ         0.0292
     54 H13        22.5896   48.6435   42.6109 H         1 GBZ         0.0508
     55 H14        22.6950   46.8602   42.4228 H         1 GBZ         0.0508
     56 H15        25.0098   45.8842   41.6599 H         1 GBZ         0.0502
     57 H16        25.0578   45.9810   39.1878 H         1 GBZ         0.0577
     58 H17        25.3909   48.1592   38.0412 H         1 GBZ         0.0487
     59 H18        25.6819   50.2203   39.3813 H         1 GBZ         0.0577
     60 H19        25.6377   50.1152   41.8559 H         1 GBZ         0.0502
     61 H20        27.1357   46.9924   43.6988 H         1 GBZ         0.0606
     62 H21        26.2117   47.5364   45.1400 H         1 GBZ         0.0606
     63 H22        27.2203   49.5080   43.0924 H         1 GBZ         0.0544
     64 H23        28.2995   48.8726   44.3803 H         1 GBZ         0.0544
     65 H24        26.5939   49.8660   46.0297 H         1 GBZ         0.1845
     66 H25        24.4646   52.9669   44.0375 H         1 GBZ         0.0769
     67 H26        23.7040   54.8629   45.4406 H         1 GBZ         0.0688
     68 H27        27.4578   51.9856   46.9859 H         1 GBZ         0.0858
@<TRIPOS>BOND
     1    1    2 ar 
     2    2    3 ar 
     3    2    4 1  
     4    4    5 1  
     5    5    6 1  
     6    6    7 1  
     7    6   10 1  
     8    7    8 ar 
     9    7    9 ar 
    10   10   11 am 
    11   11   12 2  
    12   11   13 am 
    13   13   14 1  
    14   14   15 1  
    15   14   18 1  
    16   15   16 ar 
    17   15   17 ar 
    18   18   19 1  
    19   19   20 1  
    20   20   21 1  
    21   21   22 2  
    22   21   23 am 
    23   23   24 1  
    24   23   30 1  
    25   24   25 ar 
    26   24   29 ar 
    27   25   26 ar 
    28   26   27 ar 
    29   27   28 ar 
    30   28   29 ar 
    31   30   31 1  
    32   31   32 1  
    33   32   33 am 
    34   33   34 2  
    35   33   35 1  
    36   35   36 ar 
    37   35   41 ar 
    38   36   37 ar 
    39   37   38 ar 
    40   38   39 1  
    41   38   40 ar 
    42   40   41 ar 
    43    4   42 1  
    44    4   43 1  
    45    5   44 1  
    46    5   45 1  
    47    6   46 1  
    48   10   47 1  
    49   13   48 1  
    50   14   49 1  
    51   18   50 1  
    52   18   51 1  
    53   19   52 1  
    54   19   53 1  
    55   20   54 1  
    56   20   55 1  
    57   25   56 1  
    58   26   57 1  
    59   27   58 1  
    60   28   59 1  
    61   29   60 1  
    62   30   61 1  
    63   30   62 1  
    64   31   63 1  
    65   31   64 1  
    66   32   65 1  
    67   36   66 1  
    68   37   67 1  
    69   41   68 1  
@<TRIPOS>SUBSTRUCTURE
     1 GBZ         1

