### 
### Created by X-TOOL on Wed Jan  1 15:39:35 2020
### 

@<TRIPOS>MOLECULE
6hlx_ligand
   38    38     1     0     0
SMALL
GAST_HUCK


@<TRIPOS>ATOM
      1 OAM        86.8440  -32.2430   -1.5960 O.2       1 G9Z        -0.3968
      2 CAB        87.2120  -31.0980   -1.8940 C.2       1 G9Z         0.1804
      3 CAC        88.3620  -30.8440   -2.6690 C.3       1 G9Z         0.0412
      4 CB         88.4450  -29.2940   -2.8220 C.3       1 G9Z        -0.0008
      5 CA         87.3560  -28.7480   -1.9140 C.3       1 G9Z         0.0992
      6 C          86.5170  -27.8230   -2.6130 C.2       1 G9Z         0.0604
      7 O          85.5540  -28.2710   -3.2940 O.co2     1 G9Z        -0.5666
      8 N          86.6470  -29.9730   -1.4180 N.am      1 G9Z        -0.2548
      9 CAG        85.3850  -29.9440   -0.5830 C.3       1 G9Z         0.0645
     10 CAH        85.7240  -29.6750    0.8840 C.3       1 G9Z         0.1039
     11 OAP        86.2970  -28.3690    0.9420 O.3       1 G9Z        -0.3871
     12 CAI        84.4960  -29.7430    1.7970 C.3       1 G9Z         0.1112
     13 OAQ        83.6900  -30.8880    1.4190 O.3       1 G9Z        -0.3865
     14 CAJ        84.9010  -29.9380    3.2970 C.3       1 G9Z         0.1114
     15 OAR        83.7150  -30.0020    4.1100 O.3       1 G9Z        -0.3865
     16 CAK        85.8980  -28.9080    3.8810 C.3       1 G9Z         0.1065
     17 OAT        86.3850  -29.3790    5.1530 O.3       1 G9Z        -0.3869
     18 CAL        85.3000  -27.4970    3.9880 C.3       1 G9Z         0.0727
     19 OAS        86.3170  -26.5620    4.4100 O.3       1 G9Z        -0.3924
     20 OXT        86.8040  -26.5970   -2.5420 O.co2     1 G9Z        -0.5666
     21 H1         88.2705  -31.3209   -3.6560 H         1 G9Z         0.0504
     22 H2         89.2585  -31.2260   -2.1588 H         1 G9Z         0.0504
     23 H3         88.2618  -28.9985   -3.8656 H         1 G9Z         0.0330
     24 H4         89.4322  -28.9269   -2.5049 H         1 G9Z         0.0330
     25 H5         87.8074  -28.2189   -1.0618 H         1 G9Z         0.0729
     26 H6         84.8735  -30.9144   -0.6650 H         1 G9Z         0.0550
     27 H7         84.7228  -29.1479   -0.9540 H         1 G9Z         0.0550
     28 H8         86.4579  -30.4189    1.2275 H         1 G9Z         0.0640
     29 H9         85.6687  -27.7341    0.6186 H         1 G9Z         0.2100
     30 H10        83.9125  -28.8167    1.6897 H         1 G9Z         0.0647
     31 H11        82.9263  -30.9359    1.9819 H         1 G9Z         0.2100
     32 H12        85.3994  -30.9166    3.3587 H         1 G9Z         0.0647
     33 H13        83.1786  -30.7339    3.8286 H         1 G9Z         0.2100
     34 H14        86.7547  -28.8468    3.1938 H         1 G9Z         0.0643
     35 H15        85.6542  -29.4871    5.7503 H         1 G9Z         0.2100
     36 H16        84.4820  -27.5024    4.7234 H         1 G9Z         0.0584
     37 H17        84.9086  -27.1915    3.0065 H         1 G9Z         0.0584
     38 H18        85.9395  -25.6926    4.4737 H         1 G9Z         0.2095
@<TRIPOS>BOND
     1    1    2 2  
     2    2    3 1  
     3    2    8 am 
     4    3    4 1  
     5    4    5 1  
     6    5    6 1  
     7    5    8 1  
     8    6    7 ar 
     9    6   20 ar 
    10    8    9 1  
    11    9   10 1  
    12   10   11 1  
    13   10   12 1  
    14   12   13 1  
    15   12   14 1  
    16   14   15 1  
    17   14   16 1  
    18   16   17 1  
    19   16   18 1  
    20   18   19 1  
    21    3   21 1  
    22    3   22 1  
    23    4   23 1  
    24    4   24 1  
    25    5   25 1  
    26    9   26 1  
    27    9   27 1  
    28   10   28 1  
    29   11   29 1  
    30   12   30 1  
    31   13   31 1  
    32   14   32 1  
    33   15   33 1  
    34   16   34 1  
    35   17   35 1  
    36   18   36 1  
    37   18   37 1  
    38   19   38 1  
@<TRIPOS>SUBSTRUCTURE
     1 G9Z         1

