### 
### Created by X-TOOL on Wed Jan  1 15:39:36 2020
### 

@<TRIPOS>MOLECULE
6hly_ligand
   38    38     1     0     0
SMALL
GAST_HUCK


@<TRIPOS>ATOM
      1 OAM        54.5440   10.3550   79.5830 O.2       1 G9Z        -0.3968
      2 CAB        53.2980   10.5030   79.7020 C.2       1 G9Z         0.1804
      3 CAC        52.3290    9.8820   78.8530 C.3       1 G9Z         0.0412
      4 CB         50.9710   10.5280   79.2570 C.3       1 G9Z        -0.0008
      5 CA         51.2590   11.3990   80.5010 C.3       1 G9Z         0.0992
      6 C          50.4500   10.9350   81.6310 C.2       1 G9Z         0.0604
      7 O          49.2080   11.1450   81.6110 O.co2     1 G9Z        -0.5666
      8 N          52.7300   11.2950   80.6320 N.am      1 G9Z        -0.2548
      9 CAG        53.4790   12.0330   81.6760 C.3       1 G9Z         0.0645
     10 CAH        53.8570   13.4370   81.1900 C.3       1 G9Z         0.1039
     11 OAP        52.6580   14.1660   80.8470 O.3       1 G9Z        -0.3871
     12 CAI        54.5850   14.2160   82.2950 C.3       1 G9Z         0.1112
     13 OAQ        53.9160   14.0500   83.5730 O.3       1 G9Z        -0.3865
     14 CAJ        56.0960   13.9010   82.3810 C.3       1 G9Z         0.1114
     15 OAR        56.2920   12.5290   82.7590 O.3       1 G9Z        -0.3865
     16 CAK        56.7270   14.7710   83.4730 C.3       1 G9Z         0.1065
     17 OAT        56.5630   16.1680   83.1190 O.3       1 G9Z        -0.3869
     18 CAL        58.2210   14.4550   83.6510 C.3       1 G9Z         0.0727
     19 OAS        58.9480   14.5880   82.4150 O.3       1 G9Z        -0.3924
     20 OXT        51.0160   10.3270   82.5570 O.co2     1 G9Z        -0.5666
     21 H1         52.3061    8.7953   79.0218 H         1 G9Z         0.0504
     22 H2         52.5545   10.0842   77.7955 H         1 G9Z         0.0504
     23 H3         50.2352    9.7474   79.5005 H         1 G9Z         0.0330
     24 H4         50.5864   11.1513   78.4363 H         1 G9Z         0.0330
     25 H5         50.9903   12.4481   80.3082 H         1 G9Z         0.0729
     26 H6         54.3964   11.4779   81.9212 H         1 G9Z         0.0550
     27 H7         52.8517   12.1202   82.5754 H         1 G9Z         0.0550
     28 H8         54.5083   13.3531   80.3076 H         1 G9Z         0.0640
     29 H9         52.8928   15.0358   80.5459 H         1 G9Z         0.2100
     30 H10        54.5066   15.2809   82.0309 H         1 G9Z         0.0647
     31 H11        54.3832   14.5397   84.2397 H         1 G9Z         0.2100
     32 H12        56.5741   14.0988   81.4103 H         1 G9Z         0.0647
     33 H13        55.8908   11.9626   82.1104 H         1 G9Z         0.2100
     34 H14        56.2100   14.5764   84.4242 H         1 G9Z         0.0643
     35 H15        56.9919   16.3354   82.2881 H         1 G9Z         0.2100
     36 H16        58.3253   13.4225   84.0158 H         1 G9Z         0.0584
     37 H17        58.6461   15.1498   84.3903 H         1 G9Z         0.0584
     38 H18        58.5904   13.9867   81.7723 H         1 G9Z         0.2095
@<TRIPOS>BOND
     1    1    2 2  
     2    2    3 1  
     3    2    8 am 
     4    3    4 1  
     5    4    5 1  
     6    5    6 1  
     7    5    8 1  
     8    6    7 ar 
     9    6   20 ar 
    10    8    9 1  
    11    9   10 1  
    12   10   11 1  
    13   10   12 1  
    14   12   13 1  
    15   12   14 1  
    16   14   15 1  
    17   14   16 1  
    18   16   17 1  
    19   16   18 1  
    20   18   19 1  
    21    3   21 1  
    22    3   22 1  
    23    4   23 1  
    24    4   24 1  
    25    5   25 1  
    26    9   26 1  
    27    9   27 1  
    28   10   28 1  
    29   11   29 1  
    30   12   30 1  
    31   13   31 1  
    32   14   32 1  
    33   15   33 1  
    34   16   34 1  
    35   17   35 1  
    36   18   36 1  
    37   18   37 1  
    38   19   38 1  
@<TRIPOS>SUBSTRUCTURE
     1 G9Z         1

