### 
### Created by X-TOOL on Wed Jan  1 15:39:37 2020
### 

@<TRIPOS>MOLECULE
6hlz_ligand
   38    38     1     0     0
SMALL
GAST_HUCK


@<TRIPOS>ATOM
      1 OAM        27.8830  -21.1850  -18.5390 O.2       1 G9Z        -0.3968
      2 CAB        27.6790  -19.9750  -18.6470 C.2       1 G9Z         0.1804
      3 CAC        28.0940  -19.0470  -17.7010 C.3       1 G9Z         0.0412
      4 CB         27.5060  -17.7140  -18.1530 C.3       1 G9Z        -0.0008
      5 CA         27.0860  -17.9410  -19.5990 C.3       1 G9Z         0.0992
      6 C          27.8660  -17.1590  -20.4950 C.2       1 G9Z         0.0604
      7 O          28.8030  -17.7060  -21.1170 O.co2     1 G9Z        -0.5666
      8 N          27.2110  -19.4190  -19.7650 N.am      1 G9Z        -0.2548
      9 CAG        26.8130  -20.2140  -20.9350 C.3       1 G9Z         0.0645
     10 CAH        25.3540  -20.7200  -20.8500 C.3       1 G9Z         0.1039
     11 OAP        24.4730  -19.6030  -20.6120 O.3       1 G9Z        -0.3871
     12 CAI        24.9580  -21.3940  -22.1750 C.3       1 G9Z         0.1112
     13 OAQ        25.4590  -20.6520  -23.2870 O.3       1 G9Z        -0.3865
     14 CAJ        25.3800  -22.8830  -22.2460 C.3       1 G9Z         0.1114
     15 OAR        26.8030  -23.0400  -22.1730 O.3       1 G9Z        -0.3865
     16 CAK        24.8100  -23.6160  -23.4840 C.3       1 G9Z         0.1065
     17 OAT        23.3860  -23.4300  -23.6070 O.3       1 G9Z        -0.3869
     18 CAL        25.1800  -25.1160  -23.4600 C.3       1 G9Z         0.0727
     19 OAS        24.4140  -25.8090  -22.4650 O.3       1 G9Z        -0.3924
     20 OXT        27.5660  -15.9450  -20.5910 O.co2     1 G9Z        -0.5666
     21 H1         29.1923  -18.9926  -17.6717 H         1 G9Z         0.0504
     22 H2         27.7136  -19.3170  -16.7048 H         1 G9Z         0.0504
     23 H3         28.2612  -16.9167  -18.0900 H         1 G9Z         0.0330
     24 H4         26.6365  -17.4452  -17.5352 H         1 G9Z         0.0330
     25 H5         26.0337  -17.6508  -19.7344 H         1 G9Z         0.0729
     26 H6         27.4822  -21.0836  -21.0128 H         1 G9Z         0.0550
     27 H7         26.9163  -19.5901  -21.8350 H         1 G9Z         0.0550
     28 H8         25.2642  -21.4442  -20.0269 H         1 G9Z         0.0640
     29 H9         23.5768  -19.9136  -20.5597 H         1 G9Z         0.2100
     30 H10        23.8598  -21.3704  -22.2334 H         1 G9Z         0.0647
     31 H11        26.4065  -20.6074  -23.2354 H         1 G9Z         0.2100
     32 H12        24.9539  -23.3746  -21.3590 H         1 G9Z         0.0647
     33 H13        27.2088  -22.5805  -22.8987 H         1 G9Z         0.2100
     34 H14        25.2784  -23.1727  -24.3751 H         1 G9Z         0.0643
     35 H15        22.9550  -23.7719  -22.8325 H         1 G9Z         0.2100
     36 H16        26.2505  -25.2207  -23.2298 H         1 G9Z         0.0584
     37 H17        24.9725  -25.5554  -24.4468 H         1 G9Z         0.0584
     38 H18        23.4888  -25.7228  -22.6624 H         1 G9Z         0.2095
@<TRIPOS>BOND
     1    1    2 2  
     2    2    3 1  
     3    2    8 am 
     4    3    4 1  
     5    4    5 1  
     6    5    6 1  
     7    5    8 1  
     8    6    7 ar 
     9    6   20 ar 
    10    8    9 1  
    11    9   10 1  
    12   10   11 1  
    13   10   12 1  
    14   12   13 1  
    15   12   14 1  
    16   14   15 1  
    17   14   16 1  
    18   16   17 1  
    19   16   18 1  
    20   18   19 1  
    21    3   21 1  
    22    3   22 1  
    23    4   23 1  
    24    4   24 1  
    25    5   25 1  
    26    9   26 1  
    27    9   27 1  
    28   10   28 1  
    29   11   29 1  
    30   12   30 1  
    31   13   31 1  
    32   14   32 1  
    33   15   33 1  
    34   16   34 1  
    35   17   35 1  
    36   18   36 1  
    37   18   37 1  
    38   19   38 1  
@<TRIPOS>SUBSTRUCTURE
     1 G9Z         1

