### 
### Created by X-TOOL on Mon Aug  2 16:13:53 2021
### 

@<TRIPOS>MOLECULE
6hm1_ligand
   85    88     1     0     0
SMALL
GAST_HUCK


@<TRIPOS>ATOM
      1 C1         22.8340   -4.0980  -13.7940 C.3       1 AO3         0.1854
      2 C2         24.2570   -4.4550  -13.4310 C.3       1 AO3         0.1210
      3 C3         25.2160   -3.5360  -14.2200 C.3       1 AO3         0.1111
      4 C4         24.8790   -3.4710  -15.6890 C.3       1 AO3         0.1116
      5 C5         23.3860   -3.2330  -15.9410 C.3       1 AO3         0.1130
      6 C6         22.9540   -3.5790  -17.4200 C.3       1 AO3         0.0730
      7 C7         24.5390   -5.4860  -11.2570 C.2       1 AO3         0.1733
      8 C8         24.7820   -5.3350   -9.7720 C.3       1 AO3         0.0257
      9 N2         24.4740   -4.4040  -11.9990 N.am      1 AO3        -0.2766
     10 O3         25.1000   -2.2550  -13.6700 O.3       1 AO3        -0.3867
     11 O4         25.7340   -2.4730  -16.2580 O.3       1 AO3        -0.3865
     12 O5         22.6110   -4.1110  -15.1770 O.3       1 AO3        -0.3408
     13 O6         23.3560   -4.9280  -17.9360 O.3       1 AO3        -0.3924
     14 O7         24.4160   -6.5610  -11.6790 O.2       1 AO3        -0.3974
     15 C11        18.1000   -5.7540  -12.3890 C.3       1 AO3         0.1853
     16 C12        18.4070   -5.8770  -13.8630 C.3       1 AO3         0.1210
     17 C13        19.9110   -5.9010  -14.0010 C.3       1 AO3         0.1114
     18 C14        20.6020   -4.7540  -13.2710 C.3       1 AO3         0.1181
     19 C15        20.0790   -4.6320  -11.8450 C.3       1 AO3         0.1134
     20 C16        20.5470   -3.4060  -11.0970 C.3       1 AO3         0.0730
     21 C17        16.7500   -6.9510  -15.2200 C.2       1 AO3         0.1733
     22 C18        16.1540   -8.2520  -15.6520 C.3       1 AO3         0.0257
     23 N12        17.7860   -7.0640  -14.3850 N.am      1 AO3        -0.2766
     24 O13        20.3620   -7.0950  -13.4500 O.3       1 AO3        -0.3867
     25 O14        21.9910   -5.0580  -13.2260 O.3       1 AO3        -0.3404
     26 O15        18.6840   -4.5970  -11.8600 O.3       1 AO3        -0.3408
     27 O16        20.0940   -3.3640   -9.7830 O.3       1 AO3        -0.3924
     28 O17        16.2920   -5.9550  -15.6230 O.2       1 AO3        -0.3974
     29 C21        14.1890   -6.4580   -9.8150 C.3       1 AO3         0.1103
     30 C22        15.1320   -5.6050   -8.9390 C.3       1 AO3         0.0432
     31 C23        16.0120   -4.9140   -9.9700 C.3       1 AO3         0.0891
     32 C24        16.1510   -5.9710  -11.0520 C.3       1 AO3         0.0957
     33 C25        14.7180   -6.4410  -11.2280 C.3       1 AO3         0.0437
     34 C26        14.5240   -7.7710  -11.9520 C.3       1 AO3         0.0523
     35 C27        13.0190   -4.8570   -8.7180 C.2       1 AO3         0.2414
     36 C28        12.0490   -3.3330   -7.1800 C.3       1 AO3         0.0283
     37 C29        10.6460   -4.4030   -8.8140 C.3       1 AO3         0.0283
     38 N22        14.1760   -4.7150   -8.2740 N.2       1 AO3        -0.3518
     39 N27        11.9700   -4.2340   -8.2790 N.pl3     1 AO3        -0.2565
     40 O23        17.2690   -4.5850   -9.4290 O.3       1 AO3        -0.3888
     41 O24        16.7180   -5.6490  -12.2910 O.3       1 AO3        -0.3427
     42 O26        15.1920   -8.8180  -11.3360 O.3       1 AO3        -0.3945
     43 O27        12.9370   -5.8650   -9.7240 O.3       1 AO3        -0.2531
     44 H1         22.5981   -3.0999  -13.3963 H         1 AO3         0.0935
     45 H2         24.4421   -5.4906  -13.7524 H         1 AO3         0.0633
     46 H3         26.2467   -3.9030  -14.1065 H         1 AO3         0.0645
     47 H4         25.1310   -4.4389  -16.1468 H         1 AO3         0.0647
     48 H5         23.1448   -2.1864  -15.7034 H         1 AO3         0.0647
     49 H6         23.3972   -2.8218  -18.0835 H         1 AO3         0.0584
     50 H7         21.8571   -3.5148  -17.4715 H         1 AO3         0.0584
     51 H8         24.8082   -6.3291   -9.3018 H         1 AO3         0.0467
     52 H9         23.9713   -4.7399   -9.3264 H         1 AO3         0.0467
     53 H10        25.7433   -4.8263   -9.6076 H         1 AO3         0.0467
     54 H11        24.5781   -3.5119  -11.5594 H         1 AO3         0.1857
     55 H12        25.7008   -1.6664  -14.1116 H         1 AO3         0.2100
     56 H13        25.5190   -1.6249  -15.8878 H         1 AO3         0.2100
     57 H14        22.9721   -5.6026  -17.3883 H         1 AO3         0.2095
     58 H15        18.4635   -6.6385  -11.8454 H         1 AO3         0.0935
     59 H16        18.0083   -5.0044  -14.4011 H         1 AO3         0.0633
     60 H17        20.1738   -5.8543  -15.0681 H         1 AO3         0.0645
     61 H18        20.4340   -3.8097  -13.8095 H         1 AO3         0.0650
     62 H19        20.4133   -5.5206  -11.2895 H         1 AO3         0.0647
     63 H20        20.1789   -2.5129  -11.6231 H         1 AO3         0.0584
     64 H21        21.6469   -3.3994  -11.0887 H         1 AO3         0.0584
     65 H22        15.3122   -8.0612  -16.3339 H         1 AO3         0.0467
     66 H23        15.7938   -8.8013  -14.7697 H         1 AO3         0.0467
     67 H24        16.9173   -8.8509  -16.1704 H         1 AO3         0.0467
     68 H25        18.1272   -7.9672  -14.1248 H         1 AO3         0.1857
     69 H26        21.3038   -7.1567  -13.5583 H         1 AO3         0.2100
     70 H27        20.4171   -2.5756   -9.3629 H         1 AO3         0.2095
     71 H28        14.1439   -7.4941   -9.4483 H         1 AO3         0.0680
     72 H29        15.7281   -6.1821   -8.2169 H         1 AO3         0.0374
     73 H30        15.5293   -4.0055  -10.3594 H         1 AO3         0.0623
     74 H31        16.7614   -6.7888  -10.6415 H         1 AO3         0.0627
     75 H32        14.1717   -5.6840  -11.8098 H         1 AO3         0.0379
     76 H33        14.9006   -7.6700  -12.9806 H         1 AO3         0.0562
     77 H34        13.4495   -8.0050  -11.9763 H         1 AO3         0.0562
     78 H35        11.0515   -2.9176   -6.9740 H         1 AO3         0.0498
     79 H36        12.7430   -2.5156   -7.4251 H         1 AO3         0.0498
     80 H37        12.4134   -3.8694   -6.2915 H         1 AO3         0.0498
     81 H38        10.6780   -5.1116   -9.6547 H         1 AO3         0.0498
     82 H39        10.2664   -3.4327   -9.1666 H         1 AO3         0.0498
     83 H40         9.9809   -4.7940   -8.0300 H         1 AO3         0.0498
     84 H41        17.8303   -4.2477  -10.1173 H         1 AO3         0.2099
     85 H42        15.0400   -9.6193  -11.8230 H         1 AO3         0.2094
@<TRIPOS>BOND
     1    1    2 1  
     2    1   12 1  
     3   25    1 1  
     4    2    3 1  
     5    2    9 1  
     6    3    4 1  
     7    3   10 1  
     8    5    4 1  
     9    4   11 1  
    10    5    6 1  
    11   12    5 1  
    12    6   13 1  
    13    7    8 1  
    14    9    7 am 
    15    7   14 2  
    16   15   16 1  
    17   15   26 1  
    18   41   15 1  
    19   16   17 1  
    20   16   23 1  
    21   17   18 1  
    22   17   24 1  
    23   19   18 1  
    24   18   25 1  
    25   19   20 1  
    26   26   19 1  
    27   20   27 1  
    28   21   22 1  
    29   23   21 am 
    30   21   28 2  
    31   29   30 1  
    32   33   29 1  
    33   29   43 1  
    34   31   30 1  
    35   30   38 1  
    36   32   31 1  
    37   31   40 1  
    38   32   33 1  
    39   32   41 1  
    40   33   34 1  
    41   34   42 1  
    42   38   35 2  
    43   35   39 1  
    44   35   43 1  
    45   39   36 1  
    46   39   37 1  
    47    1   44 1  
    48    2   45 1  
    49    3   46 1  
    50    4   47 1  
    51    5   48 1  
    52    6   49 1  
    53    6   50 1  
    54    8   51 1  
    55    8   52 1  
    56    8   53 1  
    57    9   54 1  
    58   10   55 1  
    59   11   56 1  
    60   13   57 1  
    61   15   58 1  
    62   16   59 1  
    63   17   60 1  
    64   18   61 1  
    65   19   62 1  
    66   20   63 1  
    67   20   64 1  
    68   22   65 1  
    69   22   66 1  
    70   22   67 1  
    71   23   68 1  
    72   24   69 1  
    73   27   70 1  
    74   29   71 1  
    75   30   72 1  
    76   31   73 1  
    77   32   74 1  
    78   33   75 1  
    79   34   76 1  
    80   34   77 1  
    81   36   78 1  
    82   36   79 1  
    83   36   80 1  
    84   37   81 1  
    85   37   82 1  
    86   37   83 1  
    87   40   84 1  
    88   42   85 1  
@<TRIPOS>SUBSTRUCTURE
     1 AO3         1

