### 
### Created by X-TOOL on Wed Jan  1 15:39:35 2020
### 

@<TRIPOS>MOLECULE
6hm2_ligand
   38    38     1     0     0
SMALL
GAST_HUCK


@<TRIPOS>ATOM
      1 OAM        20.4740  -28.0120   18.7200 O.2       1 G9Z        -0.3968
      2 CAB        19.2490  -27.8390   18.9150 C.2       1 G9Z         0.1804
      3 CAC        18.2880  -28.1720   17.9660 C.3       1 G9Z         0.0412
      4 CB         16.9140  -28.0390   18.5890 C.3       1 G9Z        -0.0008
      5 CA         17.1650  -27.3850   19.9220 C.3       1 G9Z         0.0992
      6 C          16.4240  -28.0660   20.9560 C.2       1 G9Z         0.0604
      7 O          15.1960  -27.7950   21.0700 O.co2     1 G9Z        -0.5666
      8 N          18.6880  -27.4200   20.0580 N.am      1 G9Z        -0.2548
      9 CAG        19.3970  -27.0100   21.3020 C.3       1 G9Z         0.0645
     10 CAH        19.8680  -25.5430   21.1970 C.3       1 G9Z         0.1039
     11 OAP        18.6970  -24.7310   20.9760 O.3       1 G9Z        -0.3871
     12 CAI        20.5870  -25.0910   22.4980 C.3       1 G9Z         0.1112
     13 OAQ        19.9160  -25.6350   23.6630 O.3       1 G9Z        -0.3865
     14 CAJ        22.1110  -25.4490   22.5040 C.3       1 G9Z         0.1114
     15 OAR        22.2780  -26.8820   22.4600 O.3       1 G9Z        -0.3865
     16 CAK        22.7980  -24.8660   23.7620 C.3       1 G9Z         0.1065
     17 OAT        22.5500  -23.4600   23.8390 O.3       1 G9Z        -0.3869
     18 CAL        24.3360  -25.1230   23.8690 C.3       1 G9Z         0.0727
     19 OAS        24.9800  -24.7230   22.6420 O.3       1 G9Z        -0.3924
     20 OXT        17.0410  -28.8810   21.6840 O.co2     1 G9Z        -0.5666
     21 H1         18.4429  -29.2086   17.6321 H         1 G9Z         0.0504
     22 H2         18.3696  -27.4931   17.1043 H         1 G9Z         0.0504
     23 H3         16.4504  -29.0276   18.7223 H         1 G9Z         0.0330
     24 H4         16.2631  -27.4100   17.9640 H         1 G9Z         0.0330
     25 H5         16.8300  -26.3375   19.9019 H         1 G9Z         0.0729
     26 H6         20.2709  -27.6610   21.4520 H         1 G9Z         0.0550
     27 H7         18.7137  -27.1104   22.1581 H         1 G9Z         0.0550
     28 H8         20.5604  -25.4380   20.3488 H         1 G9Z         0.0640
     29 H9         18.9539  -23.8190   20.9066 H         1 G9Z         0.2100
     30 H10        20.5105  -23.9949   22.5507 H         1 G9Z         0.0647
     31 H11        19.9251  -26.5839   23.6180 H         1 G9Z         0.2100
     32 H12        22.5808  -25.0103   21.6114 H         1 G9Z         0.0647
     33 H13        21.8784  -27.2221   21.6681 H         1 G9Z         0.2100
     34 H14        22.3298  -25.3457   24.6342 H         1 G9Z         0.0643
     35 H15        21.6138  -23.3071   23.8915 H         1 G9Z         0.2100
     36 H16        24.5169  -26.1936   24.0452 H         1 G9Z         0.0584
     37 H17        24.7474  -24.5391   24.7055 H         1 G9Z         0.0584
     38 H18        24.6246  -25.2278   21.9200 H         1 G9Z         0.2095
@<TRIPOS>BOND
     1    1    2 2  
     2    2    3 1  
     3    2    8 am 
     4    3    4 1  
     5    4    5 1  
     6    5    6 1  
     7    5    8 1  
     8    6    7 ar 
     9    6   20 ar 
    10    8    9 1  
    11    9   10 1  
    12   10   11 1  
    13   10   12 1  
    14   12   13 1  
    15   12   14 1  
    16   14   15 1  
    17   14   16 1  
    18   16   17 1  
    19   16   18 1  
    20   18   19 1  
    21    3   21 1  
    22    3   22 1  
    23    4   23 1  
    24    4   24 1  
    25    5   25 1  
    26    9   26 1  
    27    9   27 1  
    28   10   28 1  
    29   11   29 1  
    30   12   30 1  
    31   13   31 1  
    32   14   32 1  
    33   15   33 1  
    34   16   34 1  
    35   17   35 1  
    36   18   36 1  
    37   18   37 1  
    38   19   38 1  
@<TRIPOS>SUBSTRUCTURE
     1 G9Z         1

