### 
### Created by X-TOOL on Wed Jan  1 15:39:38 2020
### 

@<TRIPOS>MOLECULE
6hm6_ligand
   37    39     1     0     0
SMALL
GAST_HUCK


@<TRIPOS>ATOM
      1 N1         22.8720  -42.3290   39.8680 N.ar      1 GDK        -0.3033
      2 C4         20.9400  -40.9300   38.0660 C.ar      1 GDK        -0.0595
      3 C5         22.3230  -40.9390   37.9640 C.ar      1 GDK        -0.0103
      4 C6         22.9580  -39.8810   37.3030 C.ar      1 GDK        -0.0595
      5 C7         22.2130  -38.8390   36.7500 C.ar      1 GDK        -0.0592
      6 C8         23.1240  -42.0540   38.5570 C.ar      1 GDK         0.0784
      7 C10        24.5300  -44.0640   39.7920 C.ar      1 GDK        -0.0442
      8 C13        25.4820  -42.5740   35.8640 C.3       1 GDK         0.1219
      9 C15        24.3910  -41.1820   34.0390 C.ar      1 GDK        -0.0297
     10 C17        25.6280  -40.7210   32.0520 C.ar      1 GDK        -0.0410
     11 C1         20.0060  -37.7240   36.2590 C.3       1 GDK        -0.0306
     12 C2         20.8210  -38.8400   36.8550 C.ar      1 GDK        -0.0450
     13 C3         20.1880  -39.8870   37.5160 C.ar      1 GDK        -0.0592
     14 C12        24.0830  -42.7580   37.8260 C.ar      1 GDK         0.1300
     15 C11        24.7970  -43.7900   38.4510 C.ar      1 GDK        -0.0131
     16 C9         23.5650  -43.3180   40.4710 C.ar      1 GDK        -0.0026
     17 O          24.2340  -42.3980   36.5060 O.3       1 GDK        -0.2934
     18 C14        25.4910  -41.9140   34.5140 C.ar      1 GDK         0.0589
     19 N2         26.6350  -42.0430   33.7870 N.ar      1 GDK        -0.2953
     20 C18        26.6930  -41.4470   32.5780 C.ar      1 GDK         0.0029
     21 C16        24.4620  -40.5880   32.7890 C.ar      1 GDK        -0.0488
     22 H1         20.4357  -41.7413   38.5783 H         1 GDK         0.0609
     23 H2         24.0388  -39.8712   37.2200 H         1 GDK         0.0609
     24 H3         22.7162  -38.0269   36.2377 H         1 GDK         0.0561
     25 H4         25.0691  -44.8524   40.3046 H         1 GDK         0.0669
     26 H5         25.6740  -43.6499   35.7396 H         1 GDK         0.0814
     27 H6         26.2726  -42.1300   36.4867 H         1 GDK         0.0814
     28 H7         23.4965  -41.0827   34.6432 H         1 GDK         0.0652
     29 H8         25.7102  -40.2630   31.0729 H         1 GDK         0.0652
     30 H9         18.9382  -37.9086   36.4478 H         1 GDK         0.0394
     31 H10        20.1841  -37.6786   35.1745 H         1 GDK         0.0394
     32 H11        20.2999  -36.7691   36.7191 H         1 GDK         0.0394
     33 H12        19.1077  -39.8947   37.6053 H         1 GDK         0.0561
     34 H13        25.5389  -44.3613   37.9049 H         1 GDK         0.0655
     35 H14        23.3663  -43.5395   41.5134 H         1 GDK         0.0728
     36 H15        27.6023  -41.5368   31.9948 H         1 GDK         0.0803
     37 H16        23.6207  -40.0295   32.3949 H         1 GDK         0.0719
@<TRIPOS>BOND
     1    6    1 ar 
     2    1   16 ar 
     3    3    2 ar 
     4    2   13 ar 
     5    3    4 ar 
     6    6    3 1  
     7    4    5 ar 
     8    5   12 ar 
     9   14    6 ar 
    10   15    7 ar 
    11    7   16 ar 
    12   17    8 1  
    13    8   18 1  
    14   18    9 ar 
    15    9   21 ar 
    16   10   20 ar 
    17   21   10 ar 
    18   12   11 1  
    19   13   12 ar 
    20   14   15 ar 
    21   14   17 1  
    22   18   19 ar 
    23   19   20 ar 
    24    2   22 1  
    25    4   23 1  
    26    5   24 1  
    27    7   25 1  
    28    8   26 1  
    29    8   27 1  
    30    9   28 1  
    31   10   29 1  
    32   11   30 1  
    33   11   31 1  
    34   11   32 1  
    35   13   33 1  
    36   15   34 1  
    37   16   35 1  
    38   20   36 1  
    39   21   37 1  
@<TRIPOS>SUBSTRUCTURE
     1 GDK         1

