### 
### Created by X-TOOL on Wed Jan  1 15:39:35 2020
### 

@<TRIPOS>MOLECULE
6hm7_ligand
   55    58     1     0     0
SMALL
GAST_HUCK


@<TRIPOS>ATOM
      1 C4         25.8310  -42.7800   40.7740 C.ar      1 GDH        -0.0428
      2 C5         26.6830  -43.6040   40.0730 C.ar      1 GDH        -0.0790
      3 C6         26.8520  -43.3950   38.7150 C.ar      1 GDH        -0.0426
      4 C7         26.1650  -42.3570   38.1010 C.ar      1 GDH         0.0957
      5 C10        27.4380  -41.8550   34.7430 C.ar      1 GDH         0.0501
      6 C13        25.4750  -39.2840   32.7750 C.3       1 GDH        -0.0255
      7 C15        28.5470  -41.4480   32.7840 C.ar      1 GDH        -0.0052
      8 C17        25.3110  -41.5160   38.7910 C.ar      1 GDH         0.0371
      9 C20        22.5740  -39.4120   37.3320 C.ar      1 GDH        -0.0688
     10 C21        23.2570  -38.3520   36.7720 C.ar      1 GDH        -0.0380
     11 C22        22.4530  -37.2930   36.0640 C.3       1 GDH         0.0178
     12 C26        25.4420  -37.1940   36.2820 C.3       1 GDH         0.0182
     13 C28        25.3020  -39.3480   37.5440 C.ar      1 GDH        -0.0642
     14 C1         24.0670  -41.0650   42.2190 C.3       1 GDH         0.0598
     15 O2         24.3030  -40.8840   40.8130 O.3       1 GDH        -0.3219
     16 C3         25.1570  -41.7480   40.1450 C.ar      1 GDH         0.0922
     17 O8         26.2510  -42.0810   36.7520 O.3       1 GDH        -0.3038
     18 C9         27.3760  -42.6040   36.0420 C.3       1 GDH         0.1179
     19 C11        26.4570  -40.9380   34.3970 C.ar      1 GDH        -0.0295
     20 C12        26.5210  -40.2770   33.1870 C.ar      1 GDH        -0.0333
     21 C14        27.6040  -40.5300   32.3690 C.ar      1 GDH        -0.0401
     22 N16        28.4780  -42.1200   33.9470 N.ar      1 GDH        -0.3052
     23 C18        24.6200  -40.4230   38.1050 C.ar      1 GDH        -0.0385
     24 C19        23.2420  -40.4270   37.9820 C.ar      1 GDH        -0.0725
     25 C23        22.6300  -35.9130   36.6890 C.3       1 GDH        -0.0252
     26 N24        23.8940  -35.3090   36.2560 N.4       1 GDH         0.2296
     27 C25        25.0520  -35.8810   36.9410 C.3       1 GDH        -0.0250
     28 C27        24.6410  -38.3190   36.8830 C.ar      1 GDH        -0.0383
     29 H1         25.6859  -42.9424   41.8359 H         1 GDH         0.0452
     30 H2         27.2132  -44.4040   40.5768 H         1 GDH         0.0562
     31 H3         27.5120  -44.0334   38.1389 H         1 GDH         0.0452
     32 H4         24.7002  -39.2234   33.5535 H         1 GDH         0.0415
     33 H5         25.0181  -39.6046   31.8272 H         1 GDH         0.0415
     34 H6         25.9396  -38.2958   32.6423 H         1 GDH         0.0415
     35 H7         29.3934  -41.6388   32.1342 H         1 GDH         0.0780
     36 H8         21.4930  -39.4470   37.2594 H         1 GDH         0.0533
     37 H9         21.3889  -37.5677   36.1101 H         1 GDH         0.0460
     38 H10        22.7751  -37.2487   35.0132 H         1 GDH         0.0460
     39 H11        26.5139  -37.3807   36.4440 H         1 GDH         0.0463
     40 H12        25.2389  -37.1362   35.2025 H         1 GDH         0.0463
     41 H13        26.3824  -39.3116   37.6248 H         1 GDH         0.0511
     42 H14        23.3688  -40.2935   42.5759 H         1 GDH         0.0579
     43 H15        25.0183  -40.9791   42.7645 H         1 GDH         0.0579
     44 H16        23.6332  -42.0608   42.3928 H         1 GDH         0.0579
     45 H17        28.2988  -42.4436   36.6188 H         1 GDH         0.0808
     46 H18        27.2424  -43.6798   35.8556 H         1 GDH         0.0808
     47 H19        25.6377  -40.7398   35.0786 H         1 GDH         0.0586
     48 H20        27.7114  -40.0178   31.4197 H         1 GDH         0.0594
     49 H21        22.6748  -41.2474   38.4067 H         1 GDH         0.0520
     50 H22        22.6323  -36.0099   37.7847 H         1 GDH         0.0836
     51 H23        21.7957  -35.2663   36.3798 H         1 GDH         0.0836
     52 H24        23.8617  -34.3198   36.4470 H         1 GDH         0.2016
     53 H25        23.9997  -35.4565   35.2645 H         1 GDH         0.2016
     54 H26        25.8957  -35.1777   36.8817 H         1 GDH         0.0836
     55 H27        24.7994  -36.0626   37.9961 H         1 GDH         0.0836
@<TRIPOS>BOND
     1    2    1 ar 
     2   16    1 ar 
     3    3    2 ar 
     4    4    3 ar 
     5    4    8 ar 
     6   17    4 1  
     7    5   18 1  
     8   19    5 ar 
     9    5   22 ar 
    10   20    6 1  
    11    7   21 ar 
    12   22    7 ar 
    13    8   16 ar 
    14    8   23 1  
    15   10    9 ar 
    16    9   24 ar 
    17   10   11 1  
    18   28   10 ar 
    19   11   25 1  
    20   12   27 1  
    21   28   12 1  
    22   23   13 ar 
    23   13   28 ar 
    24   15   14 1  
    25   16   15 1  
    26   18   17 1  
    27   19   20 ar 
    28   20   21 ar 
    29   23   24 ar 
    30   25   26 1  
    31   26   27 1  
    32    1   29 1  
    33    2   30 1  
    34    3   31 1  
    35    6   32 1  
    36    6   33 1  
    37    6   34 1  
    38    7   35 1  
    39    9   36 1  
    40   11   37 1  
    41   11   38 1  
    42   12   39 1  
    43   12   40 1  
    44   13   41 1  
    45   14   42 1  
    46   14   43 1  
    47   14   44 1  
    48   18   45 1  
    49   18   46 1  
    50   19   47 1  
    51   21   48 1  
    52   24   49 1  
    53   25   50 1  
    54   25   51 1  
    55   26   52 1  
    56   26   53 1  
    57   27   54 1  
    58   27   55 1  
@<TRIPOS>SUBSTRUCTURE
     1 GDH         1

