### 
### Created by X-TOOL on Mon Aug  2 16:13:54 2021
### 

@<TRIPOS>MOLECULE
6hmb_ligand
   36    39     1     0     0
SMALL
GAST_HUCK


@<TRIPOS>ATOM
      1 C1         43.9700   31.5670    9.1500 C.ar      1 MOL         0.0307
      2 C2         44.4530   31.8700   10.4240 C.ar      1 MOL         0.0060
      3 C3         45.7680   32.3550   10.5550 C.ar      1 MOL        -0.0500
      4 C4         46.5300   32.5760    9.4230 C.ar      1 MOL        -0.0482
      5 C5         46.0300   32.2780    8.1530 C.ar      1 MOL         0.0098
      6 C6         44.7550   31.7600    8.0100 C.ar      1 MOL        -0.0344
      7 C7         42.3490   31.0730   11.3210 C.ar      1 MOL         0.0590
      8 C8         43.6060   31.6140   11.5510 C.ar      1 MOL         0.0270
      9 N9         42.6990   31.1090    8.9560 N.ar      1 MOL        -0.2833
     10 C10        41.9210   30.8590    9.9880 C.ar      1 MOL         0.1523
     11 C11        41.9980   31.0460   13.7090 C.ar      1 MOL         0.0146
     12 N12        43.2040   31.5700   13.9120 N.ar      1 MOL        -0.2918
     13 C13        44.0040   31.8340   12.8840 C.ar      1 MOL         0.0250
     14 C14        41.5470   30.7730   12.4300 C.ar      1 MOL        -0.0185
     15 N15        40.5850   30.4130    9.8130 N.pl3     1 MOL        -0.2502
     16 C16        39.9630   30.0310    8.5740 C.ar      1 MOL         0.0673
     17 C17        40.6850   29.5210    7.5260 C.ar      1 MOL        -0.0235
     18 C18        40.0100   29.1250    6.3910 C.ar      1 MOL         0.0315
     19 C19        38.6370   29.2210    6.2800 C.ar      1 MOL        -0.0590
     20 C20        37.9220   29.7080    7.3480 C.ar      1 MOL        -0.0704
     21 C21        38.5900   30.1190    8.4860 C.ar      1 MOL        -0.0371
     22 CL22       40.9510   28.4970    5.0330 Cl        1 MOL        -0.0736
     23 C23        46.8840   32.5700    6.9350 C.2       1 MOL         0.0635
     24 O24        46.6050   32.0170    5.8490 O.co2     1 MOL        -0.5602
     25 O25        47.8170   33.4110    7.0880 O.co2     1 MOL        -0.5602
     26 H1         46.1805   32.5539   11.5375 H         1 MOL         0.0636
     27 H2         47.5286   32.9859    9.5221 H         1 MOL         0.0629
     28 H3         44.3707   31.5076    7.0283 H         1 MOL         0.0641
     29 H4         41.3596   30.8299   14.5580 H         1 MOL         0.0804
     30 H5         44.9939   32.2311   13.0776 H         1 MOL         0.0861
     31 H6         40.5702   30.3257   12.2854 H         1 MOL         0.0763
     32 H7         40.0014   30.3573   10.6599 H         1 MOL         0.2200
     33 H8         41.7635   29.4311    7.5885 H         1 MOL         0.0546
     34 H9         38.1333   28.9184    5.3691 H         1 MOL         0.0529
     35 H10        36.8409   29.7694    7.2981 H         1 MOL         0.0589
     36 H11        38.0259   30.5165    9.3219 H         1 MOL         0.0542
@<TRIPOS>BOND
     1    2    1 ar 
     2    1    6 ar 
     3    9    1 ar 
     4    2    3 ar 
     5    8    2 ar 
     6    3    4 ar 
     7    4    5 ar 
     8    6    5 ar 
     9    5   23 1  
    10    7    8 ar 
    11    7   10 ar 
    12   14    7 ar 
    13    8   13 ar 
    14   10    9 ar 
    15   10   15 1  
    16   11   12 ar 
    17   11   14 ar 
    18   12   13 ar 
    19   15   16 1  
    20   16   17 ar 
    21   16   21 ar 
    22   17   18 ar 
    23   18   19 ar 
    24   18   22 1  
    25   19   20 ar 
    26   20   21 ar 
    27   23   24 ar 
    28   23   25 ar 
    29    3   26 1  
    30    4   27 1  
    31    6   28 1  
    32   11   29 1  
    33   13   30 1  
    34   14   31 1  
    35   15   32 1  
    36   17   33 1  
    37   19   34 1  
    38   20   35 1  
    39   21   36 1  
@<TRIPOS>SUBSTRUCTURE
     1 MOL         1

