### 
### Created by X-TOOL on Wed Jan  1 15:39:34 2020
### 

@<TRIPOS>MOLECULE
6hmg_ligand
   46    48     1     0     0
SMALL
GAST_HUCK


@<TRIPOS>ATOM
      1 C7          4.9550   24.7400    3.3070 C.3       1 GDQ         0.0030
      2 C4          2.8120   24.0270    4.3650 C.3       1 GDQ         0.0920
      3 C2          4.9260   22.7740    4.9830 C.3       1 GDQ         0.0508
      4 C1          5.7090   23.7240    4.1350 C.3       1 GDQ         0.0246
      5 O4          1.4030   23.7780    4.1660 O.3       1 GDQ        -0.3887
      6 C5          3.5100   24.3740    3.0410 C.3       1 GDQ         0.0161
      7 C6          2.8480   25.5320    2.2730 C.3       1 GDQ         0.0497
      8 O6          3.0000   26.8010    2.9110 O.3       1 GDQ        -0.3946
      9 C3          3.4080   22.7870    4.9930 C.3       1 GDQ         0.1353
     10 O3          2.9480   22.7300    6.3580 O.3       1 GDQ        -0.3371
     11 N2          5.6090   22.3070    3.7450 N.4       1 GDQ         0.2413
     12 C1          3.0940   21.4100    6.9530 C.3       1 GLC         0.1886
     13 C2          2.1660   21.3230    8.1810 C.3       1 GLC         0.1341
     14 C3          2.6340   22.2210    9.3110 C.3       1 GLC         0.1141
     15 C4          4.0870   21.8880    9.6410 C.3       1 GLC         0.1119
     16 C5          4.9160   22.0790    8.3960 C.3       1 GLC         0.1130
     17 C6          6.3730   21.6780    8.6170 C.3       1 GLC         0.0730
     18 O2          0.8520   21.6880    7.7990 O.3       1 GLC        -0.3841
     19 O3          1.8240   22.0210   10.4860 O.3       1 GLC        -0.3864
     20 O4          4.5830   22.7720   10.6600 O.3       1 GLC        -0.3865
     21 O5          4.4210   21.1470    7.4100 O.3       1 GLC        -0.3405
     22 O6          7.1590   21.8580    7.4330 O.3       1 GLC        -0.3924
     23 H1          5.4678   24.8457    2.3396 H         1 GDQ         0.0326
     24 H2          4.9747   25.7022    3.8396 H         1 GDQ         0.0326
     25 H3          2.9347   24.8751    5.0546 H         1 GDQ         0.0625
     26 H4          5.3020   22.4918    5.9775 H         1 GDQ         0.0934
     27 H5          6.6593   24.1463    4.4936 H         1 GDQ         0.0908
     28 H6          0.9937   24.5543    3.8023 H         1 GDQ         0.2099
     29 H7          3.4810   23.4799    2.4009 H         1 GDQ         0.0351
     30 H8          1.7734   25.3170    2.1778 H         1 GDQ         0.0561
     31 H9          3.3006   25.5894    1.2721 H         1 GDQ         0.0561
     32 H10         3.9243   27.0048    2.9918 H         1 GDQ         0.2094
     33 H11         3.0483   21.9044    4.4438 H         1 GDQ         0.0682
     34 H12         5.0638   22.0451    2.9387 H         1 GDQ         0.2024
     35 H13         6.4177   21.7091    3.8124 H         1 GDQ         0.2024
     36 H14         2.8104   20.6503    6.2098 H         1 GDQ         0.0938
     37 H15         2.1591   20.2838    8.5415 H         1 GDQ         0.0671
     38 H16         2.5598   23.2718    8.9943 H         1 GDQ         0.0648
     39 H17         4.1595   20.8462    9.9866 H         1 GDQ         0.0647
     40 H18         4.8461   23.1193    8.0455 H         1 GDQ         0.0647
     41 H19         6.4102   20.6188    8.9116 H         1 GDQ         0.0584
     42 H20         6.7948   22.2976    9.4221 H         1 GDQ         0.0584
     43 H21         0.2688   21.5912    8.5427 H         1 GDQ         0.2101
     44 H22         1.8890   21.1148   10.7636 H         1 GDQ         0.2100
     45 H23         5.4925   22.5661   10.8410 H         1 GDQ         0.2100
     46 H24         7.1362   22.7721    7.1750 H         1 GDQ         0.2095
@<TRIPOS>BOND
     1    1    4 1  
     2    6    1 1  
     3    2    5 1  
     4    2    6 1  
     5    2    9 1  
     6    4    3 1  
     7    3    9 1  
     8    3   11 1  
     9    4   11 1  
    10    6    7 1  
    11    7    8 1  
    12    9   10 1  
    13   10   12 1  
    14   12   13 1  
    15   12   21 1  
    16   13   14 1  
    17   13   18 1  
    18   14   15 1  
    19   14   19 1  
    20   15   16 1  
    21   15   20 1  
    22   16   17 1  
    23   16   21 1  
    24   17   22 1  
    25    1   23 1  
    26    1   24 1  
    27    2   25 1  
    28    3   26 1  
    29    4   27 1  
    30    5   28 1  
    31    6   29 1  
    32    7   30 1  
    33    7   31 1  
    34    8   32 1  
    35    9   33 1  
    36   11   34 1  
    37   11   35 1  
    38   12   36 1  
    39   13   37 1  
    40   14   38 1  
    41   15   39 1  
    42   16   40 1  
    43   17   41 1  
    44   17   42 1  
    45   18   43 1  
    46   19   44 1  
    47   20   45 1  
    48   22   46 1  
@<TRIPOS>SUBSTRUCTURE
     1 GDQ         1

