### 
### Created by X-TOOL on Mon Aug  2 16:13:54 2021
### 

@<TRIPOS>MOLECULE
6hmp_ligand
   71    75     1     0     0
SMALL
GAST_HUCK


@<TRIPOS>ATOM
      1 C10        -0.0620    6.4770   12.8320 C.3       1 GEW        -0.0058
      2 C15         1.4870    3.3770   16.2180 C.ar      1 GEW         0.1352
      3 C17         2.7740    3.5910   18.2420 C.ar      1 GEW         0.0133
      4 C21         3.2880    4.3690   19.4840 C.2       1 GEW         0.1071
      5 C22         4.5260    4.2400   20.0610 C.2       1 GEW         0.0519
      6 C24         3.3980    5.6500   21.2330 C.2       1 GEW         0.2438
      7 C28         3.1670    8.1220   24.5380 C.ar      1 GEW        -0.0326
      8 C01        -2.2910    4.3130    8.6350 C.3       1 GEW         0.0568
      9 C03        -2.4500    6.4600    9.8440 C.ar      1 GEW         0.0728
     10 C04        -3.1420    7.6620   10.0450 C.ar      1 GEW        -0.0486
     11 C05        -2.8410    8.4860   11.1320 C.ar      1 GEW        -0.0480
     12 C06        -1.8430    8.0990   12.0250 C.ar      1 GEW         0.0812
     13 C08        -1.6000   10.2640   13.0280 C.3       1 GEW         0.0553
     14 C09        -1.1610    6.9060   11.8170 C.ar      1 GEW        -0.0197
     15 C11        -0.7650    5.8300   14.0470 C.3       1 GEW         0.0519
     16 C12         0.2420    5.3790   15.1570 C.2       1 GEW         0.2092
     17 C16         1.9200    4.1570   17.2860 C.ar      1 GEW        -0.0072
     18 C18         3.1070    2.2520   18.0800 C.ar      1 GEW        -0.0432
     19 C19         2.6290    1.5300   16.9820 C.ar      1 GEW        -0.0099
     20 C27         2.0620    8.1130   23.6950 C.ar      1 GEW         0.0774
     21 C29         3.1720    8.9140   25.6830 C.ar      1 GEW        -0.0204
     22 C30         2.0600    9.6790   25.9920 C.ar      1 GEW         0.1389
     23 C32         0.9480    9.6580   25.1660 C.ar      1 GEW        -0.0204
     24 C33         0.9450    8.8630   24.0160 C.ar      1 GEW        -0.0326
     25 C35         1.2280    5.6830   20.0170 C.3       1 GEW         0.0497
     26 C36         5.7010    3.3570   19.6210 C.ar      1 GEW        -0.0204
     27 C37         6.2550    2.4630   20.5420 C.ar      1 GEW        -0.0589
     28 C38         7.3220    1.6530   20.1600 C.ar      1 GEW        -0.0300
     29 C39         7.8290    1.7420   18.8630 C.ar      1 GEW         0.1304
     30 C41         7.2730    2.6390   17.9540 C.ar      1 GEW        -0.0300
     31 C42         6.2040    3.4500   18.3330 C.ar      1 GEW        -0.0589
     32 C43        -1.4550    6.0850   10.7450 C.ar      1 GEW        -0.0398
     33 F31         2.0590   10.4580   27.1140 F         1 GEW        -0.1782
     34 F40         8.8750    0.9540   18.4650 F         1 GEW        -0.1848
     35 N14         0.5720    3.9540   15.2100 N.am      1 GEW        -0.2191
     36 N20         1.8270    2.1100   16.0910 N.ar      1 GEW        -0.2897
     37 N23         4.5770    5.0290   21.1130 N.2       1 GEW        -0.2802
     38 N25         3.1360    6.6080   22.3270 N.2       1 GEW        -0.1279
     39 N26         2.0810    7.2360   22.5090 N.2       1 GEW        -0.1716
     40 N34         2.6020    5.2320   20.2200 N.pl3     1 GEW        -0.2193
     41 O02        -2.7730    5.6520    8.7220 O.3       1 GEW        -0.3301
     42 O07        -1.4930    8.8670   13.1560 O.3       1 GEW        -0.3321
     43 O13         0.6940    6.1730   15.9100 O.2       1 GEW        -0.3828
     44 H1          0.5111    7.3578   13.1571 H         1 GEW         0.0427
     45 H2          0.6174    5.7503   12.3626 H         1 GEW         0.0427
     46 H3          4.0296    7.5091   24.3027 H         1 GEW         0.0669
     47 H4         -2.6461    3.8556    7.6998 H         1 GEW         0.0573
     48 H5         -2.6640    3.7326    9.4917 H         1 GEW         0.0573
     49 H6         -1.1911    4.3177    8.6463 H         1 GEW         0.0573
     50 H7         -3.9196    7.9556    9.3491 H         1 GEW         0.0458
     51 H8         -3.3776    9.4162   11.2795 H         1 GEW         0.0496
     52 H9         -1.3005   10.7427   13.9720 H         1 GEW         0.0570
     53 H10        -2.6410   10.5322   12.7951 H         1 GEW         0.0570
     54 H11        -0.9421   10.6094   12.2169 H         1 GEW         0.0570
     55 H12        -1.3256    4.9490   13.7013 H         1 GEW         0.0528
     56 H13        -1.4626    6.5615   14.4808 H         1 GEW         0.0528
     57 H14         1.6008    5.1889   17.3772 H         1 GEW         0.0579
     58 H15         3.7420    1.7633   18.8101 H         1 GEW         0.0573
     59 H16         2.9131    0.4916   16.8553 H         1 GEW         0.0761
     60 H17         4.0421    8.9317   26.3293 H         1 GEW         0.0621
     61 H18         0.0795   10.2585   25.4116 H         1 GEW         0.0621
     62 H19         0.0695    8.8344   23.3775 H         1 GEW         0.0669
     63 H20         0.8087    5.1920   19.1264 H         1 GEW         0.0582
     64 H21         1.2174    6.7735   19.8736 H         1 GEW         0.0582
     65 H22         0.6228    5.4231   20.8980 H         1 GEW         0.0582
     66 H23         5.8564    2.4004   21.5481 H         1 GEW         0.0590
     67 H24         7.7568    0.9563   20.8675 H         1 GEW         0.0599
     68 H25         7.6727    2.7068   16.9486 H         1 GEW         0.0599
     69 H26         5.7699    4.1476   17.6259 H         1 GEW         0.0590
     70 H27        -0.9152    5.1553   10.6058 H         1 GEW         0.0453
     71 H28         0.1600    3.3431   14.5339 H         1 GEW         0.2306
@<TRIPOS>BOND
     1    1   14 1  
     2   15    1 1  
     3   17    2 ar 
     4    2   35 1  
     5    2   36 ar 
     6    4    3 1  
     7    3   17 ar 
     8    3   18 ar 
     9    4    5 2  
    10   40    4 1  
    11    5   26 1  
    12   37    5 1  
    13    6   37 2  
    14   38    6 1  
    15    6   40 1  
    16   20    7 ar 
    17    7   21 ar 
    18   41    8 1  
    19    9   10 ar 
    20   32    9 ar 
    21    9   41 1  
    22   11   10 ar 
    23   12   11 ar 
    24   14   12 ar 
    25   12   42 1  
    26   42   13 1  
    27   14   32 ar 
    28   16   15 1  
    29   35   16 am 
    30   16   43 2  
    31   18   19 ar 
    32   19   36 ar 
    33   20   24 ar 
    34   39   20 1  
    35   21   22 ar 
    36   23   22 ar 
    37   22   33 1  
    38   24   23 ar 
    39   40   25 1  
    40   26   27 ar 
    41   26   31 ar 
    42   27   28 ar 
    43   28   29 ar 
    44   30   29 ar 
    45   29   34 1  
    46   31   30 ar 
    47   38   39 2  
    48    1   44 1  
    49    1   45 1  
    50    7   46 1  
    51    8   47 1  
    52    8   48 1  
    53    8   49 1  
    54   10   50 1  
    55   11   51 1  
    56   13   52 1  
    57   13   53 1  
    58   13   54 1  
    59   15   55 1  
    60   15   56 1  
    61   17   57 1  
    62   18   58 1  
    63   19   59 1  
    64   21   60 1  
    65   23   61 1  
    66   24   62 1  
    67   25   63 1  
    68   25   64 1  
    69   25   65 1  
    70   27   66 1  
    71   28   67 1  
    72   30   68 1  
    73   31   69 1  
    74   32   70 1  
    75   35   71 1  
@<TRIPOS>SUBSTRUCTURE
     1 GEW         1

