### 
### Created by X-TOOL on Mon Aug  2 16:13:54 2021
### 

@<TRIPOS>MOLECULE
6hmr_ligand
   67    71     1     0     0
SMALL
GAST_HUCK


@<TRIPOS>ATOM
      1 C10        -0.0920    6.4500   13.5010 C.3       1 GE5        -0.0058
      2 C15         1.5340    3.2050   16.5930 C.ar      1 GE5         0.1358
      3 C17         2.9060    3.2830   18.5250 C.ar      1 GE5         0.0017
      4 C21         3.4310    4.0520   19.7230 C.2       1 GE5         0.0778
      5 C22         4.6460    3.8340   20.4360 C.2       1 GE5         0.0551
      6 C24         3.5850    5.6150   21.6050 C.2       1 GE5         0.2157
      7 C28         2.1860    8.3670   23.6120 C.ar      1 GE5         0.0843
      8 C01        -1.9750    4.8740    8.8940 C.3       1 GE5         0.0568
      9 C03        -2.0520    6.8900   10.2320 C.ar      1 GE5         0.0728
     10 C04        -2.5620    8.1640   10.4060 C.ar      1 GE5        -0.0486
     11 C05        -2.2740    8.8840   11.5550 C.ar      1 GE5        -0.0480
     12 C06        -1.4800    8.3240   12.5490 C.ar      1 GE5         0.0812
     13 C08        -0.9720   10.4150   13.5670 C.3       1 GE5         0.0553
     14 C09        -0.9770    7.0450   12.3950 C.ar      1 GE5        -0.0197
     15 C11        -0.8110    5.5970   14.5390 C.3       1 GE5         0.0519
     16 C12         0.1320    5.1560   15.6780 C.2       1 GE5         0.2092
     17 C16         2.0440    3.9210   17.6610 C.ar      1 GE5        -0.0076
     18 C18         3.2210    1.9530   18.3090 C.ar      1 GE5        -0.0436
     19 C19         2.6760    1.3060   17.2230 C.ar      1 GE5        -0.0093
     20 C29         1.0750    9.2010   23.6160 C.ar      1 GE5        -0.0301
     21 C30         0.9200   10.1500   24.6230 C.ar      1 GE5        -0.0541
     22 C31         1.8630   10.2650   25.6280 C.ar      1 GE5        -0.0564
     23 C32         2.9680    9.4350   25.6270 C.ar      1 GE5        -0.0541
     24 C33         3.1260    8.4890   24.6250 C.ar      1 GE5        -0.0301
     25 C34         5.7890    2.8730   20.1350 C.ar      1 GE5        -0.0132
     26 C35         6.3750    2.1060   21.1150 C.ar      1 GE5        -0.0562
     27 C36         7.4330    1.2790   20.8080 C.ar      1 GE5        -0.0282
     28 C37         7.9490    1.2540   19.5220 C.ar      1 GE5         0.1322
     29 C39         7.3800    2.0390   18.5440 C.ar      1 GE5        -0.0282
     30 C40         6.3120    2.8610   18.8500 C.ar      1 GE5        -0.0562
     31 C41        -1.2550    6.3290   11.2310 C.ar      1 GE5        -0.0398
     32 F38         8.9950    0.4460   19.2010 F         1 GE5        -0.1834
     33 N14         0.6410    3.8010   15.6350 N.am      1 GE5        -0.2190
     34 N20         1.8540    1.9440   16.4080 N.ar      1 GE5        -0.2890
     35 N23         4.7210    4.8010   21.5410 N.2       1 GE5        -0.2685
     36 N26         3.3590    6.6560   22.5950 N.2       1 GE5        -0.1319
     37 N27         2.3610    7.3530   22.5820 N.2       1 GE5        -0.1640
     38 O02        -2.3750    6.2170    9.0380 O.3       1 GE5        -0.3301
     39 O07        -1.1880    9.0370   13.7240 O.3       1 GE5        -0.3321
     40 O13         0.4340    5.9040   16.5490 O.2       1 GE5        -0.3828
     41 S25         2.5530    5.2290   20.4060 S.3       1 GE5         0.0309
     42 H1          0.3954    7.2834   14.0282 H         1 GE5         0.0427
     43 H2          0.6731    5.8227   13.0202 H         1 GE5         0.0427
     44 H3         -2.3015    4.4973    7.9134 H         1 GE5         0.0573
     45 H4         -2.4318    4.2679    9.6902 H         1 GE5         0.0573
     46 H5         -0.8793    4.8080    8.9658 H         1 GE5         0.0573
     47 H6         -3.1907    8.6020    9.6392 H         1 GE5         0.0458
     48 H7         -2.6689    9.8859   11.6786 H         1 GE5         0.0496
     49 H8         -0.7535   10.8658   14.5463 H         1 GE5         0.0570
     50 H9         -1.8729   10.8813   13.1416 H         1 GE5         0.0570
     51 H10        -0.1203   10.5779   12.8902 H         1 GE5         0.0570
     52 H11        -1.2142    4.7008   14.0447 H         1 GE5         0.0528
     53 H12        -1.6375    6.1820   14.9687 H         1 GE5         0.0528
     54 H13         1.7718    4.9590   17.8141 H         1 GE5         0.0585
     55 H14         3.8869    1.4285   18.9847 H         1 GE5         0.0579
     56 H15         2.9224    0.2672   17.0352 H         1 GE5         0.0762
     57 H16         0.3285    9.1129   22.8349 H         1 GE5         0.0684
     58 H17         0.0546   10.8028   24.6192 H         1 GE5         0.0633
     59 H18         1.7361   11.0023   26.4124 H         1 GE5         0.0662
     60 H19         3.7122    9.5234   26.4103 H         1 GE5         0.0633
     61 H20         3.9929    7.8383   24.6335 H         1 GE5         0.0684
     62 H21         6.0030    2.1525   22.1321 H         1 GE5         0.0605
     63 H22         7.8635    0.6455   21.5751 H         1 GE5         0.0604
     64 H23         7.7702    2.0121   17.5330 H         1 GE5         0.0604
     65 H24         5.8823    3.4974   18.0849 H         1 GE5         0.0605
     66 H25        -0.8501    5.3318   11.1015 H         1 GE5         0.0453
     67 H26         0.3453    3.2279   14.8707 H         1 GE5         0.2306
@<TRIPOS>BOND
     1    1   14 1  
     2   15    1 1  
     3   17    2 ar 
     4    2   33 1  
     5    2   34 ar 
     6    4    3 1  
     7    3   17 ar 
     8    3   18 ar 
     9    4    5 2  
    10   41    4 1  
    11    5   25 1  
    12   35    5 1  
    13    6   35 2  
    14   36    6 1  
    15    6   41 1  
    16    7   20 ar 
    17    7   24 ar 
    18   37    7 1  
    19   38    8 1  
    20    9   10 ar 
    21   31    9 ar 
    22    9   38 1  
    23   11   10 ar 
    24   12   11 ar 
    25   14   12 ar 
    26   12   39 1  
    27   39   13 1  
    28   14   31 ar 
    29   16   15 1  
    30   33   16 am 
    31   16   40 2  
    32   18   19 ar 
    33   19   34 ar 
    34   20   21 ar 
    35   21   22 ar 
    36   23   22 ar 
    37   24   23 ar 
    38   25   26 ar 
    39   25   30 ar 
    40   26   27 ar 
    41   27   28 ar 
    42   29   28 ar 
    43   28   32 1  
    44   30   29 ar 
    45   36   37 2  
    46    1   42 1  
    47    1   43 1  
    48    8   44 1  
    49    8   45 1  
    50    8   46 1  
    51   10   47 1  
    52   11   48 1  
    53   13   49 1  
    54   13   50 1  
    55   13   51 1  
    56   15   52 1  
    57   15   53 1  
    58   17   54 1  
    59   18   55 1  
    60   19   56 1  
    61   20   57 1  
    62   21   58 1  
    63   22   59 1  
    64   23   60 1  
    65   24   61 1  
    66   26   62 1  
    67   27   63 1  
    68   29   64 1  
    69   30   65 1  
    70   31   66 1  
    71   33   67 1  
@<TRIPOS>SUBSTRUCTURE
     1 GE5         1

