### 
### Created by X-TOOL on Wed Jan  1 15:39:35 2020
### 

@<TRIPOS>MOLECULE
6hmx_ligand
   51    53     1     0     0
SMALL
GAST_HUCK


@<TRIPOS>ATOM
      1 C1        -41.0660   39.8980   -6.9020 C.3       1 GEZ         0.0607
      2 O2        -40.4120   40.2230   -5.6670 O.3       1 GEZ        -0.3167
      3 C3        -40.3390   39.2750   -4.6690 C.ar      1 GEZ         0.1183
      4 C4        -40.8880   38.0230   -4.7800 C.ar      1 GEZ        -0.0189
      5 C5        -40.7680   37.0590   -3.7450 C.ar      1 GEZ         0.0206
      6 N6        -41.3510   35.8270   -3.9540 N.ar      1 GEZ        -0.3278
      7 C7        -41.2590   34.9720   -2.9300 C.ar      1 GEZ        -0.0145
      8 C8        -40.6380   35.2310   -1.7280 C.ar      1 GEZ        -0.0171
      9 C9        -40.0250   36.4570   -1.4990 C.ar      1 GEZ         0.0881
     10 N10       -39.3670   36.7790   -0.2880 N.pl3     1 GEZ        -0.2414
     11 C11       -39.2130   35.9680    0.8060 C.2       1 GEZ         0.1727
     12 N12       -39.6970   36.3450    1.9850 N.pl3     1 GEZ        -0.2168
     13 N13       -39.3700   35.3150    2.7920 N.2       1 GEZ        -0.2557
     14 C14       -38.6880   34.3100    2.1970 C.2       1 GEZ        -0.0106
     15 C15       -38.2640   33.0970    2.9760 C.3       1 GEZ        -0.0333
     16 C16       -38.5360   34.6880    0.8770 C.2       1 GEZ        -0.0116
     17 C17       -37.8540   34.0040   -0.2480 C.3       1 GEZ        -0.0518
     18 C18       -40.0760   37.4260   -2.5490 C.ar      1 GEZ         0.0287
     19 C19       -39.5260   38.7290   -2.4500 C.ar      1 GEZ        -0.0247
     20 C20       -39.6590   39.6150   -3.4960 C.ar      1 GEZ         0.1240
     21 S21       -38.8710   41.2050   -3.2560 S.o2      1 GEZ         0.0021
     22 O22       -37.8680   40.9900   -2.2520 O.2       1 GEZ        -0.1701
     23 O23       -38.4630   41.7480   -4.5240 O.2       1 GEZ        -0.1701
     24 C24       -40.0870   42.3660   -2.5440 C.3       1 GEZ         0.0834
     25 C25       -40.5690   41.8550   -1.1990 C.3       1 GEZ        -0.0402
     26 C26       -39.3520   43.6890   -2.3720 C.3       1 GEZ        -0.0402
     27 C27       -41.2960   42.5580   -3.4530 C.3       1 GEZ        -0.0402
     28 H1        -41.0293   40.7666   -7.5759 H         1 GEZ         0.0580
     29 H2        -42.1147   39.6325   -6.7028 H         1 GEZ         0.0580
     30 H3        -40.5553   39.0458   -7.3742 H         1 GEZ         0.0580
     31 H4        -41.4284   37.7625   -5.6829 H         1 GEZ         0.0491
     32 H5        -41.7103   33.9945   -3.0562 H         1 GEZ         0.0790
     33 H6        -40.6274   34.4720   -0.9541 H         1 GEZ         0.0528
     34 H7        -38.9607   37.7232   -0.2219 H         1 GEZ         0.2202
     35 H8        -40.1991   37.2120    2.2240 H         1 GEZ         0.2434
     36 H9        -37.7262   32.4043    2.3119 H         1 GEZ         0.0365
     37 H10       -39.1529   32.5956    3.3864 H         1 GEZ         0.0365
     38 H11       -37.6024   33.4030    3.7998 H         1 GEZ         0.0365
     39 H12       -37.9426   34.6165   -1.1574 H         1 GEZ         0.0277
     40 H13       -38.3225   33.0236   -0.4192 H         1 GEZ         0.0277
     41 H14       -36.7910   33.8645   -0.0021 H         1 GEZ         0.0277
     42 H15       -39.0004   39.0281   -1.5504 H         1 GEZ         0.0666
     43 H16       -41.3005   42.5612   -0.7792 H         1 GEZ         0.0251
     44 H17       -39.7135   41.7628   -0.5138 H         1 GEZ         0.0251
     45 H18       -41.0425   40.8707   -1.3290 H         1 GEZ         0.0251
     46 H19       -40.0366   44.4357   -1.9434 H         1 GEZ         0.0251
     47 H20       -38.9937   44.0394   -3.3512 H         1 GEZ         0.0251
     48 H21       -38.4950   43.5473   -1.6971 H         1 GEZ         0.0251
     49 H22       -41.9987   43.2628   -2.9845 H         1 GEZ         0.0251
     50 H23       -41.7958   41.5904   -3.6077 H         1 GEZ         0.0251
     51 H24       -40.9658   42.9594   -4.4225 H         1 GEZ         0.0251
@<TRIPOS>BOND
     1    1    2 1  
     2    2    3 1  
     3    3    4 ar 
     4    3   20 ar 
     5    4    5 ar 
     6    5    6 ar 
     7    5   18 ar 
     8    6    7 ar 
     9    7    8 ar 
    10    8    9 ar 
    11    9   10 1  
    12    9   18 ar 
    13   10   11 1  
    14   11   12 1  
    15   11   16 2  
    16   12   13 1  
    17   13   14 2  
    18   14   15 1  
    19   14   16 1  
    20   16   17 1  
    21   18   19 ar 
    22   19   20 ar 
    23   20   21 1  
    24   21   22 2  
    25   21   23 2  
    26   21   24 1  
    27   24   25 1  
    28   24   26 1  
    29   24   27 1  
    30    1   28 1  
    31    1   29 1  
    32    1   30 1  
    33    4   31 1  
    34    7   32 1  
    35    8   33 1  
    36   10   34 1  
    37   12   35 1  
    38   15   36 1  
    39   15   37 1  
    40   15   38 1  
    41   17   39 1  
    42   17   40 1  
    43   17   41 1  
    44   19   42 1  
    45   25   43 1  
    46   25   44 1  
    47   25   45 1  
    48   26   46 1  
    49   26   47 1  
    50   26   48 1  
    51   27   49 1  
    52   27   50 1  
    53   27   51 1  
@<TRIPOS>SUBSTRUCTURE
     1 GEZ         1

