### 
### Created by X-TOOL on Mon Aug  2 16:13:54 2021
### 

@<TRIPOS>MOLECULE
6hni_ligand
   24    24     1     0     0
SMALL
GAST_HUCK


@<TRIPOS>ATOM
      1 N          13.4250   -6.5310   59.8300 N.4       1 TYR         0.2340
      2 CA         14.6260   -6.7160   58.9960 C.3       1 TYR         0.0363
      3 C          14.8860   -5.4520   58.1920 C.2       1 TYR         0.0864
      4 O          15.7530   -5.4830   57.3270 O.co2     1 TYR        -0.5641
      5 CB         14.5940   -8.0260   58.1830 C.3       1 TYR         0.0311
      6 CG         14.6260   -9.2430   59.0470 C.ar      1 TYR        -0.0467
      7 CD1        15.7990   -9.5390   59.8020 C.ar      1 TYR        -0.0684
      8 CD2        13.5630  -10.0770   59.2230 C.ar      1 TYR        -0.0684
      9 CE1        15.8140  -10.6060   60.6620 C.ar      1 TYR        -0.0398
     10 CE2        13.5640  -11.1550   60.0810 C.ar      1 TYR        -0.0398
     11 CZ         14.7310  -11.4250   60.8340 C.ar      1 TYR         0.0805
     12 OH         14.7500  -12.4950   61.7070 O.3       1 TYR        -0.3376
     13 OXT        14.3140   -4.4200   58.4760 O.co2     1 TYR        -0.5641
     14 H1         13.2534   -7.3694   60.3626 H         1 TYR         0.2012
     15 H2         12.6313   -6.3404   59.2386 H         1 TYR         0.2012
     16 H3         13.5689   -5.7568   60.4592 H         1 TYR         0.2012
     17 H4         15.4763   -6.8194   59.6861 H         1 TYR         0.1046
     18 H5         15.4673   -8.0464   57.5145 H         1 TYR         0.0479
     19 H6         13.6723   -8.0450   57.5829 H         1 TYR         0.0479
     20 H7         16.6813   -8.9183   59.6954 H         1 TYR         0.0530
     21 H8         12.6619   -9.8804   58.6534 H         1 TYR         0.0530
     22 H9         16.7168  -10.8087   61.2267 H         1 TYR         0.0525
     23 H10        12.6869  -11.7846   60.1774 H         1 TYR         0.0525
     24 H11        14.5930  -13.2984   61.2249 H         1 TYR         0.2458
@<TRIPOS>BOND
     1    1    2 1  
     2    2    3 1  
     3    2    5 1  
     4    3    4 ar 
     5    3   13 ar 
     6    5    6 1  
     7    6    7 ar 
     8    6    8 ar 
     9    7    9 ar 
    10    8   10 ar 
    11    9   11 ar 
    12   10   11 ar 
    13   11   12 1  
    14    1   14 1  
    15    1   15 1  
    16    1   16 1  
    17    2   17 1  
    18    5   18 1  
    19    5   19 1  
    20    7   20 1  
    21    8   21 1  
    22    9   22 1  
    23   10   23 1  
    24   12   24 1  
@<TRIPOS>SUBSTRUCTURE
     1 TYR         1

