### 
### Created by X-TOOL on Mon Aug  2 16:13:55 2021
### 

@<TRIPOS>MOLECULE
6hop_ligand
   23    23     1     0     0
SMALL
GAST_HUCK


@<TRIPOS>ATOM
      1 C4        -23.0810   17.6870  -11.1120 C.ar      1 FER         0.1217
      2 C5        -23.1920   16.5350  -10.3470 C.ar      1 FER        -0.0360
      3 C6        -23.0740   15.3190  -10.9850 C.ar      1 FER        -0.0694
      4 C3        -22.8410   17.6320  -12.4750 C.ar      1 FER         0.1234
      5 C2        -22.7180   16.4070  -13.1080 C.ar      1 FER        -0.0306
      6 C1        -22.8520   15.2480  -12.3440 C.ar      1 FER        -0.0377
      7 C10       -22.6840   18.7050  -14.6040 C.3       1 FER         0.0570
      8 C7        -22.6990   13.8740  -12.9290 C.2       1 FER        -0.0564
      9 C8        -22.4180   13.6540  -14.2120 C.2       1 FER        -0.0344
     10 C9        -22.2400   12.2130  -14.5930 C.2       1 FER         0.0477
     11 O1        -22.1960   11.9060  -15.8040 O.co2     1 FER        -0.5654
     12 O2        -22.0620   11.3510  -13.6770 O.co2     1 FER        -0.5654
     13 O4        -23.1950   18.9260  -10.4710 O.3       1 FER        -0.3332
     14 O3        -22.7360   18.8390  -13.1960 O.3       1 FER        -0.3241
     15 H1        -23.3665   16.5897   -9.2785 H         1 FER         0.0526
     16 H2        -23.1570   14.4042  -10.4094 H         1 FER         0.0533
     17 H3        -22.5221   16.3500  -14.1726 H         1 FER         0.0530
     18 H4        -22.6031   19.7008  -15.0643 H         1 FER         0.0573
     19 H5        -23.5999   18.2101  -14.9593 H         1 FER         0.0573
     20 H6        -21.8086   18.1001  -14.8827 H         1 FER         0.0573
     21 H7        -22.8240   13.0147  -12.2718 H         1 FER         0.0678
     22 H8        -22.3239   14.4633  -14.9346 H         1 FER         0.0577
     23 H9        -23.3578   18.7885   -9.5453 H         1 FER         0.2466
@<TRIPOS>BOND
     1    1    2 ar 
     2    1    4 ar 
     3    1   13 1  
     4    2    3 ar 
     5    3    6 ar 
     6    4    5 ar 
     7    4   14 1  
     8    5    6 ar 
     9    6    8 1  
    10   14    7 1  
    11    8    9 2  
    12    9   10 1  
    13   10   11 ar 
    14   10   12 ar 
    15    2   15 1  
    16    3   16 1  
    17    5   17 1  
    18    7   18 1  
    19    7   19 1  
    20    7   20 1  
    21    8   21 1  
    22    9   22 1  
    23   13   23 1  
@<TRIPOS>SUBSTRUCTURE
     1 FER         1

