### 
### Created by X-TOOL on Mon Aug  2 16:13:55 2021
### 

@<TRIPOS>MOLECULE
6hoq_ligand
   23    23     1     0     0
SMALL
GAST_HUCK


@<TRIPOS>ATOM
      1 C4        -23.1290   17.7350  -11.1370 C.ar      1 FER         0.1217
      2 C5        -23.2410   16.5840  -10.3710 C.ar      1 FER        -0.0360
      3 C6        -23.1240   15.3670  -11.0080 C.ar      1 FER        -0.0694
      4 C3        -22.8900   17.6790  -12.5000 C.ar      1 FER         0.1234
      5 C2        -22.7680   16.4530  -13.1320 C.ar      1 FER        -0.0306
      6 C1        -22.9020   15.2950  -12.3670 C.ar      1 FER        -0.0377
      7 C10       -22.7320   18.7490  -14.6300 C.3       1 FER         0.0570
      8 C7        -22.7510   13.9200  -12.9500 C.2       1 FER        -0.0564
      9 C8        -22.4700   13.6980  -14.2330 C.2       1 FER        -0.0344
     10 C9        -22.2930   12.2570  -14.6130 C.2       1 FER         0.0477
     11 O1        -22.2500   11.9480  -15.8230 O.co2     1 FER        -0.5654
     12 O2        -22.1160   11.3960  -13.6960 O.co2     1 FER        -0.5654
     13 O4        -23.2420   18.9750  -10.4980 O.3       1 FER        -0.3332
     14 O3        -22.7840   18.8850  -13.2230 O.3       1 FER        -0.3241
     15 H1        -23.4154   16.6398   -9.3026 H         1 FER         0.0526
     16 H2        -23.2078   14.4527  -10.4317 H         1 FER         0.0533
     17 H3        -22.5729   16.3949  -14.1967 H         1 FER         0.0530
     18 H4        -22.6503   19.7440  -15.0918 H         1 FER         0.0573
     19 H5        -23.6482   18.2543  -14.9847 H         1 FER         0.0573
     20 H6        -21.8570   18.1430  -14.9077 H         1 FER         0.0573
     21 H7        -22.8774   13.0618  -12.2917 H         1 FER         0.0678
     22 H8        -22.3752   14.5065  -14.9564 H         1 FER         0.0577
     23 H9        -23.9634   19.4617  -10.8790 H         1 FER         0.2466
@<TRIPOS>BOND
     1    1    2 ar 
     2    1    4 ar 
     3    1   13 1  
     4    2    3 ar 
     5    3    6 ar 
     6    4    5 ar 
     7    4   14 1  
     8    5    6 ar 
     9    6    8 1  
    10   14    7 1  
    11    8    9 2  
    12    9   10 1  
    13   10   11 ar 
    14   10   12 ar 
    15    2   15 1  
    16    3   16 1  
    17    5   17 1  
    18    7   18 1  
    19    7   19 1  
    20    7   20 1  
    21    8   21 1  
    22    9   22 1  
    23   13   23 1  
@<TRIPOS>SUBSTRUCTURE
     1 FER         1

