### 
### Created by X-TOOL on Mon Aug  2 16:13:55 2021
### 

@<TRIPOS>MOLECULE
6hor_ligand
   26    26     1     0     0
SMALL
GAST_HUCK


@<TRIPOS>ATOM
      1 C12       -22.8780   18.2280  -13.7420 C.2       1 GJK         0.1112
      2 C13       -23.3610   18.6110  -12.3620 C.3       1 GJK         0.0070
      3 C01       -21.9850   12.7770  -17.2360 C.3       1 GJK         0.0570
      4 O02       -22.0430   11.9190  -16.1090 O.3       1 GJK        -0.3237
      5 C03       -22.2760   12.5060  -14.8530 C.ar      1 GJK         0.1250
      6 C04       -22.3560   11.6580  -13.7490 C.ar      1 GJK         0.1235
      7 O05       -22.1980   10.2810  -13.9380 O.3       1 GJK        -0.3320
      8 C06       -22.5910   12.1490  -12.4660 C.ar      1 GJK        -0.0341
      9 C07       -22.7530   13.5160  -12.2950 C.ar      1 GJK        -0.0671
     10 C08       -22.6720   14.3740  -13.3850 C.ar      1 GJK        -0.0327
     11 C09       -22.4400   13.8810  -14.6720 C.ar      1 GJK        -0.0284
     12 C10       -22.8590   15.8600  -13.1180 C.2       1 GJK        -0.0497
     13 C11       -22.6620   16.7730  -14.0840 C.2       1 GJK        -0.0135
     14 O14       -22.6870   19.0790  -14.5840 O.2       1 GJK        -0.3893
     15 H1        -23.4594   19.7047  -12.2985 H         1 GJK         0.0442
     16 H2        -22.6366   18.2638  -11.6105 H         1 GJK         0.0442
     17 H3        -24.3384   18.1433  -12.1727 H         1 GJK         0.0442
     18 H4        -21.7982   12.1809  -18.1414 H         1 GJK         0.0573
     19 H5        -21.1709   13.5045  -17.1015 H         1 GJK         0.0573
     20 H6        -22.9409   13.3114  -17.3396 H         1 GJK         0.0573
     21 H7        -22.2773    9.8366  -13.1021 H         1 GJK         0.2473
     22 H8        -22.6461   11.4757  -11.6182 H         1 GJK         0.0531
     23 H9        -22.9437   13.9169  -11.3061 H         1 GJK         0.0547
     24 H10       -22.3881   14.5566  -15.5181 H         1 GJK         0.0542
     25 H11       -23.1584   16.1903  -12.1244 H         1 GJK         0.0735
     26 H12       -22.3554   16.4724  -15.0848 H         1 GJK         0.0592
@<TRIPOS>BOND
     1    1    2 1  
     2   13    1 1  
     3    1   14 2  
     4    4    3 1  
     5    5    4 1  
     6    5    6 ar 
     7   11    5 ar 
     8    6    7 1  
     9    8    6 ar 
    10    9    8 ar 
    11   10    9 ar 
    12   10   11 ar 
    13   12   10 1  
    14   12   13 2  
    15    2   15 1  
    16    2   16 1  
    17    2   17 1  
    18    3   18 1  
    19    3   19 1  
    20    3   20 1  
    21    7   21 1  
    22    8   22 1  
    23    9   23 1  
    24   11   24 1  
    25   12   25 1  
    26   13   26 1  
@<TRIPOS>SUBSTRUCTURE
     1 GJK         1

