### 
### Created by X-TOOL on Mon Aug  2 16:13:55 2021
### 

@<TRIPOS>MOLECULE
6hot_ligand
   23    23     1     0     0
SMALL
GAST_HUCK


@<TRIPOS>ATOM
      1 C1        -22.8600   14.2130  -13.2270 C.ar      1 CIY        -0.0324
      2 C2        -22.6250   13.7790  -14.5320 C.ar      1 CIY        -0.0282
      3 C3        -22.4590   12.4080  -14.7760 C.ar      1 CIY         0.1251
      4 O3        -22.2150   11.8610  -16.0490 O.3       1 CIY        -0.3236
      5 C4        -22.5340   11.5270  -13.7030 C.ar      1 CIY         0.1237
      6 O4        -22.3590   10.1740  -13.9840 O.3       1 CIY        -0.3319
      7 C5        -22.7670   11.9680  -12.4110 C.ar      1 CIY        -0.0340
      8 C6        -22.9420   13.3160  -12.1710 C.ar      1 CIY        -0.0669
      9 C7        -23.0480   15.6780  -12.8940 C.2       1 CIY        -0.0496
     10 C8        -22.8850   16.6440  -13.8130 C.2       1 CIY        -0.0157
     11 C9        -23.0970   18.0760  -13.3820 C.2       1 CIY         0.1076
     12 O9        -23.0220   18.9760  -14.1990 O.2       1 CIY        -0.3739
     13 C3M       -22.2170   12.7390  -17.1660 C.3       1 CIY         0.0570
     14 H1        -22.5714   14.4922  -15.3466 H         1 CIY         0.0542
     15 H2        -22.4308    9.6729  -13.1801 H         1 CIY         0.2474
     16 H3        -22.8117   11.2585  -11.5927 H         1 CIY         0.0532
     17 H4        -23.1418   13.6710  -11.1664 H         1 CIY         0.0548
     18 H5        -23.3239   15.9571  -11.8782 H         1 CIY         0.0738
     19 H6        -22.6083   16.4020  -14.8381 H         1 CIY         0.0590
     20 H7        -23.3170   18.3038  -12.3401 H         1 CIY         0.1285
     21 H8        -22.0128   12.1664  -18.0828 H         1 CIY         0.0573
     22 H9        -21.4394   13.5053  -17.0315 H         1 CIY         0.0573
     23 H10       -23.2003   13.2250  -17.2486 H         1 CIY         0.0573
@<TRIPOS>BOND
     1    1    2 ar 
     2    1    8 ar 
     3    1    9 1  
     4    2    3 ar 
     5    3    4 1  
     6    3    5 ar 
     7    4   13 1  
     8    5    6 1  
     9    5    7 ar 
    10    7    8 ar 
    11    9   10 2  
    12   10   11 1  
    13   11   12 2  
    14    2   14 1  
    15    6   15 1  
    16    7   16 1  
    17    8   17 1  
    18    9   18 1  
    19   10   19 1  
    20   11   20 1  
    21   13   21 1  
    22   13   22 1  
    23   13   23 1  
@<TRIPOS>SUBSTRUCTURE
     1 CIY         1

