### 
### Created by X-TOOL on Mon Aug  2 16:13:55 2021
### 

@<TRIPOS>MOLECULE
6hou_ligand
   19    19     1     0     0
SMALL
GAST_HUCK


@<TRIPOS>ATOM
      1 CAI       -22.7690   15.6390  -13.4120 C.ar      1 V55         0.0098
      2 CAG       -22.5500   15.1510  -14.6990 C.ar      1 V55        -0.0230
      3 CAK       -22.3930   13.7840  -14.8900 C.ar      1 V55         0.1254
      4 CAJ       -22.4560   12.9230  -13.7970 C.ar      1 V55         0.1226
      5 CAF       -22.6690   13.4110  -12.5160 C.ar      1 V55        -0.0345
      6 OAB       -22.6800   17.9050  -14.0760 O.2       1 V55        -0.3680
      7 CAE       -22.8290   14.7740  -12.3260 C.ar      1 V55        -0.0626
      8 CAD       -22.9430   17.1260  -13.1790 C.2       1 V55         0.1160
      9 CAA       -22.0320   14.1480  -17.2370 C.3       1 V55         0.0569
     10 OAH       -22.1720   13.2320  -16.1690 O.3       1 V55        -0.3237
     11 OAC       -22.2930   11.5430  -13.9960 O.3       1 V55        -0.3328
     12 H1        -22.5027   15.8309  -15.5420 H         1 V55         0.0560
     13 H2        -22.7099   12.7323  -11.6717 H         1 V55         0.0526
     14 H3        -23.0010   15.1658  -11.3300 H         1 V55         0.0555
     15 H4        -23.2999   17.4940  -12.2182 H         1 V55         0.1314
     16 H5        -21.8653   13.5962  -18.1739 H         1 V55         0.0573
     17 H6        -21.1743   14.8089  -17.0432 H         1 V55         0.0573
     18 H7        -22.9474   14.7515  -17.3249 H         1 V55         0.0573
     19 H8        -21.5400   11.2398  -13.5026 H         1 V55         0.2466
@<TRIPOS>BOND
     1    1    2 ar 
     2    1    7 ar 
     3    1    8 1  
     4    2    3 ar 
     5    3    4 ar 
     6    3   10 1  
     7    4    5 ar 
     8    4   11 1  
     9    5    7 ar 
    10    8    6 2  
    11   10    9 1  
    12    2   12 1  
    13    5   13 1  
    14    7   14 1  
    15    8   15 1  
    16    9   16 1  
    17    9   17 1  
    18    9   18 1  
    19   11   19 1  
@<TRIPOS>SUBSTRUCTURE
     1 V55         1

