### 
### Created by X-TOOL on Mon Aug  2 16:13:55 2021
### 

@<TRIPOS>MOLECULE
6hov_ligand
   23    23     1     0     0
SMALL
GAST_HUCK


@<TRIPOS>ATOM
      1 C4         13.4960    4.7320    0.0130 C.ar      1 FER         0.1217
      2 C5         12.7630    4.0240   -0.9250 C.ar      1 FER        -0.0360
      3 C6         11.4590    4.4120   -1.1920 C.ar      1 FER        -0.0694
      4 C3         12.9310    5.8150    0.6810 C.ar      1 FER         0.1234
      5 C2         11.6200    6.2000    0.4090 C.ar      1 FER        -0.0306
      6 C1         10.8870    5.4870   -0.5240 C.ar      1 FER        -0.0377
      7 C10        13.0640    6.6230    2.8930 C.3       1 FER         0.0570
      8 C7          9.4530    5.8950   -0.8720 C.2       1 FER        -0.0564
      9 C8          8.8050    6.7960   -0.1680 C.2       1 FER        -0.0344
     10 C9          7.3800    7.1990   -0.5790 C.2       1 FER         0.0477
     11 O1          6.7870    6.7220   -1.5980 O.co2     1 FER        -0.5654
     12 O2          6.7890    8.0600    0.1080 O.co2     1 FER        -0.5654
     13 O4         14.8090    4.3480    0.2830 O.3       1 FER        -0.3332
     14 O3         13.6790    6.5170    1.6350 O.3       1 FER        -0.3241
     15 H1         13.2024    3.1790   -1.4427 H         1 FER         0.0526
     16 H2         10.8793    3.8702   -1.9305 H         1 FER         0.0533
     17 H3         11.1794    7.0474    0.9216 H         1 FER         0.0530
     18 H4         13.7184    7.1860    3.5747 H         1 FER         0.0573
     19 H5         12.8882    5.6168    3.3012 H         1 FER         0.0573
     20 H6         12.1037    7.1493    2.7886 H         1 FER         0.0573
     21 H7          8.9585    5.4279   -1.7224 H         1 FER         0.0678
     22 H8          9.2748    7.2541    0.7011 H         1 FER         0.0577
     23 H9         15.0354    3.5981   -0.2546 H         1 FER         0.2466
@<TRIPOS>BOND
     1    1    2 ar 
     2    1    4 ar 
     3    1   13 1  
     4    2    3 ar 
     5    3    6 ar 
     6    4    5 ar 
     7    4   14 1  
     8    5    6 ar 
     9    6    8 1  
    10   14    7 1  
    11    8    9 2  
    12    9   10 1  
    13   10   11 ar 
    14   10   12 ar 
    15    2   15 1  
    16    3   16 1  
    17    5   17 1  
    18    7   18 1  
    19    7   19 1  
    20    7   20 1  
    21    8   21 1  
    22    9   22 1  
    23   13   23 1  
@<TRIPOS>SUBSTRUCTURE
     1 FER         1

