### 
### Created by X-TOOL on Wed Jan  1 15:39:35 2020
### 

@<TRIPOS>MOLECULE
6hoy_ligand
   44    44     1     0     0
SMALL
GAST_HUCK


@<TRIPOS>ATOM
      1 O1        -23.2720   17.5360   19.0920 O.3       1 TSN        -0.2729
      2 O2        -22.8190   19.8750   17.9680 O.2       1 TSN        -0.3988
      3 O3        -25.6750   25.9780   17.0730 O.2       1 TSN        -0.3812
      4 N1        -23.9180   18.6530   19.4720 N.am      1 TSN        -0.1684
      5 N2        -29.1220   31.1730   16.6110 N.pl3     1 TSN        -0.3118
      6 C1        -26.7700   27.7350   17.6990 C.ar      1 TSN         0.0217
      7 C2        -27.2030   28.6060   18.7030 C.ar      1 TSN        -0.0543
      8 C3        -27.9790   29.7360   18.3560 C.ar      1 TSN        -0.0377
      9 C4        -28.2890   30.0000   16.9910 C.ar      1 TSN         0.0456
     10 C5        -27.8290   29.1330   16.0010 C.ar      1 TSN        -0.0377
     11 C6        -27.0700   28.0180   16.3440 C.ar      1 TSN        -0.0543
     12 C7        -25.8570   26.5490   18.0520 C.2       1 TSN         0.1385
     13 C8        -24.8900   26.1220   19.1720 C.3       1 TSN         0.0582
     14 C9        -24.2830   24.7110   18.7680 C.2       1 TSN        -0.0497
     15 C10       -24.7120   23.4940   19.2660 C.2       1 TSN        -0.0439
     16 C11       -24.1220   22.1540   18.9030 C.2       1 TSN        -0.0556
     17 C12       -24.3880   20.9960   19.4230 C.2       1 TSN        -0.0023
     18 C13       -23.6110   19.8080   18.9050 C.2       1 TSN         0.2026
     19 C14       -23.6270   27.0530   19.2010 C.3       1 TSN        -0.0365
     20 C15       -25.7720   23.2750   20.3210 C.3       1 TSN        -0.0375
     21 C17       -29.5350   31.3330   15.2130 C.3       1 TSN         0.0163
     22 C16       -29.5800   32.1760   17.5730 C.3       1 TSN         0.0163
     23 H1        -22.3419   17.6380   19.2563 H         1 TSN         0.2489
     24 H2        -24.6251   18.6106   20.1779 H         1 TSN         0.2198
     25 H3        -26.9460   28.4167   19.7390 H         1 TSN         0.0638
     26 H4        -28.3389   30.4032   19.1309 H         1 TSN         0.0531
     27 H5        -28.0632   29.3279   14.9607 H         1 TSN         0.0531
     28 H6        -26.7043   27.3586   15.5652 H         1 TSN         0.0638
     29 H7        -25.4023   26.0971   20.1451 H         1 TSN         0.0699
     30 H8        -23.4685   24.7010   18.0452 H         1 TSN         0.0697
     31 H9        -23.3807   22.1596   18.1053 H         1 TSN         0.0698
     32 H10       -25.1411   20.8843   20.2017 H         1 TSN         0.0537
     33 H11       -23.9306   28.0744   19.4741 H         1 TSN         0.0283
     34 H12       -23.1565   27.0638   18.2068 H         1 TSN         0.0283
     35 H13       -22.9086   26.6735   19.9425 H         1 TSN         0.0283
     36 H14       -26.2161   24.2417   20.6007 H         1 TSN         0.0349
     37 H15       -25.3162   22.8106   21.2079 H         1 TSN         0.0349
     38 H16       -26.5551   22.6134   19.9222 H         1 TSN         0.0349
     39 H17       -30.1401   32.2460   15.1117 H         1 TSN         0.0480
     40 H18       -30.1315   30.4617   14.9049 H         1 TSN         0.0480
     41 H19       -28.6432   31.4114   14.5739 H         1 TSN         0.0480
     42 H20       -29.1951   31.9274   18.5731 H         1 TSN         0.0480
     43 H21       -30.6797   32.1871   17.5957 H         1 TSN         0.0480
     44 H22       -29.2094   33.1674   17.2735 H         1 TSN         0.0480
@<TRIPOS>BOND
     1    4    1 1  
     2   18    2 2  
     3   12    3 2  
     4   18    4 am 
     5    9    5 1  
     6    5   21 1  
     7    5   22 1  
     8    6    7 ar 
     9    6   11 ar 
    10   12    6 1  
    11    7    8 ar 
    12    8    9 ar 
    13   10    9 ar 
    14   11   10 ar 
    15   13   12 1  
    16   14   13 1  
    17   13   19 1  
    18   15   14 2  
    19   16   15 1  
    20   15   20 1  
    21   17   16 2  
    22   17   18 1  
    23    1   23 1  
    24    4   24 1  
    25    7   25 1  
    26    8   26 1  
    27   10   27 1  
    28   11   28 1  
    29   13   29 1  
    30   14   30 1  
    31   16   31 1  
    32   17   32 1  
    33   19   33 1  
    34   19   34 1  
    35   19   35 1  
    36   20   36 1  
    37   20   37 1  
    38   20   38 1  
    39   21   39 1  
    40   21   40 1  
    41   21   41 1  
    42   22   42 1  
    43   22   43 1  
    44   22   44 1  
@<TRIPOS>SUBSTRUCTURE
     1 TSN         1

