### 
### Created by X-TOOL on Mon Aug  2 16:13:56 2021
### 

@<TRIPOS>MOLECULE
6hp0_ligand
   51    52     1     0     0
SMALL
GAST_HUCK


@<TRIPOS>ATOM
      1 N1         43.2420    0.5880   22.6740 N.am      1 GJT        -0.2762
      2 N3         45.1650    3.8930   20.5430 N.2       1 GJT        -0.2242
      3 C4         44.3040   -3.3560   24.0370 C.3       1 GJT        -0.0292
      4 C5         45.1190   -2.2410   24.7240 C.3       1 GJT        -0.0629
      5 C6         43.0980   -1.3760   21.2110 C.3       1 GJT         0.1090
      6 C7         43.1380   -1.8180   19.7800 C.2       1 GJT        -0.0472
      7 C8         43.1470   -0.9890   18.7210 C.2       1 GJT        -0.0203
      8 C10        43.1100    1.0000   20.2250 C.3       1 GJT         0.1196
      9 C13        43.6260    1.4970   24.9040 C.3       1 GJT         0.0257
     10 C15        44.1010    4.3130   21.2680 C.2       1 GJT         0.0622
     11 C17        42.8970   -1.5780   17.3730 C.2       1 GJT         0.0477
     12 C1         42.3110   -5.0510   22.0810 C.3       1 GJT        -0.0629
     13 C2         41.9880   -3.7650   22.8910 C.3       1 GJT        -0.0292
     14 C3         43.1690   -2.8210   23.1620 C.3       1 GJT         0.0613
     15 O1         43.8540   -2.3240   21.9800 O.3       1 GJT        -0.3597
     16 C9         43.5330    0.4500   18.8900 C.3       1 GJT         0.0103
     17 C11        43.6110    0.0590   21.3750 C.3       1 GJT         0.1108
     18 C12        44.1260    1.1220   23.5480 C.2       1 GJT         0.1735
     19 O2         45.2930    1.2770   23.2550 O.2       1 GJT        -0.3974
     20 N2         43.6010    2.3670   20.4310 N.pl3     1 GJT        -0.1740
     21 C14        43.0980    3.3750   21.1580 C.2       1 GJT         0.0722
     22 C16        44.0790    5.6610   21.9010 C.3       1 GJT         0.0790
     23 O3         42.7200    6.0700   21.9770 O.3       1 GJT        -0.3862
     24 N4         44.8790    2.6840   20.0940 N.2       1 GJT        -0.1014
     25 O4         42.7980   -0.8230   16.3420 O.co2     1 GJT        -0.5666
     26 O5         42.7370   -2.8250   17.2740 O.co2     1 GJT        -0.5666
     27 H1         42.2783    0.5562   22.9391 H         1 GJT         0.1858
     28 H2         43.8710   -4.0023   24.8147 H         1 GJT         0.0288
     29 H3         44.9834   -3.9471   23.4054 H         1 GJT         0.0288
     30 H4         45.9150   -2.6919   25.3347 H         1 GJT         0.0231
     31 H5         44.4554   -1.6456   25.3683 H         1 GJT         0.0231
     32 H6         45.5678   -1.5904   23.9590 H         1 GJT         0.0231
     33 H7         42.0543   -1.3992   21.5576 H         1 GJT         0.0775
     34 H8         43.1615   -2.8888   19.5830 H         1 GJT         0.0592
     35 H9         42.0106    1.0256   20.2517 H         1 GJT         0.0729
     36 H10        44.4530    1.9144   25.4972 H         1 GJT         0.0467
     37 H11        43.2277    0.6040   25.4079 H         1 GJT         0.0467
     38 H12        42.8291    2.2489   24.8060 H         1 GJT         0.0467
     39 H13        41.3930   -5.6430   21.9515 H         1 GJT         0.0231
     40 H14        43.0588   -5.6480   22.6236 H         1 GJT         0.0231
     41 H15        42.7098   -4.7725   21.0944 H         1 GJT         0.0231
     42 H16        41.5759   -4.0748   23.8627 H         1 GJT         0.0288
     43 H17        41.2270   -3.1992   22.3335 H         1 GJT         0.0288
     44 H18        42.7318   -1.9569   23.6837 H         1 GJT         0.0598
     45 H19        43.0535    1.0408   18.0957 H         1 GJT         0.0418
     46 H20        44.6261    0.5361   18.8019 H         1 GJT         0.0418
     47 H21        44.7093    0.0277   21.3232 H         1 GJT         0.0640
     48 H22        42.0954    3.4395   21.5782 H         1 GJT         0.0899
     49 H23        44.6528    6.3733   21.2899 H         1 GJT         0.0674
     50 H24        44.5138    5.6102   22.9101 H         1 GJT         0.0674
     51 H25        42.2317    5.4466   22.5018 H         1 GJT         0.2118
@<TRIPOS>BOND
     1   17    1 1  
     2    1   18 am 
     3   10    2 1  
     4    2   24 2  
     5    3    4 1  
     6   14    3 1  
     7    5    6 1  
     8    5   15 1  
     9   17    5 1  
    10    7    6 2  
    11    7   11 1  
    12   16    7 1  
    13    8   16 1  
    14    8   17 1  
    15   20    8 1  
    16   18    9 1  
    17   21   10 2  
    18   10   22 1  
    19   11   25 ar 
    20   11   26 ar 
    21   13   12 1  
    22   14   13 1  
    23   15   14 1  
    24   18   19 2  
    25   20   21 1  
    26   20   24 1  
    27   22   23 1  
    28    1   27 1  
    29    3   28 1  
    30    3   29 1  
    31    4   30 1  
    32    4   31 1  
    33    4   32 1  
    34    5   33 1  
    35    6   34 1  
    36    8   35 1  
    37    9   36 1  
    38    9   37 1  
    39    9   38 1  
    40   12   39 1  
    41   12   40 1  
    42   12   41 1  
    43   13   42 1  
    44   13   43 1  
    45   14   44 1  
    46   16   45 1  
    47   16   46 1  
    48   17   47 1  
    49   21   48 1  
    50   22   49 1  
    51   22   50 1  
    52   23   51 1  
@<TRIPOS>SUBSTRUCTURE
     1 GJT         1

