### 
### Created by X-TOOL on Mon Aug  2 16:10:49 2021
### 

@<TRIPOS>MOLECULE
6hp5_ligand
   82    82     1     0     0
SMALL
GAST_HUCK


@<TRIPOS>ATOM
      1 N          29.1180    1.0110   72.0390 N.4       1 GLY         0.2357
      2 CA         29.3630    2.4590   71.8260 C.3       1 GLY         0.0545
      3 C          29.0020    3.3760   72.9840 C.2       1 GLY         0.2236
      4 O          28.4060    2.9470   73.9760 O.2       1 GLY        -0.3910
      5 N          29.3980    4.6440   72.8410 N.am      1 GLY        -0.2612
      6 CA         29.1110    5.7090   73.7960 C.3       1 GLY         0.1320
      7 C          27.8150    6.3910   73.3760 C.2       1 GLY         0.2064
      8 O          27.7150    6.8640   72.2390 O.2       1 GLY        -0.3942
      9 CB         30.2750    6.7180   73.7990 C.3       1 GLY        -0.0034
     10 CG         30.1170    7.9030   74.7310 C.3       1 GLY        -0.0024
     11 SD         31.3760    9.1740   74.4480 S.3       1 GLY        -0.1639
     12 CE         30.7920    9.9330   72.9140 C.3       1 GLY        -0.0181
     13 N          26.8180    6.4500   74.2840 N.am      1 GLY        -0.2498
     14 CA         25.5900    7.1680   73.9250 C.3       1 GLY         0.1338
     15 C          25.8670    8.6530   73.7150 C.2       1 GLY         0.2041
     16 O          26.6410    9.2420   74.4620 O.2       1 GLY        -0.3944
     17 CB         24.6920    6.9630   75.1460 C.3       1 GLY        -0.0104
     18 CG         25.6420    6.7520   76.2710 C.3       1 GLY        -0.0281
     19 CD         26.7880    5.9730   75.6810 C.3       1 GLY         0.0369
     20 N          25.2720    9.2180   72.6690 N.am      1 GLY        -0.2637
     21 CA         25.2610   10.6650   72.4470 C.3       1 GLY         0.1311
     22 C          23.8360   11.1730   72.3630 C.2       1 GLY         0.2037
     23 O          22.9050   10.4230   72.0600 O.2       1 GLY        -0.3944
     24 CB         25.9920   11.0300   71.1580 C.3       1 GLY        -0.0092
     25 CG         27.5110   11.0270   71.2690 C.3       1 GLY        -0.0156
     26 CD         28.1230   10.9430   69.8780 C.3       1 GLY         0.0627
     27 NE         29.5090   11.3980   69.8370 N.pl3     1 GLY        -0.2723
     28 CZ         30.5440   10.6220   69.5340 C.cat     1 GLY         0.2882
     29 NH1        30.3710    9.3410   69.2600 N.pl3     1 GLY        -0.2849
     30 NH2        31.7620   11.1300   69.5110 N.pl3     1 GLY        -0.2849
     31 N          23.6520   12.4530   72.6240 N.am      1 GLY        -0.2664
     32 CA         22.3370   13.0280   72.4570 C.3       1 GLY         0.1201
     33 C          22.3510   14.4980   72.7290 C.2       1 GLY         0.2002
     34 O          23.2100   15.0060   73.4650 O.2       1 GLY        -0.3947
     35 N          21.3970   15.1710   72.1010 N.am      1 GLY        -0.2700
     36 CA         21.0680   16.5540   72.3970 C.3       1 GLY         0.0916
     37 C          19.5460   16.7230   72.4200 C.2       1 GLY         0.0598
     38 O          18.7950   15.9140   71.8460 O.co2     1 GLY        -0.5666
     39 CB         21.7080   17.4830   71.3860 C.3       1 GLY        -0.0300
     40 OXT        19.0280   17.6620   73.0380 O.co2     1 GLY        -0.5666
     41 H1         29.3906    0.4993   71.2145 H         1 GLY         0.2012
     42 H2         28.1381    0.8591   72.2200 H         1 GLY         0.2012
     43 H3         29.6589    0.6911   72.8271 H         1 GLY         0.2012
     44 H4         28.7747    2.7744   70.9517 H         1 GLY         0.1061
     45 H5         30.4343    2.5910   71.6142 H         1 GLY         0.1061
     46 H6         29.9263    4.8787   72.0250 H         1 GLY         0.1884
     47 H7         28.9940    5.2843   74.8039 H         1 GLY         0.0800
     48 H8         30.3884    7.1058   72.7759 H         1 GLY         0.0320
     49 H9         31.1885    6.1789   74.0902 H         1 GLY         0.0320
     50 H10        30.1987    7.5495   75.7694 H         1 GLY         0.0378
     51 H11        29.1236    8.3478   74.5721 H         1 GLY         0.0378
     52 H12        31.4790   10.7400   72.6195 H         1 GLY         0.0340
     53 H13        29.7851   10.3474   73.0701 H         1 GLY         0.0340
     54 H14        30.7567    9.1733   72.1193 H         1 GLY         0.0340
     55 H15        25.1335    6.7436   73.0186 H         1 GLY         0.0802
     56 H16        24.0463    6.0827   75.0112 H         1 GLY         0.0313
     57 H17        24.0683    7.8514   75.3244 H         1 GLY         0.0313
     58 H18        25.1622    6.1797   77.0786 H         1 GLY         0.0287
     59 H19        25.9940    7.7170   76.6645 H         1 GLY         0.0287
     60 H20        27.7313    6.2014   76.1987 H         1 GLY         0.0524
     61 H21        26.5973    4.8906   75.7268 H         1 GLY         0.0524
     62 H22        24.8118    8.6288   72.0048 H         1 GLY         0.1883
     63 H23        25.7667   11.1533   73.2930 H         1 GLY         0.0800
     64 H24        25.6720   12.0380   70.8555 H         1 GLY         0.0313
     65 H25        25.7031   10.3053   70.3825 H         1 GLY         0.0313
     66 H26        27.8332   10.1597   71.8639 H         1 GLY         0.0301
     67 H27        27.8442   11.9529   71.7605 H         1 GLY         0.0301
     68 H28        27.5286   11.5677   69.1951 H         1 GLY         0.0689
     69 H29        28.0876    9.8962   69.5419 H         1 GLY         0.0689
     70 H30        29.6974   12.3863   70.0576 H         1 GLY         0.2642
     71 H31        31.1818    8.7502   69.0266 H         1 GLY         0.2615
     72 H32        29.4254    8.9332   69.2798 H         1 GLY         0.2615
     73 H33        31.9081   12.1273   69.7230 H         1 GLY         0.2615
     74 H34        32.5664   10.5291   69.2810 H         1 GLY         0.2615
     75 H35        24.4152   13.0198   72.9344 H         1 GLY         0.1881
     76 H36        21.6409   12.5406   73.1555 H         1 GLY         0.0763
     77 H37        21.9994   12.8575   71.4241 H         1 GLY         0.0763
     78 H38        20.8773   14.7022   71.3868 H         1 GLY         0.1875
     79 H39        21.4623   16.8037   73.3931 H         1 GLY         0.0723
     80 H40        21.4469   18.5238   71.6278 H         1 GLY         0.0270
     81 H41        21.3409   17.2375   70.3786 H         1 GLY         0.0270
     82 H42        22.8009   17.3624   71.4176 H         1 GLY         0.0270
@<TRIPOS>BOND
     1    1    2 1  
     2    2    3 1  
     3    3    4 2  
     4    3    5 am 
     5    5    6 1  
     6    6    7 1  
     7    6    9 1  
     8    7    8 2  
     9    7   13 am 
    10    9   10 1  
    11   10   11 1  
    12   11   12 1  
    13   13   14 1  
    14   13   19 1  
    15   14   15 1  
    16   14   17 1  
    17   15   16 2  
    18   15   20 am 
    19   17   18 1  
    20   18   19 1  
    21   20   21 1  
    22   21   22 1  
    23   21   24 1  
    24   22   23 2  
    25   22   31 am 
    26   24   25 1  
    27   25   26 1  
    28   26   27 1  
    29   27   28 ar 
    30   28   29 ar 
    31   28   30 ar 
    32   31   32 1  
    33   32   33 1  
    34   33   34 2  
    35   33   35 am 
    36   35   36 1  
    37   36   37 1  
    38   36   39 1  
    39   37   38 ar 
    40   37   40 ar 
    41    1   41 1  
    42    1   42 1  
    43    1   43 1  
    44    2   44 1  
    45    2   45 1  
    46    5   46 1  
    47    6   47 1  
    48    9   48 1  
    49    9   49 1  
    50   10   50 1  
    51   10   51 1  
    52   12   52 1  
    53   12   53 1  
    54   12   54 1  
    55   14   55 1  
    56   17   56 1  
    57   17   57 1  
    58   18   58 1  
    59   18   59 1  
    60   19   60 1  
    61   19   61 1  
    62   20   62 1  
    63   21   63 1  
    64   24   64 1  
    65   24   65 1  
    66   25   66 1  
    67   25   67 1  
    68   26   68 1  
    69   26   69 1  
    70   27   70 1  
    71   29   71 1  
    72   29   72 1  
    73   30   73 1  
    74   30   74 1  
    75   31   75 1  
    76   32   76 1  
    77   32   77 1  
    78   35   78 1  
    79   36   79 1  
    80   39   80 1  
    81   39   81 1  
    82   39   82 1  
@<TRIPOS>SUBSTRUCTURE
     1 GLY         1

