### 
### Created by X-TOOL on Mon Aug  2 16:13:56 2021
### 

@<TRIPOS>MOLECULE
6hp9_ligand
   56    60     1     0     0
SMALL
GAST_HUCK


@<TRIPOS>ATOM
      1 N1         33.4000    7.1940  -42.0530 N.pl3     1 GKB        -0.2156
      2 N3         39.9850   -1.9430  -36.7570 N.pl3     1 GKB        -0.3055
      3 C4         32.3200    6.1500  -37.3420 C.3       1 GKB         0.3708
      4 C5         32.8720    6.6590  -39.7290 C.ar      1 GKB        -0.0109
      5 C6         33.6660    6.4570  -40.8570 C.ar      1 GKB         0.1136
      6 C7         34.2940    7.4080  -43.0840 C.2       1 GKB         0.0460
      7 C8         33.6320    8.0720  -44.0690 C.2       1 GKB        -0.0066
      8 C10        32.2210    7.7530  -42.4400 C.2       1 GKB         0.1083
      9 C13        37.0870    0.4710  -38.7130 C.ar      1 GKB        -0.0465
     10 C15        39.4210    0.0950  -39.1360 C.ar      1 GKB        -0.0338
     11 C17        39.7530   -2.0700  -38.1890 C.3       1 GKB         0.0553
     12 C20        38.8760   -4.7160  -33.9980 C.ar      1 GKB         0.0759
     13 C21        39.7710   -2.7020  -34.4740 C.ar      1 GKB         0.0468
     14 C22        38.2620   -1.8520  -38.4460 C.3       1 GKB         0.0040
     15 C24        38.4430    2.2510  -39.5770 C.ar      1 GKB        -0.0549
     16 N          35.8640    3.7040  -39.7960 N.am      1 GKB        -0.2297
     17 C          35.9990    2.6640  -38.9400 C.2       1 GKB         0.2258
     18 O          35.1710    2.4050  -38.0710 O.2       1 GKB        -0.3763
     19 C1         34.9310    4.7670  -39.7050 C.ar      1 GKB         0.0913
     20 C11        34.7000    5.5250  -40.8450 C.ar      1 GKB         0.0236
     21 C12        37.2050    1.7970  -39.1230 C.ar      1 GKB         0.0421
     22 C14        38.1840   -0.3780  -38.7310 C.ar      1 GKB        -0.0329
     23 C16        40.4630   -0.9830  -39.0000 C.3       1 GKB         0.0051
     24 C18        39.5940   -2.9090  -35.8380 C.ar      1 GKB         0.0926
     25 C19        39.0310   -4.1370  -36.1710 C.ar      1 GKB         0.0468
     26 C2         34.1450    4.9670  -38.5710 C.ar      1 GKB        -0.0185
     27 C23        39.5460    1.4110  -39.5740 C.ar      1 GKB        -0.0607
     28 C3         33.1220    5.9130  -38.5840 C.ar      1 GKB         0.0293
     29 C9         34.1270    8.4950  -45.4210 C.3       1 GKB        -0.0375
     30 F          31.6530    7.2930  -37.3580 F         1 GKB        -0.2213
     31 F1         33.0890    6.1700  -36.2440 F         1 GKB        -0.2213
     32 F2         31.3930    5.2260  -37.1320 F         1 GKB        -0.2213
     33 N2         32.2900    8.2970  -43.6340 N.2       1 GKB        -0.3221
     34 N4         38.6650   -5.0490  -35.2680 N.ar      1 GKB        -0.2763
     35 N5         39.4130   -3.5890  -33.5450 N.ar      1 GKB        -0.2763
     36 H1         40.4608   -1.0982  -36.4094 H         1 GKB         0.1798
     37 H2         32.0703    7.3884  -39.7451 H         1 GKB         0.0700
     38 H3         35.3386    7.1009  -43.1043 H         1 GKB         0.0743
     39 H4         31.3203    7.7498  -41.8279 H         1 GKB         0.1223
     40 H5         36.1266    0.0981  -38.3759 H         1 GKB         0.0587
     41 H6         40.0727   -3.0663  -38.5284 H         1 GKB         0.0596
     42 H7         38.5773   -5.4432  -33.2517 H         1 GKB         0.1011
     43 H8         40.2232   -1.7718  -34.1495 H         1 GKB         0.0838
     44 H9         37.6648   -2.1163  -37.5609 H         1 GKB         0.0436
     45 H10        37.9187   -2.4409  -39.3093 H         1 GKB         0.0436
     46 H11        38.5437    3.2691  -39.9352 H         1 GKB         0.0595
     47 H12        36.4895    3.7244  -40.5760 H         1 GKB         0.2251
     48 H13        35.3224    5.3916  -41.7224 H         1 GKB         0.0728
     49 H14        41.3479   -0.6085  -38.4646 H         1 GKB         0.0445
     50 H15        40.7653   -1.3637  -39.9867 H         1 GKB         0.0445
     51 H16        38.8816   -4.3652  -37.2201 H         1 GKB         0.0838
     52 H17        34.3304    4.3844  -37.6759 H         1 GKB         0.0664
     53 H18        40.5074    1.7793  -39.9132 H         1 GKB         0.0551
     54 H19        33.3208    9.0132  -45.9610 H         1 GKB         0.0340
     55 H20        34.4389    7.6077  -45.9914 H         1 GKB         0.0340
     56 H21        34.9840    9.1742  -45.3017 H         1 GKB         0.0340
@<TRIPOS>BOND
     1    5    1 1  
     2    1    6 1  
     3    1    8 1  
     4   11    2 1  
     5    2   24 1  
     6   28    3 1  
     7    3   30 1  
     8    3   31 1  
     9    3   32 1  
    10    5    4 ar 
    11    4   28 ar 
    12   20    5 ar 
    13    6    7 2  
    14    7   29 1  
    15   33    7 1  
    16    8   33 2  
    17   21    9 ar 
    18    9   22 ar 
    19   22   10 ar 
    20   10   23 1  
    21   27   10 ar 
    22   14   11 1  
    23   23   11 1  
    24   12   34 ar 
    25   35   12 ar 
    26   24   13 ar 
    27   13   35 ar 
    28   22   14 1  
    29   21   15 ar 
    30   15   27 ar 
    31   16   17 am 
    32   19   16 1  
    33   17   18 2  
    34   17   21 1  
    35   19   20 ar 
    36   19   26 ar 
    37   24   25 ar 
    38   25   34 ar 
    39   26   28 ar 
    40    2   36 1  
    41    4   37 1  
    42    6   38 1  
    43    8   39 1  
    44    9   40 1  
    45   11   41 1  
    46   12   42 1  
    47   13   43 1  
    48   14   44 1  
    49   14   45 1  
    50   15   46 1  
    51   16   47 1  
    52   20   48 1  
    53   23   49 1  
    54   23   50 1  
    55   25   51 1  
    56   26   52 1  
    57   27   53 1  
    58   29   54 1  
    59   29   55 1  
    60   29   56 1  
@<TRIPOS>SUBSTRUCTURE
     1 GKB         1

