### 
### Created by X-TOOL on Wed Jan  1 15:39:38 2020
### 

@<TRIPOS>MOLECULE
6hpw_ligand
   51    54     1     0     0
SMALL
GAST_HUCK


@<TRIPOS>ATOM
      1 C1          3.9140   14.9260   12.2820 C.ar      1 GKT        -0.0305
      2 C2          2.9040   14.0080   11.9870 C.ar      1 GKT        -0.0519
      3 C3          1.6920   14.0100   12.6550 C.ar      1 GKT        -0.0456
      4 C4          1.4440   14.9320   13.6600 C.ar      1 GKT         0.0515
      5 C5          2.4410   15.8530   13.9840 C.ar      1 GKT        -0.0370
      6 C6          3.6430   15.8680   13.2800 C.ar      1 GKT         0.0161
      7 C7          0.0870   14.9760   14.2830 C.2       1 GKT         0.2262
      8 O          -0.9220   14.7860   13.6140 O.2       1 GKT        -0.3770
      9 I           4.9570   17.5290   13.5660 I         1 GKT        -0.0540
     10 C           5.2310   14.8420   11.5590 C.3       1 GKT        -0.0274
     11 N           0.0570   15.2350   15.6020 N.am      1 GKT        -0.2400
     12 C8         -1.0660   15.2740   16.4380 C.ar      1 GKT         0.0518
     13 C20        -2.2970   14.7540   16.0290 C.ar      1 GKT        -0.0235
     14 C19        -3.3350   14.6940   16.9490 C.ar      1 GKT         0.0647
     15 C11        -3.1440   15.1720   18.2400 C.ar      1 GKT         0.0082
     16 C10        -1.9350   15.7070   18.6520 C.ar      1 GKT        -0.0744
     17 C9         -0.8960   15.7580   17.7370 C.ar      1 GKT        -0.0544
     18 N3         -4.6270   14.2060   16.8220 N.pl3     1 GKT        -0.2478
     19 C12        -5.1870   14.4070   18.0010 C.2       1 GKT         0.1617
     20 N1         -4.3440   14.9740   18.8900 N.2       1 GKT        -0.3231
     21 C13        -6.6260   14.1520   18.3170 C.3       1 GKT         0.0482
     22 N2         -6.8290   12.9100   19.0740 N.4       1 GKT         0.2539
     23 C18        -8.2760   12.6200   19.2050 C.3       1 GKT        -0.0298
     24 C17        -8.5400   11.2660   19.8330 C.3       1 GKT        -0.0123
     25 C16        -7.6610   11.0460   21.0500 C.3       1 GKT        -0.0434
     26 C15        -7.0570   12.3550   21.5130 C.3       1 GKT        -0.0123
     27 C14        -6.2230   13.0030   20.4130 C.3       1 GKT        -0.0298
     28 H1          3.0746   13.2709   11.2107 H         1 GKT         0.0576
     29 H2          0.9308   13.2851   12.3903 H         1 GKT         0.0672
     30 H3          2.2792   16.5612   14.7885 H         1 GKT         0.0681
     31 H4          5.1948   14.0235   10.8250 H         1 GKT         0.0407
     32 H5          6.0356   14.6491   12.2838 H         1 GKT         0.0407
     33 H6          5.4254   15.7919   11.0395 H         1 GKT         0.0407
     34 H7          0.9383   15.4213   16.0363 H         1 GKT         0.2228
     35 H8         -2.4387   14.4042   15.0128 H         1 GKT         0.0402
     36 H9         -1.8051   16.0759   19.6630 H         1 GKT         0.0513
     37 H10         0.0587   16.1779   18.0323 H         1 GKT         0.0433
     38 H11        -5.0566   13.7793   15.9888 H         1 GKT         0.2305
     39 H12        -7.1869   14.0844   17.3732 H         1 GKT         0.1083
     40 H13        -7.0100   14.9935   18.9123 H         1 GKT         0.1083
     41 H14        -6.3897   12.1538   18.5727 H         1 GKT         0.2055
     42 H15        -8.7322   12.6401   18.2043 H         1 GKT         0.0815
     43 H16        -8.7363   13.3965   19.8335 H         1 GKT         0.0815
     44 H17        -8.3311   10.4799   19.0925 H         1 GKT         0.0317
     45 H18        -9.5955   11.2113   20.1379 H         1 GKT         0.0317
     46 H19        -6.8528   10.3463   20.7908 H         1 GKT         0.0269
     47 H20        -8.2680   10.6203   21.8626 H         1 GKT         0.0269
     48 H21        -6.4134   12.1638   22.3844 H         1 GKT         0.0317
     49 H22        -7.8673   13.0416   21.7992 H         1 GKT         0.0317
     50 H23        -6.0896   14.0665   20.6601 H         1 GKT         0.0815
     51 H24        -5.2415   12.5072   20.3846 H         1 GKT         0.0815
@<TRIPOS>BOND
     1    1    2 ar 
     2    1    6 ar 
     3    1   10 1  
     4    2    3 ar 
     5    3    4 ar 
     6    4    5 ar 
     7    4    7 1  
     8    5    6 ar 
     9    6    9 1  
    10    7    8 2  
    11    7   11 am 
    12   11   12 1  
    13   12   13 ar 
    14   12   17 ar 
    15   13   14 ar 
    16   14   15 ar 
    17   14   18 1  
    18   15   16 ar 
    19   15   20 1  
    20   16   17 ar 
    21   18   19 1  
    22   19   20 2  
    23   19   21 1  
    24   21   22 1  
    25   22   23 1  
    26   22   27 1  
    27   23   24 1  
    28   24   25 1  
    29   25   26 1  
    30   26   27 1  
    31    2   28 1  
    32    3   29 1  
    33    5   30 1  
    34   10   31 1  
    35   10   32 1  
    36   10   33 1  
    37   11   34 1  
    38   13   35 1  
    39   16   36 1  
    40   17   37 1  
    41   18   38 1  
    42   21   39 1  
    43   21   40 1  
    44   22   41 1  
    45   23   42 1  
    46   23   43 1  
    47   24   44 1  
    48   24   45 1  
    49   25   46 1  
    50   25   47 1  
    51   26   48 1  
    52   26   49 1  
    53   27   50 1  
    54   27   51 1  
@<TRIPOS>SUBSTRUCTURE
     1 GKT         1

