### 
### Created by X-TOOL on Wed Jan  1 15:39:36 2020
### 

@<TRIPOS>MOLECULE
6hqy_ligand
   36    38     1     0     0
SMALL
GAST_HUCK


@<TRIPOS>ATOM
      1 C01        41.8470   37.5780   91.9670 C.3       1 GKW         0.0579
      2 O02        42.9870   38.2650   91.6030 O.3       1 GKW        -0.3257
      3 C03        43.5150   38.1290   90.3300 C.ar      1 GKW         0.0837
      4 C04        44.8460   38.4850   90.0760 C.ar      1 GKW        -0.0395
      5 C05        45.3690   38.3420   88.7730 C.ar      1 GKW        -0.0662
      6 C06        44.5570   37.8450   87.7150 C.ar      1 GKW        -0.0248
      7 C07        45.1750   37.7130   86.3420 C.3       1 GKW         0.0810
      8 N08        44.4180   36.9430   85.3410 N.pl3     1 GKW        -0.2531
      9 C09        43.4050   37.4080   84.5730 C.2       1 GKW         0.0291
     10 C10        42.9670   36.3770   83.7290 C.2       1 GKW        -0.0600
     11 C11        43.7910   35.2190   84.0180 C.ar      1 GKW        -0.0233
     12 C12        43.8370   33.8990   83.5070 C.ar      1 GKW        -0.0705
     13 C13        44.7600   32.9800   83.9890 C.ar      1 GKW        -0.0591
     14 C14        45.6720   33.3540   85.0000 C.ar      1 GKW         0.0495
     15 C15        46.7180   32.3220   85.5540 C.2       1 GKW         0.3069
     16 O16        47.2940   32.5340   86.6360 O.2       1 GKW        -0.3219
     17 N17        47.0200   31.1060   84.8280 N.2       1 GKW         0.0340
     18 O18        47.8770   30.2450   85.2730 O.2       1 GKW        -0.1748
     19 C19        45.6190   34.6590   85.4980 C.ar      1 GKW        -0.0213
     20 C20        44.6700   35.5960   84.9980 C.ar      1 GKW         0.0743
     21 C21        43.2330   37.4890   87.9650 C.ar      1 GKW        -0.0662
     22 C22        42.7050   37.6310   89.2760 C.ar      1 GKW        -0.0395
     23 H1         41.5910   37.8187   93.0093 H         1 GKW         0.0575
     24 H2         42.0250   36.4965   91.8736 H         1 GKW         0.0575
     25 H3         41.0162   37.8711   91.3083 H         1 GKW         0.0575
     26 H4         45.4702   38.8679   90.8753 H         1 GKW         0.0525
     27 H5         46.3998   38.6135   88.5760 H         1 GKW         0.0531
     28 H6         46.1542   37.2269   86.4638 H         1 GKW         0.0746
     29 H7         45.3166   38.7281   85.9425 H         1 GKW         0.0746
     30 H8         42.9970   38.4172   84.6052 H         1 GKW         0.0961
     31 H9         42.1626   36.4349   82.9972 H         1 GKW         0.0297
     32 H10        43.1426   33.6020   82.7294 H         1 GKW         0.0544
     33 H11        44.7803   31.9731   83.5881 H         1 GKW         0.0558
     34 H12        46.3102   34.9623   86.2760 H         1 GKW         0.0609
     35 H13        42.6103   37.1063   87.1644 H         1 GKW         0.0531
     36 H14        41.6750   37.3568   89.4732 H         1 GKW         0.0525
@<TRIPOS>BOND
     1    1    2 1  
     2    2    3 1  
     3    3    4 ar 
     4    3   22 ar 
     5    4    5 ar 
     6    5    6 ar 
     7    6    7 1  
     8    6   21 ar 
     9    7    8 1  
    10    8    9 1  
    11    8   20 1  
    12    9   10 2  
    13   10   11 1  
    14   11   12 ar 
    15   11   20 ar 
    16   12   13 ar 
    17   13   14 ar 
    18   14   15 1  
    19   14   19 ar 
    20   15   16 2  
    21   15   17 1  
    22   17   18 2  
    23   19   20 ar 
    24   21   22 ar 
    25    1   23 1  
    26    1   24 1  
    27    1   25 1  
    28    4   26 1  
    29    5   27 1  
    30    7   28 1  
    31    7   29 1  
    32    9   30 1  
    33   10   31 1  
    34   12   32 1  
    35   13   33 1  
    36   19   34 1  
    37   21   35 1  
    38   22   36 1  
@<TRIPOS>SUBSTRUCTURE
     1 GKW         1

