### 
### Created by X-TOOL on Mon Aug  2 16:13:58 2021
### 

@<TRIPOS>MOLECULE
6hr2_ligand
  125   132     1     0     0
SMALL
GAST_HUCK


@<TRIPOS>ATOM
      1 N1        -31.9330   -7.8360  -19.9600 N.am      1 FWZ        -0.2619
      2 C4        -29.5870   -7.5470  -19.6800 C.2       1 FWZ         0.2072
      3 C5        -29.4300  -10.2440  -18.3520 C.3       1 FWZ        -0.0558
      4 C6        -31.9120  -10.4060  -18.3510 C.3       1 FWZ        -0.0558
      5 C7        -30.6690  -10.4020  -20.5010 C.3       1 FWZ        -0.0558
      6 C10       -27.5580   -6.2750  -19.3980 C.3       1 FWZ         0.1362
      7 C13       -28.6460   -7.0330  -17.3590 C.3       1 FWZ         0.0629
      8 C15       -26.6940   -7.0830  -20.3620 C.2       1 FWZ         0.2035
      9 C20       -22.6660   -7.6530  -22.1200 C.ar      1 FWZ         0.0914
     10 C21       -21.3550   -7.4670  -21.6990 C.ar      1 FWZ        -0.0374
     11 C22       -21.0360   -6.4290  -20.8270 C.ar      1 FWZ        -0.0336
     12 C24       -23.3540   -5.7870  -20.7830 C.ar      1 FWZ        -0.0695
     13 C26       -18.5040   -6.0340  -21.2080 C.2       1 FWZ         0.0118
     14 C28       -17.6070   -5.6520  -19.2330 C.2       1 FWZ         0.0739
     15 C2        -30.8260   -8.2630  -19.1260 C.3       1 FWZ         0.1361
     16 C3        -30.7050   -9.8170  -19.0870 C.3       1 FWZ         0.0027
     17 N8        -28.6980   -7.0060  -18.8260 N.am      1 FWZ        -0.2472
     18 O9        -29.4420   -7.4610  -20.8940 O.2       1 FWZ        -0.3941
     19 C11       -26.7280   -5.8830  -18.1690 C.3       1 FWZ         0.0158
     20 C12       -27.7470   -5.8500  -17.0390 C.3       1 FWZ         0.0799
     21 O14       -28.5010   -4.6410  -17.1250 O.3       1 FWZ        -0.3896
     22 O16       -26.5670   -8.2950  -20.2190 O.2       1 FWZ        -0.3944
     23 N17       -26.1050   -6.3910  -21.3400 N.am      1 FWZ        -0.2758
     24 C18       -25.0920   -6.9700  -22.2090 C.3       1 FWZ         0.0617
     25 C19       -23.6870   -6.8040  -21.6790 C.ar      1 FWZ         0.0055
     26 C23       -22.0530   -5.6030  -20.3620 C.ar      1 FWZ        -0.0762
     27 C25       -19.6310   -6.1860  -20.4380 C.2       1 FWZ         0.0452
     28 N27       -17.3620   -5.7140  -20.5030 N.2       1 FWZ        -0.3005
     29 S29       -19.2330   -5.9550  -18.7630 S.3       1 FWZ        -0.0130
     30 C30       -18.3970   -6.2130  -22.6870 C.3       1 FWZ        -0.0271
     31 C31       -33.0430   -7.2050  -19.5660 C.2       1 FWZ         0.2352
     32 C32       -34.0820   -6.9400  -20.6520 C.3       1 FWZ         0.1890
     33 O33       -33.2650   -6.8380  -18.4230 O.2       1 FWZ        -0.3413
     34 F34       -33.6580   -7.3780  -21.9250 F         1 FWZ        -0.2375
     35 C35       -35.5130   -7.1570  -20.3720 C.3       1 FWZ        -0.0098
     36 C36       -34.9890   -5.7740  -20.6700 C.3       1 FWZ        -0.0098
     37 O37       -23.0800   -8.6650  -22.9580 O.3       1 FWZ        -0.3207
     38 C38       -22.1470   -9.6330  -23.4720 C.3       1 FWZ         0.0772
     39 C39       -21.8580  -10.6780  -22.4080 C.3       1 FWZ         0.0054
     40 C40       -26.3510  -14.1380  -21.0610 C.3       1 FWZ        -0.0009
     41 N41       -27.4210  -13.8990  -22.0400 N.4       1 FWZ         0.2493
     42 C42       -28.7360  -13.7150  -21.4120 C.3       1 FWZ        -0.0087
     43 C43       -29.8720  -14.0320  -22.3930 C.3       1 FWZ         0.0751
     44 N44       -29.4810  -13.7440  -23.7780 N.pl3     1 FWZ        -0.2739
     45 C45       -28.2970  -14.4900  -24.2190 C.3       1 FWZ         0.0751
     46 C46       -27.4880  -14.9590  -23.0360 C.3       1 FWZ        -0.0087
     47 C47       -30.5300  -13.5350  -24.7170 C.ar      1 FWZ         0.1311
     48 C48       -30.9170  -14.4920  -25.6580 C.ar      1 FWZ         0.0026
     49 C49       -31.9600  -14.1900  -26.5370 C.ar      1 FWZ         0.0257
     50 N50       -32.6290  -13.0330  -26.4420 N.ar      1 FWZ        -0.3164
     51 N51       -32.2810  -12.1120  -25.5180 N.ar      1 FWZ        -0.2806
     52 C52       -31.2510  -12.3120  -24.6750 C.ar      1 FWZ         0.1609
     53 N53       -30.9680  -11.3000  -23.8310 N.pl3     1 FWZ        -0.3048
     54 C54       -32.3810  -15.1020  -27.6410 C.ar      1 FWZ         0.0346
     55 C55       -33.4220  -14.7630  -28.5250 C.ar      1 FWZ         0.1075
     56 C56       -33.7970  -15.6360  -29.5510 C.ar      1 FWZ        -0.0254
     57 C57       -33.1370  -16.8430  -29.7110 C.ar      1 FWZ        -0.0648
     58 C58       -32.1210  -17.1940  -28.8490 C.ar      1 FWZ        -0.0659
     59 C59       -31.7420  -16.3350  -27.8290 C.ar      1 FWZ        -0.0531
     60 O60       -34.1360  -13.6100  -28.4750 O.3       1 FWZ        -0.3260
     61 C61       -23.0370  -11.5680  -22.0900 C.ar      1 FWZ        -0.0472
     62 C62       -23.0900  -12.8780  -22.5490 C.ar      1 FWZ        -0.0666
     63 C63       -24.1240  -13.7210  -22.1770 C.ar      1 FWZ        -0.0618
     64 C64       -25.1480  -13.2740  -21.3520 C.ar      1 FWZ        -0.0053
     65 C65       -25.1000  -11.9630  -20.9010 C.ar      1 FWZ        -0.0618
     66 C66       -24.0640  -11.1220  -21.2670 C.ar      1 FWZ        -0.0666
     67 H1        -31.8573   -8.0357  -20.9369 H         1 FWZ         0.1890
     68 H2        -29.3658  -11.3420  -18.3369 H         1 FWZ         0.0237
     69 H3        -29.4569   -9.8641  -17.3201 H         1 FWZ         0.0237
     70 H4        -28.5520   -9.8325  -18.8715 H         1 FWZ         0.0237
     71 H5        -32.8369  -10.1084  -18.8667 H         1 FWZ         0.0237
     72 H6        -31.9310  -10.0294  -17.3177 H         1 FWZ         0.0237
     73 H7        -31.8352  -11.5032  -18.3401 H         1 FWZ         0.0237
     74 H8        -29.8071   -9.9900  -21.0464 H         1 FWZ         0.0237
     75 H9        -31.5971  -10.1398  -21.0301 H         1 FWZ         0.0237
     76 H10       -30.5768  -11.4966  -20.4428 H         1 FWZ         0.0237
     77 H11       -27.9208   -5.3794  -19.9236 H         1 FWZ         0.0803
     78 H12       -28.2091   -7.9742  -16.9941 H         1 FWZ         0.0550
     79 H13       -29.6473   -6.9004  -16.9234 H         1 FWZ         0.0550
     80 H14       -20.5761   -8.1336  -22.0513 H         1 FWZ         0.0482
     81 H15       -24.1317   -5.1297  -20.4111 H         1 FWZ         0.0522
     82 H16       -16.8296   -5.4217  -18.5060 H         1 FWZ         0.1176
     83 H17       -30.9976   -7.9195  -18.0952 H         1 FWZ         0.0807
     84 H18       -26.2646   -4.8951  -18.3078 H         1 FWZ         0.0338
     85 H19       -25.9458   -6.6302  -17.9697 H         1 FWZ         0.0338
     86 H20       -27.2737   -5.9461  -16.0507 H         1 FWZ         0.0616
     87 H21       -27.9147   -3.8974  -17.0491 H         1 FWZ         0.2099
     88 H22       -26.3705   -5.4372  -21.4808 H         1 FWZ         0.1875
     89 H23       -25.1545   -6.4814  -23.1925 H         1 FWZ         0.0657
     90 H24       -25.2991   -8.0446  -22.3196 H         1 FWZ         0.0657
     91 H25       -21.8219   -4.8076  -19.6627 H         1 FWZ         0.0479
     92 H26       -17.3620   -6.0200  -23.0057 H         1 FWZ         0.0382
     93 H27       -19.0736   -5.5077  -23.1916 H         1 FWZ         0.0382
     94 H28       -18.6764   -7.2432  -22.9529 H         1 FWZ         0.0382
     95 H29       -35.8433   -7.4145  -19.3549 H         1 FWZ         0.0282
     96 H30       -36.1461   -7.6771  -21.1059 H         1 FWZ         0.0282
     97 H31       -35.2378   -5.2824  -21.6221 H         1 FWZ         0.0282
     98 H32       -34.9350   -5.0199  -19.8711 H         1 FWZ         0.0282
     99 H33       -21.2112   -9.1269  -23.7515 H         1 FWZ         0.0632
    100 H34       -22.5780  -10.1223  -24.3579 H         1 FWZ         0.0632
    101 H35       -21.5564  -10.1596  -21.4859 H         1 FWZ         0.0439
    102 H36       -21.0305  -11.3115  -22.7600 H         1 FWZ         0.0439
    103 H37       -26.0530  -15.1959  -21.1050 H         1 FWZ         0.0967
    104 H38       -26.7263  -13.9043  -20.0538 H         1 FWZ         0.0967
    105 H39       -27.1949  -13.0428  -22.5215 H         1 FWZ         0.2048
    106 H40       -28.8311  -12.6709  -21.0791 H         1 FWZ         0.0836
    107 H41       -28.8152  -14.3854  -20.5435 H         1 FWZ         0.0836
    108 H42       -30.7490  -13.4204  -22.1344 H         1 FWZ         0.0588
    109 H43       -30.1305  -15.0979  -22.3086 H         1 FWZ         0.0588
    110 H44       -27.6727  -13.8372  -24.8467 H         1 FWZ         0.0588
    111 H45       -28.6188  -15.3636  -24.8049 H         1 FWZ         0.0588
    112 H46       -27.9651  -15.8465  -22.5948 H         1 FWZ         0.0836
    113 H47       -26.4708  -15.2157  -23.3666 H         1 FWZ         0.0836
    114 H48       -30.4167  -15.4525  -25.7054 H         1 FWZ         0.0562
    115 H49       -31.5318  -10.4383  -23.8528 H         1 FWZ         0.1868
    116 H50       -30.1879  -11.3883  -23.1642 H         1 FWZ         0.1868
    117 H51       -34.6051  -15.3677  -30.2218 H         1 FWZ         0.0558
    118 H52       -33.4201  -17.5124  -30.5153 H         1 FWZ         0.0635
    119 H53       -31.6160  -18.1457  -28.9689 H         1 FWZ         0.0542
    120 H54       -30.9357  -16.6226  -27.1640 H         1 FWZ         0.0643
    121 H55       -33.8218  -13.0752  -27.7553 H         1 FWZ         0.2520
    122 H56       -22.3113  -13.2456  -23.2075 H         1 FWZ         0.0540
    123 H57       -24.1342  -14.7442  -22.5348 H         1 FWZ         0.0542
    124 H58       -25.8854  -11.5921  -20.2525 H         1 FWZ         0.0542
    125 H59       -24.0534  -10.0998  -20.9063 H         1 FWZ         0.0540
@<TRIPOS>BOND
     1   15    1 1  
     2    1   31 am 
     3    2   15 1  
     4   17    2 am 
     5    2   18 2  
     6   16    3 1  
     7   16    4 1  
     8   16    5 1  
     9    8    6 1  
    10    6   17 1  
    11    6   19 1  
    12   17    7 1  
    13   20    7 1  
    14    8   22 2  
    15   23    8 am 
    16    9   10 ar 
    17    9   25 ar 
    18   37    9 1  
    19   10   11 ar 
    20   11   26 ar 
    21   11   27 1  
    22   25   12 ar 
    23   12   26 ar 
    24   27   13 2  
    25   13   28 1  
    26   13   30 1  
    27   14   28 2  
    28   29   14 1  
    29   15   16 1  
    30   19   20 1  
    31   20   21 1  
    32   24   23 1  
    33   25   24 1  
    34   27   29 1  
    35   31   32 1  
    36   31   33 2  
    37   32   34 1  
    38   32   35 1  
    39   32   36 1  
    40   36   35 1  
    41   38   37 1  
    42   39   38 1  
    43   61   39 1  
    44   40   41 1  
    45   64   40 1  
    46   41   42 1  
    47   41   46 1  
    48   42   43 1  
    49   43   44 1  
    50   45   44 1  
    51   44   47 1  
    52   46   45 1  
    53   47   48 ar 
    54   47   52 ar 
    55   48   49 ar 
    56   49   50 ar 
    57   49   54 1  
    58   51   50 ar 
    59   52   51 ar 
    60   52   53 1  
    61   54   55 ar 
    62   54   59 ar 
    63   55   56 ar 
    64   55   60 1  
    65   56   57 ar 
    66   58   57 ar 
    67   59   58 ar 
    68   62   61 ar 
    69   61   66 ar 
    70   63   62 ar 
    71   63   64 ar 
    72   64   65 ar 
    73   65   66 ar 
    74    1   67 1  
    75    3   68 1  
    76    3   69 1  
    77    3   70 1  
    78    4   71 1  
    79    4   72 1  
    80    4   73 1  
    81    5   74 1  
    82    5   75 1  
    83    5   76 1  
    84    6   77 1  
    85    7   78 1  
    86    7   79 1  
    87   10   80 1  
    88   12   81 1  
    89   14   82 1  
    90   15   83 1  
    91   19   84 1  
    92   19   85 1  
    93   20   86 1  
    94   21   87 1  
    95   23   88 1  
    96   24   89 1  
    97   24   90 1  
    98   26   91 1  
    99   30   92 1  
   100   30   93 1  
   101   30   94 1  
   102   35   95 1  
   103   35   96 1  
   104   36   97 1  
   105   36   98 1  
   106   38   99 1  
   107   38  100 1  
   108   39  101 1  
   109   39  102 1  
   110   40  103 1  
   111   40  104 1  
   112   41  105 1  
   113   42  106 1  
   114   42  107 1  
   115   43  108 1  
   116   43  109 1  
   117   45  110 1  
   118   45  111 1  
   119   46  112 1  
   120   46  113 1  
   121   48  114 1  
   122   53  115 1  
   123   53  116 1  
   124   56  117 1  
   125   57  118 1  
   126   58  119 1  
   127   59  120 1  
   128   60  121 1  
   129   62  122 1  
   130   63  123 1  
   131   65  124 1  
   132   66  125 1  
@<TRIPOS>SUBSTRUCTURE
     1 FWZ         1

