### 
### Created by X-TOOL on Mon Aug  2 16:17:10 2021
### 

@<TRIPOS>MOLECULE
6hro_ligand
   60    63     1     0     0
SMALL
GAST_HUCK


@<TRIPOS>ATOM
      1 C10       -45.5070   10.5980    1.5720 C.ar      1 GKZ         0.0867
      2 C15       -44.7380   10.2650    3.7980 C.3       1 GKZ         0.1108
      3 C20       -44.4260    9.9470    8.9090 C.3       1 GKZ         0.0580
      4 C21       -43.9370   11.0760    8.1290 C.3       1 GKZ         0.0074
      5 C22       -44.7320   11.3690    6.8420 C.3       1 GKZ        -0.0294
      6 C26       -47.3830   12.1270   -3.1070 C.ar      1 GKZ        -0.0386
      7 C28       -49.6090   11.3420   -2.5470 C.ar      1 GKZ        -0.0547
      8 C01       -46.5770   14.3970   -5.1470 C.3       1 GKZ        -0.0265
      9 C02       -45.8880   14.0530   -3.7910 C.2       1 GKZ         0.0144
     10 C03       -46.2870   13.0260   -2.9050 C.2       1 GKZ         0.0062
     11 C04       -45.3950   13.0600   -1.8110 C.2       1 GKZ         0.0879
     12 C07       -45.4270   12.2320   -0.7020 C.ar      1 GKZ         0.0348
     13 C08       -45.5250   10.8430   -0.8400 C.ar      1 GKZ        -0.0640
     14 C09       -45.5660   10.0250    0.2970 C.ar      1 GKZ        -0.0400
     15 C11       -45.4110   11.9870    1.7100 C.ar      1 GKZ        -0.0007
     16 C12       -45.3720   12.8030    0.5790 C.ar      1 GKZ         0.0963
     17 C16       -45.6450   10.4370    5.0700 C.3       1 GKZ        -0.0033
     18 C18       -45.6680    9.2010    6.8780 C.3       1 GKZ        -0.0294
     19 C19       -44.8230    8.8180    8.1220 C.3       1 GKZ         0.0074
     20 C23       -45.6260   10.3900    9.8330 C.2       1 GKZ         0.1770
     21 C27       -48.5460   12.2350   -2.3350 C.ar      1 GKZ        -0.0639
     22 C29       -49.5050   10.3520   -3.5240 C.ar      1 GKZ         0.0335
     23 C30       -48.3430   10.2460   -4.2930 C.ar      1 GKZ        -0.0547
     24 C31       -47.2840   11.1350   -4.0810 C.ar      1 GKZ        -0.0639
     25 N05       -44.5110   14.0720   -2.0370 N.pl3     1 GKZ        -0.2254
     26 N06       -44.8130   14.6730   -3.2450 N.2       1 GKZ        -0.2306
     27 N17       -44.9950   10.1780    6.0860 N.4       1 GKZ         0.2374
     28 N25       -45.9440    9.6000   11.0510 N.am      1 GKZ        -0.3006
     29 O13       -45.2720   14.2210    0.7300 O.3       1 GKZ        -0.3310
     30 O14       -45.5470    9.7820    2.7240 O.3       1 GKZ        -0.3130
     31 O24       -46.2800   11.3480    9.5650 O.2       1 GKZ        -0.3970
     32 CL        -50.8450    9.2280   -3.7910 Cl        1 GKZ        -0.0764
     33 H1        -43.9347    9.5441    4.0102 H         1 GKZ         0.0670
     34 H2        -44.2973   11.2346    3.5231 H         1 GKZ         0.0670
     35 H3        -43.5997    9.6199    9.5573 H         1 GKZ         0.0542
     36 H4        -42.8940   10.8700    7.8467 H         1 GKZ         0.0344
     37 H5        -43.9745   11.9726    8.7652 H         1 GKZ         0.0344
     38 H6        -44.1520   12.0644    6.2175 H         1 GKZ         0.0816
     39 H7        -45.6905   11.8341    7.1155 H         1 GKZ         0.0816
     40 H8        -50.5109   11.4222   -1.9510 H         1 GKZ         0.0606
     41 H9        -46.0529   15.2400   -5.6211 H         1 GKZ         0.0382
     42 H10       -47.6262   14.6730   -4.9656 H         1 GKZ         0.0382
     43 H11       -46.5378   13.5208   -5.8109 H         1 GKZ         0.0382
     44 H12       -45.5693   10.3991   -1.8279 H         1 GKZ         0.0583
     45 H13       -45.6434    8.9492    0.1888 H         1 GKZ         0.0469
     46 H14       -45.3668   12.4303    2.6982 H         1 GKZ         0.0470
     47 H15       -46.5033    9.7525    5.0015 H         1 GKZ         0.0841
     48 H16       -46.0067   11.4745    5.1228 H         1 GKZ         0.0841
     49 H17       -46.6334    9.6100    7.2106 H         1 GKZ         0.0816
     50 H18       -45.8410    8.3012    6.2694 H         1 GKZ         0.0816
     51 H19       -45.4194    8.1442    8.7547 H         1 GKZ         0.0344
     52 H20       -43.9175    8.2949    7.7809 H         1 GKZ         0.0344
     53 H21       -48.6257   13.0052   -1.5763 H         1 GKZ         0.0561
     54 H22       -48.2625    9.4765   -5.0522 H         1 GKZ         0.0606
     55 H23       -46.3823   11.0520   -4.6769 H         1 GKZ         0.0561
     56 H24       -43.7417   14.3453   -1.4090 H         1 GKZ         0.2482
     57 H25       -44.1097    9.7902    5.7999 H         1 GKZ         0.2034
     58 H26       -46.7030    9.8749   11.6412 H         1 GKZ         0.1814
     59 H27       -45.3989    8.7936   11.2804 H         1 GKZ         0.1814
     60 H28       -44.4724   14.4330    1.1970 H         1 GKZ         0.2507
@<TRIPOS>BOND
     1    1   14 ar 
     2    1   15 ar 
     3   30    1 1  
     4   17    2 1  
     5    2   30 1  
     6    4    3 1  
     7    3   19 1  
     8    3   20 1  
     9    5    4 1  
    10   27    5 1  
    11   10    6 1  
    12    6   21 ar 
    13    6   24 ar 
    14   21    7 ar 
    15    7   22 ar 
    16    9    8 1  
    17   10    9 1  
    18    9   26 2  
    19   11   10 2  
    20   12   11 1  
    21   11   25 1  
    22   13   12 ar 
    23   16   12 ar 
    24   14   13 ar 
    25   15   16 ar 
    26   16   29 1  
    27   17   27 1  
    28   19   18 1  
    29   18   27 1  
    30   20   28 am 
    31   20   31 2  
    32   22   23 ar 
    33   22   32 1  
    34   23   24 ar 
    35   25   26 1  
    36    2   33 1  
    37    2   34 1  
    38    3   35 1  
    39    4   36 1  
    40    4   37 1  
    41    5   38 1  
    42    5   39 1  
    43    7   40 1  
    44    8   41 1  
    45    8   42 1  
    46    8   43 1  
    47   13   44 1  
    48   14   45 1  
    49   15   46 1  
    50   17   47 1  
    51   17   48 1  
    52   18   49 1  
    53   18   50 1  
    54   19   51 1  
    55   19   52 1  
    56   21   53 1  
    57   23   54 1  
    58   24   55 1  
    59   25   56 1  
    60   27   57 1  
    61   28   58 1  
    62   28   59 1  
    63   29   60 1  
@<TRIPOS>SUBSTRUCTURE
     1 GKZ         1

