### 
### Created by X-TOOL on Mon Aug  2 16:13:58 2021
### 

@<TRIPOS>MOLECULE
6hrp_ligand
   81    86     1     0     0
SMALL
GAST_HUCK


@<TRIPOS>ATOM
      1 C1         21.3870    5.6580    0.9990 C.2       1 GMQ         0.2654
      2 C2         22.6160    6.0470    0.3910 C.2       1 GMQ         0.1458
      3 C3         23.6140    6.5620    1.1030 C.2       1 GMQ        -0.0148
      4 C4         23.4690    6.6900    2.5310 C.2       1 GMQ         0.0546
      5 C9         23.6200    5.9720   -1.9110 C.ar      1 GMQ         0.1390
      6 C10        23.3160    5.6080   -3.2690 C.ar      1 GMQ        -0.0057
      7 C11        24.3410    5.7730   -4.1910 C.ar      1 GMQ        -0.0334
      8 C12        25.5750    6.2410   -3.7930 C.ar      1 GMQ         0.0641
      9 C13        25.7580    6.5240   -2.4270 C.ar      1 GMQ         0.0178
     10 C15        26.6540    6.3600   -4.7960 C.2       1 GMQ         0.2061
     11 O8         20.4360    5.2050    0.3950 O.2       1 GMQ        -0.4004
     12 C24        24.5640    7.1880    3.3250 C.ar      1 GMQ        -0.0142
     13 C32        25.0480   10.0660    8.4400 C.ar      1 GMQ         0.1255
     14 C33        24.9140   11.4030    8.0200 C.ar      1 GMQ         0.0320
     15 C34        24.9490   11.7340    6.6150 C.2       1 GMQ         0.0507
     16 C36        24.9170    9.8030    9.8280 C.ar      1 GMQ         0.1752
     17 C37        24.7490   10.7810   10.7450 C.ar      1 GMQ        -0.0066
     18 C38        24.7130   12.0990   10.3490 C.ar      1 GMQ        -0.0484
     19 C39        24.7520   12.4260    8.9950 C.ar      1 GMQ        -0.0323
     20 C44        24.6180   13.2340   11.3680 C.3       1 GMQ        -0.0442
     21 N5         22.3630    6.2960    3.1270 N.2       1 GMQ        -0.1802
     22 N6         21.3280    5.8230    2.3830 N.am      1 GMQ        -0.1534
     23 N7         22.5860    5.8450   -1.0090 N.pl3     1 GMQ        -0.2490
     24 N14        24.7880    6.3760   -1.5510 N.ar      1 GMQ        -0.2738
     25 O16        27.6910    5.7900   -4.5820 O.2       1 GMQ        -0.3873
     26 N17        26.4430    7.0120   -5.9390 N.am      1 GMQ        -0.2688
     27 C18        27.5570    7.0480   -6.9460 C.3       1 GMQ         0.0567
     28 C19        27.5260    8.4150   -7.6400 C.3       1 GMQ         0.0680
     29 O20        26.2070    8.6470   -8.1810 O.3       1 GMQ        -0.3758
     30 C21        25.3190    8.9990   -7.1040 C.3       1 GMQ         0.0680
     31 C22        25.1710    7.7220   -6.2700 C.3       1 GMQ         0.0567
     32 C23        20.0580    5.5590    3.0910 C.3       1 GMQ         0.0687
     33 C25        25.8390    6.7070    3.0720 C.ar      1 GMQ        -0.0731
     34 C26        26.9410    7.1510    3.7650 C.ar      1 GMQ        -0.0785
     35 C27        26.6920    8.0780    4.7920 C.ar      1 GMQ        -0.0364
     36 C28        25.4530    8.5100    5.0450 C.ar      1 GMQ         0.1248
     37 C29        24.3240    8.1370    4.3550 C.ar      1 GMQ         0.0239
     38 N30        25.3350    9.4600    6.1340 N.am      1 GMQ        -0.0955
     39 C31        25.2560    8.9870    7.4230 C.2       1 GMQ         0.2841
     40 N35        25.1660   10.8120    5.7070 N.2       1 GMQ        -0.1517
     41 C40        23.0690    8.8190    4.6410 C.3       1 GMQ         0.0775
     42 O41        22.5180    8.3600    5.8810 O.3       1 GMQ        -0.3840
     43 O42        25.3950    7.7900    7.6910 O.2       1 GMQ        -0.3725
     44 F43        24.9110    8.4870   10.2490 F         1 GMQ        -0.1723
     45 C45        24.5960   12.6800   12.7920 C.3       1 GMQ        -0.0827
     46 C46        25.9160   14.0890   11.2340 C.3       1 GMQ        -0.0827
     47 C47        23.4330   14.1270   11.0710 C.3       1 GMQ        -0.0827
     48 H1         24.5313    6.8837    0.6121 H         1 GMQ         0.0488
     49 H2         22.3427    5.2268   -3.5561 H         1 GMQ         0.0637
     50 H3         24.1692    5.5315   -5.2337 H         1 GMQ         0.0748
     51 H4         26.7259    6.8740   -2.0868 H         1 GMQ         0.0841
     52 H5         24.7927   12.7658    6.3038 H         1 GMQ         0.0772
     53 H6         24.6425   10.5276   11.7936 H         1 GMQ         0.0787
     54 H7         24.6588   13.4604    8.6846 H         1 GMQ         0.0839
     55 H8         21.6760    5.5679   -1.4040 H         1 GMQ         0.2184
     56 H9         27.4145    6.2493   -7.6887 H         1 GMQ         0.0544
     57 H10        28.5231    6.9090   -6.4388 H         1 GMQ         0.0544
     58 H11        28.2649    8.4301   -8.4547 H         1 GMQ         0.0580
     59 H12        27.7677    9.2025   -6.9111 H         1 GMQ         0.0580
     60 H13        24.3426    9.3175   -7.4978 H         1 GMQ         0.0580
     61 H14        25.7511    9.8080   -6.4968 H         1 GMQ         0.0580
     62 H15        24.6787    7.9917   -5.3240 H         1 GMQ         0.0544
     63 H16        24.5311    7.0248   -6.8307 H         1 GMQ         0.0544
     64 H17        20.1943    5.7386    4.1677 H         1 GMQ         0.0609
     65 H18        19.7583    4.5131    2.9288 H         1 GMQ         0.0609
     66 H19        19.2761    6.2288    2.7037 H         1 GMQ         0.0609
     67 H20        25.9722    5.9556    2.3021 H         1 GMQ         0.0493
     68 H21        27.9423    6.8065    3.5329 H         1 GMQ         0.0529
     69 H22        27.5181    8.4483    5.3882 H         1 GMQ         0.0513
     70 H23        22.3539    8.6157    3.8302 H         1 GMQ         0.0704
     71 H24        23.2522    9.9017    4.7054 H         1 GMQ         0.0704
     72 H25        21.7014    8.8147    6.0510 H         1 GMQ         0.2124
     73 H26        24.5275   13.5121   13.5081 H         1 GMQ         0.0141
     74 H27        25.5187   12.1110   12.9784 H         1 GMQ         0.0141
     75 H28        23.7260   12.0182   12.9146 H         1 GMQ         0.0141
     76 H29        25.9745   14.5102   10.2195 H         1 GMQ         0.0141
     77 H30        26.7945   13.4532   11.4182 H         1 GMQ         0.0141
     78 H31        25.8942   14.9065   11.9697 H         1 GMQ         0.0141
     79 H32        22.5039   13.5448   11.1594 H         1 GMQ         0.0141
     80 H33        23.5206   14.5247   10.0492 H         1 GMQ         0.0141
     81 H34        23.4130   14.9605   11.7885 H         1 GMQ         0.0141
@<TRIPOS>BOND
     1    2    1 1  
     2    1   11 2  
     3   22    1 am 
     4    3    2 2  
     5    2   23 1  
     6    4    3 1  
     7   12    4 1  
     8    4   21 2  
     9    5    6 ar 
    10   23    5 1  
    11    5   24 ar 
    12    6    7 ar 
    13    7    8 ar 
    14    9    8 ar 
    15    8   10 1  
    16   24    9 ar 
    17   10   25 2  
    18   10   26 am 
    19   12   33 ar 
    20   37   12 ar 
    21   13   14 ar 
    22   13   16 ar 
    23   39   13 1  
    24   14   15 1  
    25   14   19 ar 
    26   15   40 2  
    27   16   17 ar 
    28   16   44 1  
    29   17   18 ar 
    30   19   18 ar 
    31   18   20 1  
    32   20   45 1  
    33   20   46 1  
    34   20   47 1  
    35   21   22 1  
    36   22   32 1  
    37   26   27 1  
    38   26   31 1  
    39   27   28 1  
    40   28   29 1  
    41   30   29 1  
    42   31   30 1  
    43   34   33 ar 
    44   35   34 ar 
    45   36   35 ar 
    46   36   37 ar 
    47   38   36 1  
    48   37   41 1  
    49   38   39 am 
    50   38   40 1  
    51   39   43 2  
    52   41   42 1  
    53    3   48 1  
    54    6   49 1  
    55    7   50 1  
    56    9   51 1  
    57   15   52 1  
    58   17   53 1  
    59   19   54 1  
    60   23   55 1  
    61   27   56 1  
    62   27   57 1  
    63   28   58 1  
    64   28   59 1  
    65   30   60 1  
    66   30   61 1  
    67   31   62 1  
    68   31   63 1  
    69   32   64 1  
    70   32   65 1  
    71   32   66 1  
    72   33   67 1  
    73   34   68 1  
    74   35   69 1  
    75   41   70 1  
    76   41   71 1  
    77   42   72 1  
    78   45   73 1  
    79   45   74 1  
    80   45   75 1  
    81   46   76 1  
    82   46   77 1  
    83   46   78 1  
    84   47   79 1  
    85   47   80 1  
    86   47   81 1  
@<TRIPOS>SUBSTRUCTURE
     1 GMQ         1

