### 
### Created by X-TOOL on Wed Jan  1 15:39:35 2020
### 

@<TRIPOS>MOLECULE
6hrq_ligand
   37    39     1     0     0
SMALL
GAST_HUCK


@<TRIPOS>ATOM
      1 C6         42.1560   38.0480   92.1710 C.ar      1 GM5        -0.0497
      2 C5         40.9040   38.2620   92.7200 C.ar      1 GM5        -0.0678
      3 C4         40.6160   39.4520   93.3540 C.ar      1 GM5        -0.0687
      4 C2         42.8340   40.2350   92.8880 C.ar      1 GM5        -0.0497
      5 C10        44.0490   37.1520   87.4260 C.2       1 GM5         0.0711
      6 C12        44.8040   34.0070   84.6550 C.ar      1 GM5        -0.0465
      7 C13        45.4860   34.0330   85.8690 C.ar      1 GM5         0.0473
      8 C14        45.2510   35.0780   86.7610 C.ar      1 GM5        -0.0402
      9 C15        44.3230   36.0730   86.4580 C.ar      1 GM5        -0.0141
     10 C16        43.6430   36.0240   85.2430 C.ar      1 GM5        -0.0560
     11 C17        43.8870   34.9980   84.3470 C.ar      1 GM5        -0.0607
     12 C18        46.3980   32.9040   86.2450 C.2       1 GM5         0.2267
     13 C1         43.1290   39.0350   92.2560 C.ar      1 GM5         0.0183
     14 C3         41.5790   40.4360   93.4360 C.ar      1 GM5        -0.0678
     15 N7         44.1190   38.6740   88.9500 N.pl3     1 GM5        -0.1547
     16 N8         42.8580   38.6420   88.4880 N.2       1 GM5        -0.0895
     17 N9         42.8120   37.7130   87.5610 N.2       1 GM5        -0.2164
     18 C11        44.8850   37.7690   88.3170 C.2       1 GM5         0.0889
     19 N19        46.4130   31.8650   85.4120 N.am      1 GM5        -0.1633
     20 O20        47.1400   30.7140   85.7180 O.3       1 GM5        -0.2719
     21 O21        47.0590   32.9360   87.2830 O.2       1 GM5        -0.3849
     22 S22        44.7420   38.7560   91.5870 S.3       1 GM5        -0.0647
     23 C23        44.5410   39.5860   89.9930 C.3       1 GM5         0.1378
     24 H1         42.3772   37.1100   91.6747 H         1 GM5         0.0565
     25 H2         40.1459   37.4902   92.6513 H         1 GM5         0.0600
     26 H3         39.6354   39.6138   93.7868 H         1 GM5         0.0559
     27 H4         43.5854   41.0137   92.9523 H         1 GM5         0.0565
     28 H5         44.9918   33.2072   83.9478 H         1 GM5         0.0631
     29 H6         45.7944   35.1172   87.6981 H         1 GM5         0.0634
     30 H7         42.9194   36.7932   84.9984 H         1 GM5         0.0615
     31 H8         43.3586   34.9699   83.4009 H         1 GM5         0.0617
     32 H9         41.3516   41.3724   93.9326 H         1 GM5         0.0600
     33 H10        45.9433   37.5695   88.4783 H         1 GM5         0.1077
     34 H11        45.8969   31.9103   84.5567 H         1 GM5         0.2213
     35 H12        47.0377   30.0806   85.0174 H         1 GM5         0.2491
     36 H13        43.7845   40.3775   90.0988 H         1 GM5         0.0800
     37 H14        45.5028   40.0344   89.7035 H         1 GM5         0.0800
@<TRIPOS>BOND
     1    1    2 ar 
     2   13    1 ar 
     3    2    3 ar 
     4   14    3 ar 
     5   13    4 ar 
     6    4   14 ar 
     7    5    9 1  
     8    5   17 1  
     9   18    5 2  
    10    7    6 ar 
    11   11    6 ar 
    12    8    7 ar 
    13    7   12 1  
    14    9    8 ar 
    15    9   10 ar 
    16   10   11 ar 
    17   12   19 am 
    18   12   21 2  
    19   22   13 1  
    20   15   16 1  
    21   15   18 1  
    22   23   15 1  
    23   16   17 2  
    24   19   20 1  
    25   22   23 1  
    26    1   24 1  
    27    2   25 1  
    28    3   26 1  
    29    4   27 1  
    30    6   28 1  
    31    8   29 1  
    32   10   30 1  
    33   11   31 1  
    34   14   32 1  
    35   18   33 1  
    36   19   34 1  
    37   20   35 1  
    38   23   36 1  
    39   23   37 1  
@<TRIPOS>SUBSTRUCTURE
     1 GM5         1

