### 
### Created by X-TOOL on Mon Aug  2 16:13:58 2021
### 

@<TRIPOS>MOLECULE
6hrt_ligand
   86    92     1     0     0
SMALL
GAST_HUCK


@<TRIPOS>ATOM
      1 C1         23.3130    5.6380   -3.1900 C.ar      1 GMW        -0.0081
      2 C2         24.2980    5.7170   -4.1330 C.ar      1 GMW        -0.0349
      3 C3         25.5940    6.1390   -3.8340 C.ar      1 GMW         0.0627
      4 C4         25.9200    6.4430   -2.4940 C.ar      1 GMW         0.0162
      5 C6         23.7380    5.9850   -1.8430 C.ar      1 GMW         0.1314
      6 C12        27.4840    8.4400   -7.8020 C.3       1 GMW         0.0680
      7 C15        25.1550    7.5880   -6.4050 C.3       1 GMW         0.0567
      8 C16        24.8750    7.1390    3.3960 C.ar      1 GMW        -0.0523
      9 C17        26.1250    6.6750    3.0950 C.ar      1 GMW        -0.0857
     10 C18        27.2300    7.1430    3.7350 C.ar      1 GMW        -0.0868
     11 C23        22.5270    6.2770    3.1970 C.2       1 GMW         0.0886
     12 C25        21.5050    5.7290    1.0890 C.2       1 GMW         0.2364
     13 C26        22.7900    6.0520    0.5040 C.2       1 GMW         0.1146
     14 C27        23.8770    6.5300    1.1880 C.2       1 GMW        -0.0570
     15 O28        20.4980    5.3350    0.4890 O.2       1 GMW        -0.4103
     16 N5         24.9580    6.3480   -1.5400 N.ar      1 GMW        -0.2765
     17 N7         22.7020    5.8700   -0.9330 N.pl3     1 GMW        -0.2671
     18 C8         26.6900    6.2640   -4.8680 C.2       1 GMW         0.2052
     19 N9         26.4830    6.9500   -6.0500 N.am      1 GMW        -0.2689
     20 O10        27.7630    5.7810   -4.5770 O.2       1 GMW        -0.3879
     21 C11        27.5670    7.0690   -7.0860 C.3       1 GMW         0.0567
     22 O13        26.1550    8.6930   -8.3180 O.3       1 GMW        -0.3758
     23 C14        25.2720    8.9080   -7.2110 C.3       1 GMW         0.0680
     24 C19        27.0760    8.0340    4.7880 C.ar      1 GMW        -0.0442
     25 C20        25.8250    8.5050    5.0700 C.ar      1 GMW         0.1141
     26 C21        24.6520    8.0880    4.4270 C.ar      1 GMW        -0.0119
     27 C22        23.7110    6.6420    2.6270 C.2       1 GMW        -0.0163
     28 N24        21.4320    5.8970    2.4880 N.am      1 GMW        -0.2043
     29 N29        25.6790    9.4410    6.1610 N.am      1 GMW        -0.0977
     30 C30        25.5860    8.9790    7.4710 C.2       1 GMW         0.2838
     31 C31        25.0930   11.7090    6.6790 C.2       1 GMW         0.0506
     32 N32        25.4010   10.7840    5.7990 N.2       1 GMW        -0.1519
     33 O33        25.7780    7.7900    7.6850 O.2       1 GMW        -0.3725
     34 C34        25.1090   11.3550    8.0870 C.ar      1 GMW         0.0319
     35 C35        25.3250   10.0160    8.4690 C.ar      1 GMW         0.1255
     36 C36        25.2650    9.8060    9.8500 C.ar      1 GMW         0.1752
     37 C37        25.0160   10.7490   10.7710 C.ar      1 GMW        -0.0067
     38 C38        24.8100   12.0390   10.3740 C.ar      1 GMW        -0.0484
     39 C39        24.8510   12.3960    9.0190 C.ar      1 GMW        -0.0323
     40 C40        22.4180    6.2940    4.7290 C.3       1 GMW         0.0471
     41 C41        23.2690    8.6670    4.6820 C.3       1 GMW         0.0045
     42 C42        22.2020    7.7440    5.2970 C.3       1 GMW         0.0784
     43 F43        25.4570    8.5290   10.2760 F         1 GMW        -0.1723
     44 C44        24.6360   13.1090   11.4090 C.3       1 GMW        -0.0442
     45 C45        23.9220   12.5720   12.6650 C.3       1 GMW        -0.0827
     46 C46        26.0140   13.7140   11.6900 C.3       1 GMW        -0.0827
     47 C47        23.6790   14.2080   11.0100 C.3       1 GMW        -0.0827
     48 O48        22.4650    7.6780    6.6630 O.3       1 GMW        -0.3871
     49 C49        20.1140    5.6650    3.1170 C.3       1 GMW         0.0580
     50 H1         22.2976    5.3410   -3.4262 H         1 GMW         0.0627
     51 H2         24.0635    5.4408   -5.1547 H         1 GMW         0.0744
     52 H3         26.9260    6.7485   -2.2300 H         1 GMW         0.0838
     53 H4         28.1991    8.4500   -8.6378 H         1 GMW         0.0580
     54 H5         27.7457    9.2330   -7.0860 H         1 GMW         0.0580
     55 H6         24.6159    7.8025   -5.4705 H         1 GMW         0.0544
     56 H7         24.5776    6.8691   -7.0047 H         1 GMW         0.0544
     57 H8         26.2381    5.9167    2.3287 H         1 GMW         0.0423
     58 H9         28.2190    6.8240    3.4265 H         1 GMW         0.0510
     59 H10        24.8031    6.8073    0.6866 H         1 GMW         0.0424
     60 H11        21.7753    5.6312   -1.3138 H         1 GMW         0.2093
     61 H12        28.5476    6.9749   -6.5965 H         1 GMW         0.0544
     62 H13        27.4488    6.2653   -7.8277 H         1 GMW         0.0544
     63 H14        25.6749    9.7018   -6.5649 H         1 GMW         0.0580
     64 H15        24.2797    9.2049   -7.5813 H         1 GMW         0.0580
     65 H16        27.9310    8.3498    5.3748 H         1 GMW         0.0452
     66 H17        24.8319   12.7171    6.3603 H         1 GMW         0.0772
     67 H18        24.9786   10.4888   11.8226 H         1 GMW         0.0786
     68 H19        24.6932   13.4190    8.6971 H         1 GMW         0.0839
     69 H20        23.3453    5.8824    5.1540 H         1 GMW         0.0546
     70 H21        21.5664    5.6661    5.0298 H         1 GMW         0.0546
     71 H22        22.8788    9.0199    3.7160 H         1 GMW         0.0420
     72 H23        23.3928    9.5226    5.3622 H         1 GMW         0.0420
     73 H24        21.1853    8.1109    5.0930 H         1 GMW         0.0645
     74 H25        23.8127   13.3834   13.3997 H         1 GMW         0.0141
     75 H26        24.5161   11.7572   13.1044 H         1 GMW         0.0141
     76 H27        22.9276   12.1923   12.3874 H         1 GMW         0.0141
     77 H28        26.4559   14.0725   10.7486 H         1 GMW         0.0141
     78 H29        26.6673   12.9481   12.1334 H         1 GMW         0.0141
     79 H30        25.9090   14.5561   12.3898 H         1 GMW         0.0141
     80 H31        22.6880   13.7756   10.8076 H         1 GMW         0.0141
     81 H32        24.0525   14.7086   10.1045 H         1 GMW         0.0141
     82 H33        23.5997   14.9398   11.8274 H         1 GMW         0.0141
     83 H34        22.4131    8.5498    7.0368 H         1 GMW         0.2103
     84 H35        20.1919    5.8275    4.2021 H         1 GMW         0.0600
     85 H36        19.7921    4.6311    2.9233 H         1 GMW         0.0600
     86 H37        19.3775    6.3638    2.6936 H         1 GMW         0.0600
@<TRIPOS>BOND
     1    2    1 ar 
     2    1    5 ar 
     3    3    2 ar 
     4    3    4 ar 
     5   18    3 1  
     6    4   16 ar 
     7   16    5 ar 
     8    5   17 1  
     9   21    6 1  
    10    6   22 1  
    11   19    7 1  
    12    7   23 1  
    13    8    9 ar 
    14    8   26 ar 
    15   27    8 1  
    16    9   10 ar 
    17   10   24 ar 
    18   27   11 2  
    19   28   11 1  
    20   11   40 1  
    21   13   12 1  
    22   12   15 2  
    23   12   28 am 
    24   13   14 2  
    25   17   13 1  
    26   14   27 1  
    27   19   18 am 
    28   18   20 2  
    29   19   21 1  
    30   22   23 1  
    31   24   25 ar 
    32   25   26 ar 
    33   25   29 1  
    34   26   41 1  
    35   28   49 1  
    36   29   30 am 
    37   29   32 1  
    38   30   33 2  
    39   30   35 1  
    40   32   31 2  
    41   31   34 1  
    42   34   35 ar 
    43   34   39 ar 
    44   35   36 ar 
    45   36   37 ar 
    46   36   43 1  
    47   37   38 ar 
    48   38   39 ar 
    49   38   44 1  
    50   40   42 1  
    51   41   42 1  
    52   42   48 1  
    53   44   45 1  
    54   44   46 1  
    55   44   47 1  
    56    1   50 1  
    57    2   51 1  
    58    4   52 1  
    59    6   53 1  
    60    6   54 1  
    61    7   55 1  
    62    7   56 1  
    63    9   57 1  
    64   10   58 1  
    65   14   59 1  
    66   17   60 1  
    67   21   61 1  
    68   21   62 1  
    69   23   63 1  
    70   23   64 1  
    71   24   65 1  
    72   31   66 1  
    73   37   67 1  
    74   39   68 1  
    75   40   69 1  
    76   40   70 1  
    77   41   71 1  
    78   41   72 1  
    79   42   73 1  
    80   45   74 1  
    81   45   75 1  
    82   45   76 1  
    83   46   77 1  
    84   46   78 1  
    85   46   79 1  
    86   47   80 1  
    87   47   81 1  
    88   47   82 1  
    89   48   83 1  
    90   49   84 1  
    91   49   85 1  
    92   49   86 1  
@<TRIPOS>SUBSTRUCTURE
     1 GMW         1

