### 
### Created by X-TOOL on Mon Aug  2 16:13:58 2021
### 

@<TRIPOS>MOLECULE
6hrw_ligand
   37    39     1     0     0
SMALL
GAST_HUCK


@<TRIPOS>ATOM
      1 O2         19.2940   18.5450   14.4980 O.2       1 GNK        -0.3912
      2 C7         18.3350   15.7010   13.1740 C.3       1 GNK        -0.0022
      3 C8         21.9160   15.1570   12.3180 C.3       1 GNK        -0.0214
      4 C9         22.7780   14.1370   12.9610 C.3       1 GNK         0.0214
      5 CL1        28.5260   14.4950   11.1750 Cl        1 GNK        -0.0771
      6 C14        26.7900   14.4380   11.6030 C.ar      1 GNK         0.0330
      7 C13        26.4790   14.2900   12.9270 C.ar      1 GNK        -0.0546
      8 C12        25.1690   14.2070   13.3390 C.ar      1 GNK        -0.0595
      9 C15        25.7830   14.5150   10.6690 C.ar      1 GNK        -0.0546
     10 C16        24.4590   14.4430   11.0870 C.ar      1 GNK        -0.0595
     11 C10        24.1540   14.2880   12.4320 C.ar      1 GNK        -0.0377
     12 N1         20.5570   15.0030   12.8620 N.4       1 GNK         0.2443
     13 C5         20.3530   15.1980   14.3120 C.3       1 GNK        -0.0043
     14 C4         20.7260   16.6050   14.8130 C.3       1 GNK         0.0643
     15 C3         19.9970   17.6520   14.0000 C.2       1 GNK         0.1157
     16 C2         20.1150   17.4430   12.5220 C.3       1 GNK         0.0643
     17 C6         18.8460   15.0510   14.4490 C.3       1 GNK        -0.0022
     18 C1         19.6100   16.0050   12.3360 C.3       1 GNK        -0.0043
     19 H1         17.7935   16.6303   13.4043 H         1 GNK         0.0323
     20 H2         17.6699   15.0142   12.6300 H         1 GNK         0.0323
     21 H3         21.9029   15.0036   11.2288 H         1 GNK         0.0838
     22 H4         22.2970   16.1643   12.5419 H         1 GNK         0.0838
     23 H5         22.3991   13.1306   12.7293 H         1 GNK         0.0479
     24 H6         22.7804   14.2860   14.0509 H         1 GNK         0.0479
     25 H7         27.2750   14.2375   13.6609 H         1 GNK         0.0606
     26 H8         24.9423   14.0764   14.3910 H         1 GNK         0.0557
     27 H9         26.0195   14.6307    9.6174 H         1 GNK         0.0606
     28 H10        23.6597   14.5084   10.3576 H         1 GNK         0.0557
     29 H11        20.2530   14.0751   12.6117 H         1 GNK         0.2044
     30 H12        20.8997   14.4384   14.8900 H         1 GNK         0.0878
     31 H13        21.8110   16.7532   14.7093 H         1 GNK         0.0550
     32 H14        20.4421   16.7024   15.8713 H         1 GNK         0.0550
     33 H15        21.1593   17.5413   12.1908 H         1 GNK         0.0550
     34 H16        19.4864   18.1574   11.9701 H         1 GNK         0.0550
     35 H17        18.5530   13.9920   14.5004 H         1 GNK         0.0323
     36 H18        18.4746   15.5779   15.3403 H         1 GNK         0.0323
     37 H19        19.4200   15.8368   11.2657 H         1 GNK         0.0878
@<TRIPOS>BOND
     1   15    1 2  
     2   17    2 1  
     3    2   18 1  
     4    3    4 1  
     5   12    3 1  
     6    4   11 1  
     7    6    5 1  
     8    7    6 ar 
     9    9    6 ar 
    10    8    7 ar 
    11   11    8 ar 
    12   10    9 ar 
    13   11   10 ar 
    14   13   12 1  
    15   12   18 1  
    16   14   13 1  
    17   13   17 1  
    18   14   15 1  
    19   15   16 1  
    20   16   18 1  
    21    2   19 1  
    22    2   20 1  
    23    3   21 1  
    24    3   22 1  
    25    4   23 1  
    26    4   24 1  
    27    7   25 1  
    28    8   26 1  
    29    9   27 1  
    30   10   28 1  
    31   12   29 1  
    32   13   30 1  
    33   14   31 1  
    34   14   32 1  
    35   16   33 1  
    36   16   34 1  
    37   17   35 1  
    38   17   36 1  
    39   18   37 1  
@<TRIPOS>SUBSTRUCTURE
     1 GNK         1

