### 
### Created by X-TOOL on Mon Aug  2 16:13:58 2021
### 

@<TRIPOS>MOLECULE
6hrx_ligand
   25    26     1     0     0
SMALL
GAST_HUCK


@<TRIPOS>ATOM
      1 C4        -17.1370    5.5790    5.4800 C.3       1 GO8        -0.0505
      2 C5        -12.9630    3.5630    7.2500 C.ar      1 GO8         0.1489
      3 C6        -13.2430    2.2370    7.5450 C.ar      1 GO8         0.0902
      4 C7        -10.9210    1.8170    7.6160 C.ar      1 GO8         0.0475
      5 C8        -11.6350    4.0080    7.1480 C.ar      1 GO8         0.1482
      6 N1        -14.1590    4.1830    7.1110 N.pl3     1 GO8        -0.2279
      7 N2        -12.2130    1.3820    7.7170 N.ar      1 GO8        -0.2993
      8 C3        -16.5760    6.3940    7.6900 C.3       1 GO8        -0.0505
      9 N3        -10.6210    3.0990    7.3490 N.ar      1 GO8        -0.2723
     10 C1        -15.1360    3.2800    7.2860 C.2       1 GO8         0.1932
     11 S1        -16.8660    3.6080    7.2320 S.3       1 GO8        -0.0291
     12 C2        -17.3260    5.2900    6.9380 C.3       1 GO8         0.0231
     13 N4        -11.3870    5.3330    6.8630 N.pl3     1 GO8        -0.3164
     14 N5        -14.5710    2.1100    7.5660 N.2       1 GO8        -0.2868
     15 H1        -17.4178    6.6224    5.2736 H         1 GO8         0.0242
     16 H2        -17.7720    4.9043    4.8871 H         1 GO8         0.0242
     17 H3        -16.0825    5.4226    5.2089 H         1 GO8         0.0242
     18 H4        -10.1145    1.1063    7.7555 H         1 GO8         0.0965
     19 H5        -14.2961    5.1828    6.9049 H         1 GO8         0.2357
     20 H6        -16.6790    6.2347    8.7735 H         1 GO8         0.0242
     21 H7        -16.9992    7.3732    7.4216 H         1 GO8         0.0242
     22 H8        -15.5113    6.3669    7.4150 H         1 GO8         0.0242
     23 H9        -18.3915    5.3818    7.1955 H         1 GO8         0.0443
     24 H10       -10.4169    5.6704    6.7859 H         1 GO8         0.1798
     25 H11       -12.1717    5.9862    6.7271 H         1 GO8         0.1798
@<TRIPOS>BOND
     1   12    1 1  
     2    3    2 ar 
     3    2    5 ar 
     4    6    2 1  
     5    3    7 ar 
     6   14    3 1  
     7    7    4 ar 
     8    4    9 ar 
     9    5    9 ar 
    10    5   13 1  
    11   10    6 1  
    12   12    8 1  
    13   11   10 1  
    14   10   14 2  
    15   11   12 1  
    16    1   15 1  
    17    1   16 1  
    18    1   17 1  
    19    4   18 1  
    20    6   19 1  
    21    8   20 1  
    22    8   21 1  
    23    8   22 1  
    24   12   23 1  
    25   13   24 1  
    26   13   25 1  
@<TRIPOS>SUBSTRUCTURE
     1 GO8         1

