### 
### Created by X-TOOL on Mon Aug  2 16:13:59 2021
### 

@<TRIPOS>MOLECULE
6hry_ligand
   29    29     1     0     0
SMALL
GAST_HUCK


@<TRIPOS>ATOM
      1 C4        -22.4070   15.4340  -13.0790 C.ar      1 GOE        -0.0500
      2 C5        -21.4240   14.4760  -12.9070 C.ar      1 GOE         0.0066
      3 C6        -21.8130   13.0420  -12.6190 C.3       1 GOE        -0.0198
      4 C7        -17.3210   15.4660  -13.4440 C.2       1 GOE         0.2916
      5 C8        -16.3790   13.1900  -13.4830 C.3       1 GOE         0.0316
      6 C9        -16.7520   12.1940  -14.5880 C.3       1 GOE        -0.0358
      7 C10       -15.7360   11.0680  -14.6560 C.3       1 GOE        -0.0635
      8 N1        -18.3220   16.3630  -13.3060 N.am      1 GOE        -0.2051
      9 N2        -20.1020   14.8110  -12.9750 N.ar      1 GOE        -0.2869
     10 C3        -21.9980   16.7520  -13.3350 C.ar      1 GOE        -0.0638
     11 N3        -17.4830   14.1170  -13.3200 N.am      1 GOE        -0.2671
     12 C1        -19.6620   16.0640  -13.2470 C.ar      1 GOE         0.1300
     13 C2        -20.6220   17.0520  -13.4180 C.ar      1 GOE        -0.0214
     14 O1        -16.1910   15.8820  -13.7010 O.2       1 GOE        -0.3886
     15 H1        -23.4580   15.1754  -13.0181 H         1 GOE         0.0514
     16 H2        -20.9051   12.4299  -12.5137 H         1 GOE         0.0417
     17 H3        -22.4227   12.6538  -13.4482 H         1 GOE         0.0417
     18 H4        -22.3938   13.0000  -11.6858 H         1 GOE         0.0417
     19 H5        -15.4697   13.7396  -13.7679 H         1 GOE         0.0517
     20 H6        -16.2019   12.6518  -12.5402 H         1 GOE         0.0517
     21 H7        -16.7760   12.7184  -15.5547 H         1 GOE         0.0282
     22 H8        -17.7454   11.7724  -14.3748 H         1 GOE         0.0282
     23 H9        -16.0203   10.3652  -15.4530 H         1 GOE         0.0230
     24 H10       -15.7105   10.5384  -13.6922 H         1 GOE         0.0230
     25 H11       -14.7411   11.4844  -14.8721 H         1 GOE         0.0230
     26 H12       -18.0657   17.3274  -13.2412 H         1 GOE         0.2310
     27 H13       -22.7355   17.5352  -13.4682 H         1 GOE         0.0670
     28 H14       -18.3915   13.7558  -13.1101 H         1 GOE         0.1854
     29 H15       -20.3093   18.0704  -13.6185 H         1 GOE         0.0534
@<TRIPOS>BOND
     1    2    1 ar 
     2    1   10 ar 
     3    2    3 1  
     4    9    2 ar 
     5    8    4 am 
     6    4   11 am 
     7    4   14 2  
     8    5    6 1  
     9   11    5 1  
    10    6    7 1  
    11   12    8 1  
    12    9   12 ar 
    13   10   13 ar 
    14   12   13 ar 
    15    1   15 1  
    16    3   16 1  
    17    3   17 1  
    18    3   18 1  
    19    5   19 1  
    20    5   20 1  
    21    6   21 1  
    22    6   22 1  
    23    7   23 1  
    24    7   24 1  
    25    7   25 1  
    26    8   26 1  
    27   10   27 1  
    28   11   28 1  
    29   13   29 1  
@<TRIPOS>SUBSTRUCTURE
     1 GOE         1

