### 
### Created by X-TOOL on Mon Aug  2 16:17:11 2021
### 

@<TRIPOS>MOLECULE
6hrz_ligand
   22    23     1     0     0
SMALL
GAST_HUCK


@<TRIPOS>ATOM
      1 C4         10.7330  -22.6940  -17.5590 C.ar      1 GO2         0.1381
      2 C5          8.7180  -21.6090  -18.2750 C.ar      1 GO2         0.0042
      3 C6          7.9220  -22.5480  -17.6990 C.ar      1 GO2        -0.0197
      4 C7          8.5260  -23.6280  -17.0530 C.ar      1 GO2        -0.0187
      5 C8          9.9260  -23.6650  -17.0080 C.ar      1 GO2         0.0076
      6 N1         13.8580  -21.3150  -18.4810 N.pl3     1 GO2        -0.2094
      7 N2         16.0840  -21.8190  -18.6020 N.pl3     1 GO2        -0.3500
      8 C3         10.0730  -21.6710  -18.2780 C.ar      1 GO2         0.1262
      9 N3         14.6830  -22.9050  -17.1200 N.pl3     1 GO2        -0.3500
     10 C1         12.5670  -21.6360  -18.2840 C.2       1 GO2         0.3024
     11 C2         14.8810  -22.0110  -18.0910 C.cat     1 GO2         0.1649
     12 S1         11.2620  -20.6520  -18.8510 S.3       1 GO2         0.1068
     13 N4         12.0660  -22.6580  -17.5720 N.2       1 GO2        -0.1481
     14 H1          8.2434  -20.7631  -18.7591 H         1 GO2         0.0746
     15 H2          6.8423  -22.4602  -17.7403 H         1 GO2         0.1001
     16 H3          7.9309  -24.4130  -16.6006 H         1 GO2         0.0712
     17 H4         10.4003  -24.5042  -16.5121 H         1 GO2         0.0914
     18 H5         14.0518  -20.4387  -18.9864 H         1 GO2         0.2431
     19 H6         16.8792  -22.3857  -18.2742 H         1 GO2         0.1663
     20 H7         16.2267  -21.1026  -19.3282 H         1 GO2         0.1663
     21 H8         13.7390  -23.0432  -16.7319 H         1 GO2         0.1663
     22 H9         15.4742  -23.4568  -16.7588 H         1 GO2         0.1663
@<TRIPOS>BOND
     1    1    5 ar 
     2    8    1 ar 
     3    1   13 1  
     4    2    3 ar 
     5    8    2 ar 
     6    3    4 ar 
     7    5    4 ar 
     8   10    6 1  
     9    6   11 ar 
    10   11    7 ar 
    11   12    8 1  
    12   11    9 ar 
    13   10   12 1  
    14   10   13 2  
    15    2   14 1  
    16    3   15 1  
    17    4   16 1  
    18    5   17 1  
    19    6   18 1  
    20    7   19 1  
    21    7   20 1  
    22    9   21 1  
    23    9   22 1  
@<TRIPOS>SUBSTRUCTURE
     1 GO2         1

