### 
### Created by X-TOOL on Mon Aug  2 16:13:59 2021
### 

@<TRIPOS>MOLECULE
6hs0_ligand
   31    32     1     0     0
SMALL
GAST_HUCK


@<TRIPOS>ATOM
      1 C4         11.7650  -20.6440  -16.4570 C.3       1 GNW         0.0077
      2 C5          8.8570  -23.0230  -16.1740 C.3       1 GNW         0.0024
      3 C6          7.8580  -23.6020  -17.1460 C.ar      1 GNW         0.0019
      4 C11         7.6970  -24.9660  -17.3260 C.ar      1 GNW        -0.0414
      5 C7          6.9690  -22.7600  -17.7930 C.ar      1 GNW        -0.0552
      6 C8          6.0250  -23.2430  -18.6580 C.ar      1 GNW        -0.0679
      7 C9          5.8730  -24.5800  -18.8400 C.ar      1 GNW        -0.0548
      8 C10         6.7120  -25.4310  -18.1740 C.ar      1 GNW         0.0339
      9 N1         10.1200  -22.4600  -16.6780 N.4       1 GNW         0.2546
     10 N2         12.3330  -20.9350  -17.7700 N.4       1 GNW         0.2345
     11 C3         10.3140  -21.0580  -16.3150 C.3       1 GNW         0.0108
     12 C1         10.5070  -22.7100  -18.0520 C.3       1 GNW         0.0108
     13 C2         11.9450  -22.2550  -18.3250 C.3       1 GNW         0.0077
     14 CL1         6.5120  -27.1310  -18.4760 Cl        1 GNW        -0.0725
     15 H1         11.8357  -19.5606  -16.2805 H         1 GNW         0.0867
     16 H2         12.3544  -21.1785  -15.6975 H         1 GNW         0.0867
     17 H3          9.1234  -23.8274  -15.4726 H         1 GNW         0.0980
     18 H4          8.3429  -22.2172  -15.6297 H         1 GNW         0.0980
     19 H5          8.3409  -25.6644  -16.8038 H         1 GNW         0.0564
     20 H6          7.0222  -21.6929  -17.6099 H         1 GNW         0.0560
     21 H7          5.3925  -22.5517  -19.2031 H         1 GNW         0.0599
     22 H8          5.1032  -24.9649  -19.4990 H         1 GNW         0.0565
     23 H9         10.8174  -22.9569  -16.1462 H         1 GNW         0.2052
     24 H10        13.3376  -20.9084  -17.6921 H         1 GNW         0.2018
     25 H11        12.0267  -20.2206  -18.4117 H         1 GNW         0.2018
     26 H12         9.6967  -20.4294  -16.9736 H         1 GNW         0.0868
     27 H13        10.0012  -20.9125  -15.2705 H         1 GNW         0.0868
     28 H14         9.8263  -22.1618  -18.7200 H         1 GNW         0.0868
     29 H15        10.4294  -23.7885  -18.2541 H         1 GNW         0.0868
     30 H16        12.6220  -23.0100  -17.8988 H         1 GNW         0.0867
     31 H17        12.0820  -22.2135  -19.4156 H         1 GNW         0.0867
@<TRIPOS>BOND
     1    1   10 1  
     2   11    1 1  
     3    2    3 1  
     4    9    2 1  
     5    3    4 ar 
     6    3    5 ar 
     7    4    8 ar 
     8    5    6 ar 
     9    6    7 ar 
    10    8    7 ar 
    11    8   14 1  
    12    9   11 1  
    13    9   12 1  
    14   10   13 1  
    15   12   13 1  
    16    1   15 1  
    17    1   16 1  
    18    2   17 1  
    19    2   18 1  
    20    4   19 1  
    21    5   20 1  
    22    6   21 1  
    23    7   22 1  
    24    9   23 1  
    25   10   24 1  
    26   10   25 1  
    27   11   26 1  
    28   11   27 1  
    29   12   28 1  
    30   12   29 1  
    31   13   30 1  
    32   13   31 1  
@<TRIPOS>SUBSTRUCTURE
     1 GNW         1

