### 
### Created by X-TOOL on Mon Aug  2 16:17:11 2021
### 

@<TRIPOS>MOLECULE
6hs4_ligand
   57    60     1     0     0
SMALL
GAST_HUCK


@<TRIPOS>ATOM
      1 C13       -45.9020   10.6660   -1.2780 C.ar      1 GON        -0.0693
      2 C15       -45.8570   12.6110   -2.6940 C.2       1 GON         0.0374
      3 C20       -47.8530   11.4310   -3.6900 C.ar      1 GON        -0.0355
      4 C21       -47.8880   10.4100   -4.6300 C.ar      1 GON        -0.0626
      5 C22       -48.9330    9.4990   -4.6430 C.ar      1 GON        -0.0672
      6 C24       -49.9230   10.6250   -2.7740 C.ar      1 GON        -0.0672
      7 C26       -45.4690   12.8150   -0.3100 C.ar      1 GON         0.0904
      8 C28       -45.3550   12.2280    0.9460 C.ar      1 GON        -0.0032
      9 C02       -46.0090   13.0760    8.3830 C.2       1 GON         0.1770
     10 C04       -46.4710   11.6210    8.2380 C.3       1 GON         0.0580
     11 C05       -45.3260   10.7650    7.9940 C.3       1 GON         0.0074
     12 C06       -44.9300   10.6220    6.5240 C.3       1 GON        -0.0294
     13 C08       -45.8190    9.8970    4.6230 C.3       1 GON        -0.0033
     14 C09       -45.9470   10.8760    3.4510 C.3       1 GON         0.1103
     15 C11       -45.5200   10.8590    1.0890 C.ar      1 GON         0.0843
     16 C12       -45.7920   10.0850   -0.0280 C.ar      1 GON        -0.0423
     17 C14       -45.7510   12.0350   -1.4310 C.ar      1 GON         0.0080
     18 C18       -46.4740   13.1680   -4.7650 C.2       1 GON         0.0607
     19 C19       -46.7930   12.3400   -3.6970 C.2       1 GON         0.0054
     20 C23       -49.9540    9.6050   -3.7140 C.ar      1 GON        -0.0671
     21 C25       -48.8750   11.5370   -2.7620 C.ar      1 GON        -0.0626
     22 C29       -47.0670   11.3740    5.8070 C.3       1 GON        -0.0294
     23 C30       -47.5340   11.5420    7.2550 C.3       1 GON         0.0074
     24 N01       -44.6890   13.3610    8.9190 N.am      1 GON        -0.3006
     25 N07       -46.0840   10.3340    5.7280 N.4       1 GON         0.2374
     26 N16       -45.0410   13.5430   -3.1670 N.2       1 GON        -0.2190
     27 N17       -45.4200   13.8870   -4.4290 N.pl3     1 GON        -0.2202
     28 O03       -46.7300   13.9660    8.0750 O.2       1 GON        -0.3970
     29 O10       -45.4050   10.2270    2.3370 O.3       1 GON        -0.3145
     30 O27       -45.3010   14.2030   -0.4290 O.3       1 GON        -0.3331
     31 H1        -46.1076   10.0467   -2.1436 H         1 GON         0.0567
     32 H2        -47.0914   10.3243   -5.3601 H         1 GON         0.0572
     33 H3        -48.9506    8.7043   -5.3800 H         1 GON         0.0603
     34 H4        -50.7207   10.7108   -2.0451 H         1 GON         0.0603
     35 H5        -45.1371   12.8411    1.8130 H         1 GON         0.0465
     36 H6        -46.9035   11.3056    9.1989 H         1 GON         0.0542
     37 H7        -45.5591    9.7632    8.3839 H         1 GON         0.0344
     38 H8        -44.4664   11.1803    8.5404 H         1 GON         0.0344
     39 H9        -44.2037    9.8023    6.4212 H         1 GON         0.0816
     40 H10       -44.4744   11.5612    6.1772 H         1 GON         0.0816
     41 H11       -44.7796    9.5379    4.6463 H         1 GON         0.0841
     42 H12       -46.4948    9.0514    4.4273 H         1 GON         0.0841
     43 H13       -45.3882   11.7994    3.6631 H         1 GON         0.0669
     44 H14       -47.0046   11.1202    3.2724 H         1 GON         0.0669
     45 H15       -45.9197    9.0139    0.0792 H         1 GON         0.0460
     46 H16       -47.0026   13.2157   -5.7159 H         1 GON         0.1040
     47 H17       -50.7731    8.8950   -3.7210 H         1 GON         0.0573
     48 H18       -48.8575   12.3322   -2.0255 H         1 GON         0.0572
     49 H19       -46.6276   12.3185    5.4538 H         1 GON         0.0816
     50 H20       -47.9277   11.1108    5.1746 H         1 GON         0.0816
     51 H21       -48.1254   12.4674    7.3172 H         1 GON         0.0344
     52 H22       -48.1708   10.6820    7.5098 H         1 GON         0.0344
     53 H23       -44.3824   14.3079    9.0158 H         1 GON         0.1814
     54 H24       -44.0871   12.6102    9.1911 H         1 GON         0.1814
     55 H25       -46.5222    9.5532    6.1911 H         1 GON         0.2034
     56 H26       -44.9600   14.5918   -5.0228 H         1 GON         0.2588
     57 H27       -45.1161   14.5730    0.4263 H         1 GON         0.2495
@<TRIPOS>BOND
     1   16    1 ar 
     2    1   17 ar 
     3   17    2 1  
     4    2   19 1  
     5    2   26 2  
     6    3    4 ar 
     7   19    3 1  
     8    3   21 ar 
     9    4    5 ar 
    10    5   20 ar 
    11    6   20 ar 
    12   21    6 ar 
    13    8    7 ar 
    14    7   17 ar 
    15    7   30 1  
    16   15    8 ar 
    17   10    9 1  
    18    9   24 am 
    19    9   28 2  
    20   11   10 1  
    21   10   23 1  
    22   12   11 1  
    23   25   12 1  
    24   14   13 1  
    25   13   25 1  
    26   29   14 1  
    27   15   16 ar 
    28   15   29 1  
    29   19   18 2  
    30   18   27 1  
    31   23   22 1  
    32   22   25 1  
    33   26   27 1  
    34    1   31 1  
    35    4   32 1  
    36    5   33 1  
    37    6   34 1  
    38    8   35 1  
    39   10   36 1  
    40   11   37 1  
    41   11   38 1  
    42   12   39 1  
    43   12   40 1  
    44   13   41 1  
    45   13   42 1  
    46   14   43 1  
    47   14   44 1  
    48   16   45 1  
    49   18   46 1  
    50   20   47 1  
    51   21   48 1  
    52   22   49 1  
    53   22   50 1  
    54   23   51 1  
    55   23   52 1  
    56   24   53 1  
    57   24   54 1  
    58   25   55 1  
    59   27   56 1  
    60   30   57 1  
@<TRIPOS>SUBSTRUCTURE
     1 GON         1

