### 
### Created by X-TOOL on Wed Jan  1 15:39:35 2020
### 

@<TRIPOS>MOLECULE
6hsh_ligand
   56    59     1     0     0
SMALL
GAST_HUCK


@<TRIPOS>ATOM
      1 N1         46.5350   30.8240   85.0260 N.am      1 GOK        -0.1635
      2 O3         46.7280   31.9360   86.9740 O.2       1 GOK        -0.3863
      3 C5         43.2900   34.3860   84.3150 C.ar      1 GOK         0.2005
      4 C8         45.2900   32.8550   85.3080 C.ar      1 GOK         0.0897
      5 C9         44.2690   33.3720   86.0940 C.ar      1 GOK         0.0345
      6 C14        40.9530   35.1810   84.5570 C.3       1 GOK         0.0352
      7 N15        42.1720   34.9450   83.7790 N.pl3     1 GOK        -0.2724
      8 C16        42.0470   35.3430   82.3740 C.3       1 GOK         0.0352
      9 C34        40.4440   43.1660   83.4450 C.ar      1 GOK         0.0626
     10 C2         46.2680   31.8480   85.8360 C.2       1 GOK         0.2316
     11 O4         47.2620   29.7120   85.4590 O.3       1 GOK        -0.2720
     12 N6         44.2470   34.0050   83.4580 N.ar      1 GOK        -0.2462
     13 C7         45.2250   33.2470   83.9750 C.ar      1 GOK         0.0345
     14 N10        43.2640   34.1260   85.6280 N.ar      1 GOK        -0.2462
     15 C13        40.5160   36.6360   84.4740 C.3       1 GOK        -0.0243
     16 C17        41.6080   36.7970   82.2520 C.3       1 GOK        -0.0243
     17 C18        40.3300   37.0870   83.0340 C.3       1 GOK         0.0029
     18 C27        39.9980   38.5670   82.9910 C.3       1 GOK        -0.0299
     19 N29        39.8840   39.0980   81.6300 N.4       1 GOK         0.2340
     20 C30        39.0460   40.2880   81.5070 C.3       1 GOK        -0.0163
     21 C31        39.4130   41.3780   82.4760 C.2       1 GOK        -0.0020
     22 N32        39.4740   42.6860   84.2970 N.pl3     1 GOK        -0.2776
     23 C33        38.8610   41.6160   83.6960 C.2       1 GOK         0.0239
     24 C35        40.4300   42.3740   82.2910 C.ar      1 GOK        -0.0165
     25 C36        41.3190   42.6770   81.2620 C.ar      1 GOK        -0.0745
     26 C37        42.1960   43.7420   81.3990 C.ar      1 GOK        -0.0792
     27 C38        42.1970   44.5120   82.5530 C.ar      1 GOK        -0.0768
     28 C39        41.3200   44.2330   83.5900 C.ar      1 GOK        -0.0442
     29 C44        39.1600   43.2160   85.6180 C.3       1 GOK         0.0373
     30 H1         46.2059   30.8522   84.0821 H         1 GOK         0.2211
     31 H2         44.2859   33.1511   87.1551 H         1 GOK         0.0952
     32 H3         41.1444   34.9241   85.6093 H         1 GOK         0.0529
     33 H4         40.1481   34.5424   84.1641 H         1 GOK         0.0529
     34 H5         41.3010   34.7003   81.8837 H         1 GOK         0.0529
     35 H6         43.0208   35.2191   81.8776 H         1 GOK         0.0529
     36 H7         47.3481   29.0931   84.7434 H         1 GOK         0.2491
     37 H8         46.0163   32.9184   83.3110 H         1 GOK         0.0952
     38 H9         41.2828   37.2660   84.9484 H         1 GOK         0.0290
     39 H10        39.5625   36.7528   85.0099 H         1 GOK         0.0290
     40 H11        41.4317   37.0248   81.1904 H         1 GOK         0.0290
     41 H12        42.4116   37.4420   82.6370 H         1 GOK         0.0290
     42 H13        39.4991   36.5239   82.5840 H         1 GOK         0.0354
     43 H14        40.7928   39.1181   83.5149 H         1 GOK         0.0816
     44 H15        39.0401   38.7248   83.5083 H         1 GOK         0.0816
     45 H16        39.4936   38.3772   81.0435 H         1 GOK         0.2021
     46 H17        40.8094   39.3309   81.3053 H         1 GOK         0.2021
     47 H18        38.0002   39.9985   81.6872 H         1 GOK         0.0898
     48 H19        39.1466   40.6815   80.4847 H         1 GOK         0.0898
     49 H20        38.0477   41.0390   84.1337 H         1 GOK         0.0799
     50 H21        41.3250   42.0814   80.3563 H         1 GOK         0.0540
     51 H22        42.8872   43.9752   80.5972 H         1 GOK         0.0510
     52 H23        42.8904   45.3401   82.6449 H         1 GOK         0.0530
     53 H24        41.3184   44.8337   84.4923 H         1 GOK         0.0541
     54 H25        39.8130   44.0746   85.8333 H         1 GOK         0.0559
     55 H26        39.3211   42.4340   86.3747 H         1 GOK         0.0559
     56 H27        38.1089   43.5394   85.6430 H         1 GOK         0.0559
@<TRIPOS>BOND
     1   10    1 am 
     2    1   11 1  
     3   10    2 2  
     4    7    3 1  
     5    3   12 ar 
     6    3   14 ar 
     7    5    4 ar 
     8    4   10 1  
     9   13    4 ar 
    10   14    5 ar 
    11    6    7 1  
    12   15    6 1  
    13    8    7 1  
    14   16    8 1  
    15    9   22 1  
    16   24    9 ar 
    17    9   28 ar 
    18   12   13 ar 
    19   17   15 1  
    20   17   16 1  
    21   18   17 1  
    22   19   18 1  
    23   20   19 1  
    24   21   20 1  
    25   21   23 2  
    26   21   24 1  
    27   22   23 1  
    28   22   29 1  
    29   24   25 ar 
    30   25   26 ar 
    31   26   27 ar 
    32   27   28 ar 
    33    1   30 1  
    34    5   31 1  
    35    6   32 1  
    36    6   33 1  
    37    8   34 1  
    38    8   35 1  
    39   11   36 1  
    40   13   37 1  
    41   15   38 1  
    42   15   39 1  
    43   16   40 1  
    44   16   41 1  
    45   17   42 1  
    46   18   43 1  
    47   18   44 1  
    48   19   45 1  
    49   19   46 1  
    50   20   47 1  
    51   20   48 1  
    52   23   49 1  
    53   25   50 1  
    54   26   51 1  
    55   27   52 1  
    56   28   53 1  
    57   29   54 1  
    58   29   55 1  
    59   29   56 1  
@<TRIPOS>SUBSTRUCTURE
     1 GOK         1

