### 
### Created by X-TOOL on Wed Jan  1 15:39:35 2020
### 

@<TRIPOS>MOLECULE
6hsk_ligand
   56    59     1     0     0
SMALL
GAST_HUCK


@<TRIPOS>ATOM
      1 N1        -16.1830    6.7880   -9.4170 N.am      1 GOK        -0.1635
      2 O3        -17.8790    7.9760  -10.2800 O.2       1 GOK        -0.3863
      3 C5        -15.7350    5.7530  -14.1600 C.ar      1 GOK         0.2005
      4 C8        -16.4660    6.8050  -11.7910 C.ar      1 GOK         0.0897
      5 C9        -17.3820    6.5260  -12.7980 C.ar      1 GOK         0.0345
      6 C14       -13.9630    4.9910  -15.7110 C.3       1 GOK         0.0352
      7 N15       -15.3620    5.2630  -15.3720 N.pl3     1 GOK        -0.2724
      8 C16       -16.2960    4.6010  -16.2890 C.3       1 GOK         0.0352
      9 C34       -13.7980   -2.7080  -14.6000 C.ar      1 GOK         0.0626
     10 C2        -16.8930    7.2630  -10.4330 C.2       1 GOK         0.2316
     11 O4        -16.5680    7.0580   -8.1080 O.3       1 GOK        -0.2720
     12 N6        -14.7540    5.9930  -13.2740 N.ar      1 GOK        -0.2462
     13 C7        -15.1430    6.5190  -12.1050 C.ar      1 GOK         0.0345
     14 N10       -17.0460    5.9870  -13.9770 N.ar      1 GOK        -0.2462
     15 C13       -13.6790    3.4960  -15.7480 C.3       1 GOK        -0.0243
     16 C17       -16.0530    3.0900  -16.3540 C.3       1 GOK        -0.0243
     17 C18       -14.6050    2.7510  -16.7020 C.3       1 GOK         0.0029
     18 C27       -14.3720    1.2660  -16.4860 C.3       1 GOK        -0.0299
     19 N29       -14.1390    0.4290  -17.6680 N.4       1 GOK         0.2340
     20 C30       -13.0530   -0.5460  -17.5650 C.3       1 GOK        -0.0163
     21 C31       -13.0790   -1.3830  -16.3130 C.2       1 GOK        -0.0020
     22 N32       -12.4520   -2.4530  -14.4420 N.pl3     1 GOK        -0.2776
     23 C33       -12.0350   -1.6660  -15.4880 C.2       1 GOK         0.0239
     24 C35       -14.2270   -2.0480  -15.7560 C.ar      1 GOK        -0.0165
     25 C36       -15.5650   -2.1540  -16.1340 C.ar      1 GOK        -0.0745
     26 C37       -16.4370   -2.9080  -15.3610 C.ar      1 GOK        -0.0792
     27 C38       -15.9860   -3.5590  -14.2170 C.ar      1 GOK        -0.0768
     28 C39       -14.6620   -3.4660  -13.8240 C.ar      1 GOK        -0.0442
     29 C44       -11.6290   -2.8840  -13.3200 C.3       1 GOK         0.0373
     30 H1        -15.3690    6.2345   -9.5932 H         1 GOK         0.2211
     31 H2        -18.4259    6.7573  -12.6194 H         1 GOK         0.0952
     32 H3        -13.3146    5.4595  -14.9560 H         1 GOK         0.0529
     33 H4        -13.7446    5.4209  -16.6996 H         1 GOK         0.0529
     34 H5        -16.1684    5.0259  -17.2956 H         1 GOK         0.0529
     35 H6        -17.3241    4.7818  -15.9422 H         1 GOK         0.0529
     36 H7        -15.9566    6.6471   -7.5081 H         1 GOK         0.2491
     37 H8        -14.3830    6.7335  -11.3624 H         1 GOK         0.0952
     38 H9        -13.8113    3.0863  -14.7358 H         1 GOK         0.0290
     39 H10       -12.6394    3.3420  -16.0729 H         1 GOK         0.0290
     40 H11       -16.7118    2.6583  -17.1218 H         1 GOK         0.0290
     41 H12       -16.2938    2.6504  -15.3749 H         1 GOK         0.0290
     42 H13       -14.3904    3.0276  -17.7448 H         1 GOK         0.0354
     43 H14       -15.2584    0.8667  -15.9714 H         1 GOK         0.0816
     44 H15       -13.4922    1.1638  -15.8337 H         1 GOK         0.0816
     45 H16       -13.9309    1.0406  -18.4418 H         1 GOK         0.2021
     46 H17       -14.9895   -0.0771  -17.8590 H         1 GOK         0.2021
     47 H18       -12.0982   -0.0005  -17.5933 H         1 GOK         0.0898
     48 H19       -13.1151   -1.2217  -18.4308 H         1 GOK         0.0898
     49 H20       -11.0137   -1.3181  -15.6358 H         1 GOK         0.0799
     50 H21       -15.9217   -1.6510  -17.0255 H         1 GOK         0.0540
     51 H22       -17.4782   -2.9904  -15.6510 H         1 GOK         0.0510
     52 H23       -16.6799   -4.1461  -13.6263 H         1 GOK         0.0530
     53 H24       -14.3096   -3.9725  -12.9328 H         1 GOK         0.0541
     54 H25       -12.2318   -3.5036  -12.6398 H         1 GOK         0.0559
     55 H26       -11.2559   -2.0020  -12.7788 H         1 GOK         0.0559
     56 H27       -10.7778   -3.4719  -13.6941 H         1 GOK         0.0559
@<TRIPOS>BOND
     1   10    1 am 
     2    1   11 1  
     3   10    2 2  
     4    7    3 1  
     5    3   12 ar 
     6    3   14 ar 
     7    5    4 ar 
     8    4   10 1  
     9   13    4 ar 
    10   14    5 ar 
    11    6    7 1  
    12   15    6 1  
    13    8    7 1  
    14   16    8 1  
    15    9   22 1  
    16   24    9 ar 
    17    9   28 ar 
    18   12   13 ar 
    19   17   15 1  
    20   17   16 1  
    21   18   17 1  
    22   19   18 1  
    23   20   19 1  
    24   21   20 1  
    25   21   23 2  
    26   21   24 1  
    27   22   23 1  
    28   22   29 1  
    29   24   25 ar 
    30   25   26 ar 
    31   26   27 ar 
    32   27   28 ar 
    33    1   30 1  
    34    5   31 1  
    35    6   32 1  
    36    6   33 1  
    37    8   34 1  
    38    8   35 1  
    39   11   36 1  
    40   13   37 1  
    41   15   38 1  
    42   15   39 1  
    43   16   40 1  
    44   16   41 1  
    45   17   42 1  
    46   18   43 1  
    47   18   44 1  
    48   19   45 1  
    49   19   46 1  
    50   20   47 1  
    51   20   48 1  
    52   23   49 1  
    53   25   50 1  
    54   26   51 1  
    55   27   52 1  
    56   28   53 1  
    57   29   54 1  
    58   29   55 1  
    59   29   56 1  
@<TRIPOS>SUBSTRUCTURE
     1 GOK         1

