### 
### Created by X-TOOL on Wed Jan  1 15:39:35 2020
### 

@<TRIPOS>MOLECULE
6hsz_ligand
   34    35     1     0     0
SMALL
GAST_HUCK


@<TRIPOS>ATOM
      1 O14        44.9510   37.7010   86.8230 O.2       1 GOW        -0.3740
      2 C13        44.3790   37.0690   87.6780 C.2       1 GOW         0.2306
      3 C15        44.0750   37.6820   89.0080 C.ar      1 GOW         0.0556
      4 C20        45.0220   38.5200   89.5850 C.ar      1 GOW        -0.0415
      5 C19        44.7770   39.0760   90.8250 C.ar      1 GOW        -0.0562
      6 C18        43.5950   38.7870   91.5030 C.ar      1 GOW        -0.0576
      7 C17        42.6560   37.9340   90.9400 C.ar      1 GOW        -0.0562
      8 C16        42.9070   37.3780   89.6980 C.ar      1 GOW        -0.0415
      9 N12        44.0180   35.7100   87.4260 N.am      1 GOW        -0.2352
     10 C11        44.3270   34.9850   86.2300 C.ar      1 GOW         0.0740
     11 C02        43.7840   35.2040   84.9650 C.ar      1 GOW        -0.0192
     12 C01        42.7880   36.2890   84.7620 C.3       1 GOW        -0.0328
     13 C10        45.2630   33.9740   86.4100 C.ar      1 GOW        -0.0278
     14 C05        45.6850   33.1560   85.3690 C.ar      1 GOW         0.0309
     15 C04        45.1310   33.3660   84.0950 C.ar      1 GOW        -0.0638
     16 C03        44.1880   34.3880   83.9020 C.ar      1 GOW        -0.0675
     17 C06        46.6980   32.0850   85.7220 C.2       1 GOW         0.2192
     18 O07        47.4030   32.2160   86.7240 O.2       1 GOW        -0.3881
     19 N08        46.8640   30.8730   84.9670 N.am      1 GOW        -0.1645
     20 O09        47.7350   29.9450   85.3200 O.3       1 GOW        -0.2721
     21 H1         45.9479   38.7359   89.0643 H         1 GOW         0.0669
     22 H2         45.5075   39.7401   91.2726 H         1 GOW         0.0629
     23 H3         43.4078   39.2302   92.4744 H         1 GOW         0.0652
     24 H4         41.7366   37.7060   91.4671 H         1 GOW         0.0629
     25 H5         42.1856   36.6986   89.2586 H         1 GOW         0.0669
     26 H6         43.5103   35.2275   88.1398 H         1 GOW         0.2231
     27 H7         42.4767   36.3082   83.7072 H         1 GOW         0.0372
     28 H8         43.2396   37.2559   85.0287 H         1 GOW         0.0372
     29 H9         41.9108   36.1056   85.3999 H         1 GOW         0.0372
     30 H10        45.6792   33.8177   87.3986 H         1 GOW         0.0529
     31 H11        45.4312   32.7400   83.2625 H         1 GOW         0.0524
     32 H12        43.7669   34.5474   82.9159 H         1 GOW         0.0527
     33 H13        46.3040   30.7284   84.1512 H         1 GOW         0.2211
     34 H14        47.6974   29.2251   84.7011 H         1 GOW         0.2491
@<TRIPOS>BOND
     1    1    2 2  
     2    2    3 1  
     3    2    9 am 
     4    3    4 ar 
     5    3    8 ar 
     6    4    5 ar 
     7    5    6 ar 
     8    6    7 ar 
     9    7    8 ar 
    10    9   10 1  
    11   10   11 ar 
    12   10   13 ar 
    13   11   12 1  
    14   11   16 ar 
    15   13   14 ar 
    16   14   15 ar 
    17   14   17 1  
    18   15   16 ar 
    19   17   18 2  
    20   17   19 am 
    21   19   20 1  
    22    4   21 1  
    23    5   22 1  
    24    6   23 1  
    25    7   24 1  
    26    8   25 1  
    27    9   26 1  
    28   12   27 1  
    29   12   28 1  
    30   12   29 1  
    31   13   30 1  
    32   15   31 1  
    33   16   32 1  
    34   19   33 1  
    35   20   34 1  
@<TRIPOS>SUBSTRUCTURE
     1 GOW         1

