### 
### Created by X-TOOL on Wed Jan  1 15:39:37 2020
### 

@<TRIPOS>MOLECULE
6ht1_ligand
   54    58     1     0     0
SMALL
GAST_HUCK


@<TRIPOS>ATOM
      1 C7        -14.7090    3.7530   49.6890 C.ar      1 GQ5         0.0647
      2 C9        -15.1850    1.4410   50.1650 C.ar      1 GQ5         0.0518
      3 N1        -14.3490    5.0890   49.8600 N.pl3     1 GQ5        -0.2478
      4 C2        -11.1860    8.3860   46.5750 C.3       1 GQ5        -0.0051
      5 N2        -15.2860    0.3550   51.0660 N.am      1 GQ5        -0.2404
      6 C10       -15.1240    0.3720   52.4140 C.2       1 GQ5         0.2235
      7 C4        -12.5600    6.4070   46.5590 C.3       1 GQ5        -0.0293
      8 N3        -16.3510   -5.2730   54.1540 N.2       1 GQ5        -0.2020
      9 N5        -14.9250    4.7590   47.7340 N.2       1 GQ5        -0.3231
     10 C6        -14.4870    5.6350   48.6660 C.2       1 GQ5         0.1617
     11 O         -15.0560    1.4050   53.0770 O.2       1 GQ5        -0.3782
     12 C11       -15.1430   -0.9610   53.0850 C.ar      1 GQ5         0.0452
     13 C18       -14.2890   -1.1830   54.1700 C.ar      1 GQ5        -0.0507
     14 C17       -14.2760   -2.4010   54.8360 C.ar      1 GQ5        -0.0303
     15 C16       -15.1490   -3.3880   54.4150 C.ar      1 GQ5         0.0944
     16 N4        -15.3390   -4.6620   54.8370 N.pl3     1 GQ5        -0.2002
     17 C15       -14.5570   -5.4110   55.8040 C.3       1 GQ5         0.0563
     18 C14       -16.7790   -4.3940   53.2730 C.2       1 GQ5         0.0237
     19 C13       -16.0510   -3.1750   53.3630 C.ar      1 GQ5         0.0159
     20 C12       -16.0250   -1.9650   52.6740 C.ar      1 GQ5        -0.0426
     21 C8        -14.7510    2.6980   50.5970 C.ar      1 GQ5        -0.0235
     22 C19       -15.5830    1.2480   48.8340 C.ar      1 GQ5        -0.0544
     23 C20       -15.5390    2.2970   47.9230 C.ar      1 GQ5        -0.0744
     24 C21       -15.0880    3.5390   48.3670 C.ar      1 GQ5         0.0082
     25 C5        -14.1440    7.0510   48.3310 C.3       1 GQ5         0.0485
     26 N         -12.7800    7.1850   47.7970 N.4       1 GQ5         0.2558
     27 C1        -12.4260    8.5850   47.4360 C.3       1 GQ5        -0.0215
     28 C         -12.1900    9.4700   48.6410 C.3       1 GQ5        -0.0215
     29 C3        -11.6230    7.2690   45.6900 C.3       1 GQ5        -0.0074
     30 H1        -14.0422    5.5497   50.7287 H         1 GQ5         0.2305
     31 H2        -10.3147    8.1010   47.1830 H         1 GQ5         0.0321
     32 H3        -10.9487    9.2902   45.9952 H         1 GQ5         0.0321
     33 H4        -15.5031   -0.5331   50.6609 H         1 GQ5         0.2227
     34 H5        -13.5140    6.2335   46.0396 H         1 GQ5         0.0815
     35 H6        -12.0879    5.4410   46.7911 H         1 GQ5         0.0815
     36 H7        -13.6257   -0.3903   54.4966 H         1 GQ5         0.0621
     37 H8        -13.5991   -2.5742   55.6647 H         1 GQ5         0.0569
     38 H9        -13.7948   -4.7534   56.2474 H         1 GQ5         0.0580
     39 H10       -14.0644   -6.2564   55.3014 H         1 GQ5         0.0580
     40 H11       -15.2192   -5.7907   56.5960 H         1 GQ5         0.0580
     41 H12       -17.5868   -4.5763   52.5658 H         1 GQ5         0.0723
     42 H13       -16.6822   -1.8031   51.8273 H         1 GQ5         0.0657
     43 H14       -14.4505    2.8496   51.6274 H         1 GQ5         0.0402
     44 H15       -15.9281    0.2719   48.5128 H         1 GQ5         0.0433
     45 H16       -15.8475    2.1529   46.8938 H         1 GQ5         0.0513
     46 H17       -14.2280    7.6603   49.2430 H         1 GQ5         0.1083
     47 H18       -14.8562    7.4185   47.5776 H         1 GQ5         0.1083
     48 H19       -12.1445    6.8582   48.5079 H         1 GQ5         0.2058
     49 H20       -13.2314    9.0367   46.8383 H         1 GQ5         0.0849
     50 H21       -11.9338   10.4857   48.3054 H         1 GQ5         0.0284
     51 H22       -11.3621    9.0618   49.2392 H         1 GQ5         0.0284
     52 H23       -13.1026    9.5057   49.2541 H         1 GQ5         0.0284
     53 H24       -10.7562    6.6798   45.3561 H         1 GQ5         0.0319
     54 H25       -12.1607    7.6593   44.8134 H         1 GQ5         0.0319
@<TRIPOS>BOND
     1    3    1 1  
     2    1   21 ar 
     3   24    1 ar 
     4    2    5 1  
     5   21    2 ar 
     6   22    2 ar 
     7   10    3 1  
     8    4   27 1  
     9   29    4 1  
    10    5    6 am 
    11    6   11 2  
    12    6   12 1  
    13   26    7 1  
    14    7   29 1  
    15    8   16 1  
    16   18    8 2  
    17   10    9 2  
    18    9   24 1  
    19   25   10 1  
    20   12   13 ar 
    21   12   20 ar 
    22   13   14 ar 
    23   14   15 ar 
    24   15   16 1  
    25   19   15 ar 
    26   16   17 1  
    27   19   18 1  
    28   20   19 ar 
    29   23   22 ar 
    30   24   23 ar 
    31   25   26 1  
    32   26   27 1  
    33   27   28 1  
    34    3   30 1  
    35    4   31 1  
    36    4   32 1  
    37    5   33 1  
    38    7   34 1  
    39    7   35 1  
    40   13   36 1  
    41   14   37 1  
    42   17   38 1  
    43   17   39 1  
    44   17   40 1  
    45   18   41 1  
    46   20   42 1  
    47   21   43 1  
    48   22   44 1  
    49   23   45 1  
    50   25   46 1  
    51   25   47 1  
    52   26   48 1  
    53   27   49 1  
    54   28   50 1  
    55   28   51 1  
    56   28   52 1  
    57   29   53 1  
    58   29   54 1  
@<TRIPOS>SUBSTRUCTURE
     1 GQ5         1

