### 
### Created by X-TOOL on Wed Jan  1 15:39:35 2020
### 

@<TRIPOS>MOLECULE
6ht8_ligand
   33    34     1     0     0
SMALL
GAST_HUCK


@<TRIPOS>ATOM
      1 O15        45.1500   37.5900   86.7220 O.2       1 GQE        -0.3745
      2 C14        44.3220   37.1090   87.4810 C.2       1 GQE         0.2296
      3 C16        43.9830   37.8490   88.7370 C.ar      1 GQE         0.0554
      4 C21        44.8860   38.8120   89.1840 C.ar      1 GQE        -0.0416
      5 C20        44.6500   39.4860   90.3720 C.ar      1 GQE        -0.0562
      6 C19        43.5300   39.1730   91.1310 C.ar      1 GQE        -0.0576
      7 C18        42.6510   38.1890   90.7080 C.ar      1 GQE        -0.0562
      8 C17        42.8740   37.5200   89.5150 C.ar      1 GQE        -0.0416
      9 N13        43.7630   35.8130   87.2180 N.am      1 GQE        -0.2348
     10 C12        44.2070   35.0610   86.0820 C.ar      1 GQE         0.1028
     11 C03        43.8150   35.2290   84.7690 C.ar      1 GQE         0.1188
     12 O02        42.8920   36.1820   84.4120 O.3       1 GQE        -0.3232
     13 C01        42.3820   36.1150   83.1290 C.3       1 GQE         0.0577
     14 C11        45.1630   34.0850   86.3970 C.ar      1 GQE        -0.0282
     15 C06        45.7270   33.2540   85.4350 C.ar      1 GQE         0.0396
     16 C05        45.3130   33.4270   84.1170 C.ar      1 GQE        -0.0643
     17 C04        44.3680   34.4050   83.7960 C.ar      1 GQE        -0.0387
     18 C07        46.7390   32.2090   85.8380 C.2       1 GQE         0.3034
     19 O08        47.3030   32.2700   86.9250 O.2       1 GQE        -0.3232
     20 N09        47.0640   31.0900   84.9990 N.2       1 GQE         0.0335
     21 O10        47.9340   30.1980   85.3990 O.2       1 GQE        -0.1748
     22 H1         45.7733   39.0340   88.6023 H         1 GQE         0.0669
     23 H2         45.3371   40.2545   90.7073 H         1 GQE         0.0629
     24 H3         43.3425   39.7011   92.0589 H         1 GQE         0.0652
     25 H4         41.7858   37.9416   91.3124 H         1 GQE         0.0629
     26 H5         42.1898   36.7451   89.1886 H         1 GQE         0.0669
     27 H6         43.0649   35.4358   87.8266 H         1 GQE         0.2219
     28 H7         41.6599   36.9310   82.9784 H         1 GQE         0.0575
     29 H8         41.8779   35.1480   82.9848 H         1 GQE         0.0575
     30 H9         43.2023   36.2128   82.4027 H         1 GQE         0.0575
     31 H10        45.4743   33.9739   87.4294 H         1 GQE         0.0517
     32 H11        45.7261   32.7995   83.3355 H         1 GQE         0.0521
     33 H12        44.0590   34.5238   82.7638 H         1 GQE         0.0513
@<TRIPOS>BOND
     1    1    2 2  
     2    2    3 1  
     3    2    9 am 
     4    3    4 ar 
     5    3    8 ar 
     6    4    5 ar 
     7    5    6 ar 
     8    6    7 ar 
     9    7    8 ar 
    10    9   10 1  
    11   10   11 ar 
    12   10   14 ar 
    13   11   12 1  
    14   11   17 ar 
    15   12   13 1  
    16   14   15 ar 
    17   15   16 ar 
    18   15   18 1  
    19   16   17 ar 
    20   18   19 2  
    21   18   20 1  
    22   20   21 2  
    23    4   22 1  
    24    5   23 1  
    25    6   24 1  
    26    7   25 1  
    27    8   26 1  
    28    9   27 1  
    29   13   28 1  
    30   13   29 1  
    31   13   30 1  
    32   14   31 1  
    33   16   32 1  
    34   17   33 1  
@<TRIPOS>SUBSTRUCTURE
     1 GQE         1

