### 
### Created by X-TOOL on Mon Aug  2 16:10:06 2021
### 

@<TRIPOS>MOLECULE
6htc_ligand
   87    89     1     0     0
SMALL
GAST_HUCK


@<TRIPOS>ATOM
      1 C4         65.9630 -132.2730   40.3870 C.ar      1 GQK        -0.0686
      2 C5         65.4360 -133.3930   41.0480 C.ar      1 GQK        -0.0603
      3 C6         64.7400 -133.2570   42.2710 C.ar      1 GQK        -0.0408
      4 C7         64.1510 -134.3130   43.0560 C.3       1 GQK         0.0065
      5 C8         64.1000 -135.6750   42.3610 C.3       1 GQK         0.0800
      6 C10        64.0040 -138.2840   42.7930 C.3       1 GQK         0.0886
      7 C24        61.7930 -135.9540   39.2680 C.3       1 GQK         0.1389
      8 C26        61.5160 -134.7400   37.1040 C.2       1 GQK         0.2037
      9 C36        56.4410 -134.8740   33.3100 C.3       1 GQK        -0.0060
     10 C35        55.1220 -135.1570   33.9430 C.3       1 GQK         0.0878
     11 O34        54.9710 -134.2520   35.0890 O.3       1 GQK        -0.3693
     12 C33        56.0590 -134.2980   36.0260 C.3       1 GQK         0.0878
     13 C32        57.3240 -133.9150   35.3490 C.3       1 GQK        -0.0060
     14 N31        57.5580 -134.9260   34.2790 N.4       1 GQK         0.2552
     15 C30        58.7850 -134.7070   33.5070 C.3       1 GQK         0.0582
     16 C29        59.9480 -135.2060   34.3810 C.2       1 GQK         0.2238
     17 O37        60.0020 -136.3960   34.6920 O.2       1 GQK        -0.3910
     18 N28        60.8470 -134.2840   34.7760 N.am      1 GQK        -0.2615
     19 C27        61.9870 -134.6610   35.6340 C.3       1 GQK         0.1283
     20 C38        63.1350 -133.6530   35.4930 C.3       1 GQK        -0.0244
     21 O39        60.6780 -133.9440   37.5330 O.2       1 GQK        -0.3944
     22 N25        62.0890 -135.7220   37.8370 N.am      1 GQK        -0.2621
     23 C40        61.1280 -137.3260   39.4430 C.3       1 GQK         0.0163
     24 C41        59.7790 -137.3070   39.0830 C.ar      1 GQK        -0.0493
     25 C48        59.4000 -137.6360   37.7850 C.ar      1 GQK        -0.0685
     26 C47        58.0530 -137.6340   37.4140 C.ar      1 GQK        -0.0396
     27 C44        57.0520 -137.3090   38.3480 C.ar      1 GQK         0.0837
     28 O45        55.7010 -137.2700   38.0890 O.3       1 GQK        -0.3257
     29 C46        54.6980 -136.9800   39.0890 C.3       1 GQK         0.0579
     30 C43        57.4460 -136.9800   39.6500 C.ar      1 GQK        -0.0396
     31 C42        58.7940 -136.9850   40.0210 C.ar      1 GQK        -0.0685
     32 C23        63.1080 -135.9450   40.0780 C.2       1 GQK         0.2040
     33 O49        64.1800 -136.1760   39.5140 O.2       1 GQK        -0.3943
     34 N22        62.9670 -135.7050   41.4060 N.am      1 GQK        -0.2773
     35 C3         65.8300 -130.9870   40.9110 C.ar      1 GQK        -0.0687
     36 C2         65.1440 -130.8350   42.1140 C.ar      1 GQK        -0.0686
     37 C1         64.6170 -131.9530   42.7790 C.ar      1 GQK        -0.0603
     38 C9         63.9690 -136.8260   43.4290 C.3       1 GQK         0.1079
     39 O21        62.6880 -136.6340   44.0670 O.3       1 GQK        -0.3865
     40 C11        64.3200 -139.5600   43.7510 C.3       1 GQK        -0.0338
     41 C12        64.9990 -138.3970   41.5900 C.3       1 GQK        -0.0338
     42 O13        62.6560 -138.5060   42.2640 O.3       1 GQK        -0.3865
     43 H1         66.4856 -132.4103   39.4473 H         1 GQK         0.0599
     44 H2         65.5646 -134.3780   40.6140 H         1 GQK         0.0557
     45 H3         63.1217 -134.0187   43.3086 H         1 GQK         0.0449
     46 H4         64.7384 -134.4216   43.9796 H         1 GQK         0.0449
     47 H5         65.0354 -135.8225   41.8013 H         1 GQK         0.0605
     48 H6         61.1219 -135.1647   39.6377 H         1 GQK         0.0821
     49 H7         56.4091 -133.8698   32.8623 H         1 GQK         0.0837
     50 H8         56.6219 -135.6208   32.5229 H         1 GQK         0.0837
     51 H9         55.0873 -136.2021   34.2844 H         1 GQK         0.0613
     52 H10        54.3136 -134.9810   33.2181 H         1 GQK         0.0613
     53 H11        56.1535 -135.3184   36.4257 H         1 GQK         0.0613
     54 H12        55.8601 -133.5980   36.8509 H         1 GQK         0.0613
     55 H13        58.1567 -133.9236   36.0677 H         1 GQK         0.0837
     56 H14        57.2299 -132.9114   34.9087 H         1 GQK         0.0837
     57 H15        57.5995 -135.8378   34.7068 H         1 GQK         0.2054
     58 H16        58.9085 -133.6366   33.2858 H         1 GQK         0.1063
     59 H17        58.7474 -135.2741   32.5652 H         1 GQK         0.1063
     60 H18        60.7408 -133.3333   34.4846 H         1 GQK         0.1884
     61 H19        62.3511 -135.6515   35.3236 H         1 GQK         0.0797
     62 H20        63.9706 -133.9559   36.1411 H         1 GQK         0.0277
     63 H21        62.7841 -132.6537   35.7901 H         1 GQK         0.0277
     64 H22        63.4735 -133.6267   34.4467 H         1 GQK         0.0277
     65 H23        62.7487 -136.3240   37.3871 H         1 GQK         0.1885
     66 H24        61.2091 -137.6272   40.4978 H         1 GQK         0.0453
     67 H25        61.6531 -138.0576   38.8113 H         1 GQK         0.0453
     68 H26        60.1574 -137.8964   37.0545 H         1 GQK         0.0530
     69 H27        57.7763 -137.8853   36.3965 H         1 GQK         0.0525
     70 H28        53.7002 -137.0105   38.6271 H         1 GQK         0.0575
     71 H29        54.8773 -135.9792   39.5087 H         1 GQK         0.0575
     72 H30        54.7533 -137.7297   39.8920 H         1 GQK         0.0575
     73 H31        56.6928 -136.7167   40.3837 H         1 GQK         0.0525
     74 H32        59.0759 -136.7386   41.0383 H         1 GQK         0.0530
     75 H33        62.0467 -135.5390   41.7604 H         1 GQK         0.1857
     76 H34        66.2488 -130.1298   40.3964 H         1 GQK         0.0559
     77 H35        65.0163 -129.8462   42.5395 H         1 GQK         0.0599
     78 H36        64.0964 -131.8050   43.7182 H         1 GQK         0.0557
     79 H37        64.7818 -136.7373   44.1648 H         1 GQK         0.0647
     80 H38        61.9972 -136.7228   43.4209 H         1 GQK         0.2100
     81 H39        64.3048 -140.4817   43.1508 H         1 GQK         0.0258
     82 H40        63.5566 -139.6239   44.5404 H         1 GQK         0.0258
     83 H41        65.3123 -139.4374   44.2096 H         1 GQK         0.0258
     84 H42        64.8359 -137.5567   40.8991 H         1 GQK         0.0258
     85 H43        64.8277 -139.3457   41.0603 H         1 GQK         0.0258
     86 H44        66.0327 -138.3679   41.9651 H         1 GQK         0.0258
     87 H45        62.0389 -138.5578   42.9844 H         1 GQK         0.2102
@<TRIPOS>BOND
     1    2    1 ar 
     2    1   35 ar 
     3    3    2 ar 
     4    4    3 1  
     5    3   37 ar 
     6    5    4 1  
     7   34    5 1  
     8    5   38 1  
     9   38    6 1  
    10    6   40 1  
    11    6   41 1  
    12    6   42 1  
    13    7   22 1  
    14    7   23 1  
    15   32    7 1  
    16    8   19 1  
    17    8   21 2  
    18   22    8 am 
    19    9   10 1  
    20   14    9 1  
    21   10   11 1  
    22   12   11 1  
    23   13   12 1  
    24   14   13 1  
    25   15   14 1  
    26   16   15 1  
    27   16   17 2  
    28   18   16 am 
    29   19   18 1  
    30   19   20 1  
    31   23   24 1  
    32   24   25 ar 
    33   24   31 ar 
    34   25   26 ar 
    35   26   27 ar 
    36   27   28 1  
    37   30   27 ar 
    38   28   29 1  
    39   31   30 ar 
    40   32   33 2  
    41   32   34 am 
    42   35   36 ar 
    43   36   37 ar 
    44   38   39 1  
    45    1   43 1  
    46    2   44 1  
    47    4   45 1  
    48    4   46 1  
    49    5   47 1  
    50    7   48 1  
    51    9   49 1  
    52    9   50 1  
    53   10   51 1  
    54   10   52 1  
    55   12   53 1  
    56   12   54 1  
    57   13   55 1  
    58   13   56 1  
    59   14   57 1  
    60   15   58 1  
    61   15   59 1  
    62   18   60 1  
    63   19   61 1  
    64   20   62 1  
    65   20   63 1  
    66   20   64 1  
    67   22   65 1  
    68   23   66 1  
    69   23   67 1  
    70   25   68 1  
    71   26   69 1  
    72   29   70 1  
    73   29   71 1  
    74   29   72 1  
    75   30   73 1  
    76   31   74 1  
    77   34   75 1  
    78   35   76 1  
    79   36   77 1  
    80   37   78 1  
    81   38   79 1  
    82   39   80 1  
    83   40   81 1  
    84   40   82 1  
    85   40   83 1  
    86   41   84 1  
    87   41   85 1  
    88   41   86 1  
    89   42   87 1  
@<TRIPOS>SUBSTRUCTURE
     1 GQK         1

