### 
### Created by X-TOOL on Wed Jan  1 15:39:35 2020
### 

@<TRIPOS>MOLECULE
6htg_ligand
   31    32     1     0     0
SMALL
GAST_HUCK


@<TRIPOS>ATOM
      1 N          46.9100   31.7060   85.0700 N.am      1 T61        -0.1635
      2 C          46.6990   32.7090   85.9140 C.2       1 T61         0.2242
      3 O          47.2130   32.7350   87.0290 O.2       1 T61        -0.3850
      4 C1         45.7610   33.7890   85.4640 C.ar      1 T61         0.0381
      5 C10        43.0670   38.9700   91.4020 C.ar      1 T61        -0.0576
      6 C11        44.3440   39.2970   91.0080 C.ar      1 T61        -0.0562
      7 C12        44.8670   38.7770   89.8400 C.ar      1 T61        -0.0415
      8 C13        45.4790   34.8700   86.2970 C.ar      1 T61        -0.0209
      9 C2         45.0580   33.6540   84.2710 C.ar      1 T61        -0.0569
     10 C3         44.0340   34.5310   83.9590 C.ar      1 T61        -0.0560
     11 C4         43.7190   35.5570   84.8300 C.ar      1 T61         0.0641
     12 C5         44.4580   35.7750   85.9900 C.ar      1 T61         0.0855
     13 C6         44.8270   37.2440   87.9230 C.2       1 T61         0.2327
     14 C7         44.1110   37.9130   89.0500 C.ar      1 T61         0.0561
     15 C8         42.8110   37.6180   89.4390 C.ar      1 T61        -0.0415
     16 C9         42.3000   38.1370   90.6160 C.ar      1 T61        -0.0562
     17 N1         44.0910   36.8350   86.8660 N.am      1 T61        -0.2313
     18 O1         47.6340   30.5960   85.5040 O.3       1 T61        -0.2719
     19 O2         46.0440   37.1350   87.9530 O.2       1 T61        -0.3728
     20 CL         42.3630   36.5750   84.4680 Cl        1 T61        -0.0789
     21 H1         46.5547   31.7460   84.1361 H         1 T61         0.2213
     22 H2         42.6653   39.3662   92.3276 H         1 T61         0.0652
     23 H3         44.9422   39.9654   91.6166 H         1 T61         0.0629
     24 H4         45.8728   39.0429   89.5357 H         1 T61         0.0669
     25 H5         46.0619   35.0120   87.1998 H         1 T61         0.0552
     26 H6         45.3139   32.8573   83.5819 H         1 T61         0.0539
     27 H7         43.4806   34.4137   83.0343 H         1 T61         0.0594
     28 H8         42.1938   36.9786   88.8183 H         1 T61         0.0669
     29 H9         41.2905   37.8868   90.9215 H         1 T61         0.0629
     30 H10        43.2293   37.3098   86.6870 H         1 T61         0.2257
     31 H11        47.7021   29.9669   84.7954 H         1 T61         0.2491
@<TRIPOS>BOND
     1    2    1 am 
     2    1   18 1  
     3    2    3 2  
     4    4    2 1  
     5    8    4 ar 
     6    4    9 ar 
     7    6    5 ar 
     8    5   16 ar 
     9    7    6 ar 
    10   14    7 ar 
    11   12    8 ar 
    12   10    9 ar 
    13   11   10 ar 
    14   12   11 ar 
    15   11   20 1  
    16   17   12 1  
    17   13   14 1  
    18   13   17 am 
    19   13   19 2  
    20   14   15 ar 
    21   15   16 ar 
    22    1   21 1  
    23    5   22 1  
    24    6   23 1  
    25    7   24 1  
    26    8   25 1  
    27    9   26 1  
    28   10   27 1  
    29   15   28 1  
    30   16   29 1  
    31   17   30 1  
    32   18   31 1  
@<TRIPOS>SUBSTRUCTURE
     1 T61         1

