### 
### Created by X-TOOL on Wed Jan  1 15:39:38 2020
### 

@<TRIPOS>MOLECULE
6hth_ligand
   45    47     1     0     0
SMALL
GAST_HUCK


@<TRIPOS>ATOM
      1 C17        42.7220   37.7650   88.9970 C.ar      1 GQN        -0.0415
      2 C16        43.8980   37.4840   88.3000 C.ar      1 GQN         0.0548
      3 C14        43.9490   36.7150   87.0040 C.2       1 GQN         0.2291
      4 C12        43.8700   34.7480   85.7530 C.ar      1 GQN         0.1022
      5 C11        44.8330   33.7760   86.0340 C.ar      1 GQN        -0.0295
      6 O15        44.5720   37.2730   86.1150 O.2       1 GQN        -0.3750
      7 N13        43.3950   35.5030   86.7930 N.am      1 GQN        -0.2351
      8 C06        45.3900   32.9980   85.0160 C.ar      1 GQN         0.0265
      9 C07        46.3830   31.9130   85.3380 C.2       1 GQN         0.2161
     10 N09        46.2750   30.7950   84.6050 N.am      1 GQN        -0.1651
     11 O10        47.0980   29.6720   84.7010 O.3       1 GQN        -0.2722
     12 O08        47.1940   32.0370   86.2500 O.2       1 GQN        -0.3900
     13 C05        44.9670   33.1700   83.7040 C.ar      1 GQN        -0.0657
     14 C04        44.0140   34.1360   83.4100 C.ar      1 GQN        -0.0394
     15 C03        43.4680   34.9290   84.4150 C.ar      1 GQN         0.1180
     16 O02        42.5270   35.8610   84.0340 O.3       1 GQN        -0.3237
     17 C01        41.1290   35.6500   84.3120 C.3       1 GQN         0.0576
     18 C27        45.1050   37.9670   88.7900 C.ar      1 GQN        -0.0415
     19 C26        45.1560   38.7050   89.9660 C.ar      1 GQN        -0.0489
     20 C19        43.9940   38.9840   90.6780 C.ar      1 GQN        -0.0141
     21 C18        42.7740   38.5050   90.1880 C.ar      1 GQN        -0.0489
     22 C20        44.1060   39.7850   91.9460 C.ar      1 GQN        -0.0154
     23 C25        42.9720   40.1020   92.7090 C.ar      1 GQN        -0.0530
     24 C24        43.1160   40.8460   93.8790 C.ar      1 GQN        -0.0605
     25 C23        44.3900   41.2660   94.2770 C.ar      1 GQN        -0.0612
     26 C22        45.5310   40.9590   93.5290 C.ar      1 GQN        -0.0605
     27 C21        45.3810   40.2170   92.3590 C.ar      1 GQN        -0.0530
     28 H1         41.7695   37.4120   88.6187 H         1 GQN         0.0667
     29 H2         45.1533   33.6229   87.0582 H         1 GQN         0.0514
     30 H3         42.6585   35.1653   87.3791 H         1 GQN         0.2219
     31 H4         45.5387   30.7633   83.9291 H         1 GQN         0.2209
     32 H5         46.8132   29.0176   84.0740 H         1 GQN         0.2490
     33 H6         45.3790   32.5530   82.9136 H         1 GQN         0.0516
     34 H7         43.6911   34.2743   82.3845 H         1 GQN         0.0510
     35 H8         40.5467   36.5018   83.9307 H         1 GQN         0.0574
     36 H9         40.9805   35.5613   85.3983 H         1 GQN         0.0574
     37 H10        40.7925   34.7259   83.8192 H         1 GQN         0.0574
     38 H11        46.0209   37.7650   88.2465 H         1 GQN         0.0667
     39 H12        46.1101   39.0667   90.3321 H         1 GQN         0.0633
     40 H13        41.8598   38.7077   90.7341 H         1 GQN         0.0633
     41 H14        41.9902   39.7705   92.3907 H         1 GQN         0.0629
     42 H15        42.2471   41.0974   94.4763 H         1 GQN         0.0619
     43 H16        44.4952   41.8439   95.1881 H         1 GQN         0.0622
     44 H17        46.5109   41.2910   93.8523 H         1 GQN         0.0619
     45 H18        46.2520   39.9706   91.7626 H         1 GQN         0.0629
@<TRIPOS>BOND
     1    2    1 ar 
     2    1   21 ar 
     3    3    2 1  
     4    2   18 ar 
     5    3    6 2  
     6    7    3 am 
     7    4    5 ar 
     8    4    7 1  
     9    4   15 ar 
    10    5    8 ar 
    11    8    9 1  
    12    8   13 ar 
    13    9   10 am 
    14    9   12 2  
    15   10   11 1  
    16   13   14 ar 
    17   14   15 ar 
    18   15   16 1  
    19   16   17 1  
    20   18   19 ar 
    21   19   20 ar 
    22   20   21 ar 
    23   20   22 1  
    24   22   23 ar 
    25   22   27 ar 
    26   23   24 ar 
    27   24   25 ar 
    28   25   26 ar 
    29   26   27 ar 
    30    1   28 1  
    31    5   29 1  
    32    7   30 1  
    33   10   31 1  
    34   11   32 1  
    35   13   33 1  
    36   14   34 1  
    37   17   35 1  
    38   17   36 1  
    39   17   37 1  
    40   18   38 1  
    41   19   39 1  
    42   21   40 1  
    43   23   41 1  
    44   24   42 1  
    45   25   43 1  
    46   26   44 1  
    47   27   45 1  
@<TRIPOS>SUBSTRUCTURE
     1 GQN         1

