### 
### Created by X-TOOL on Wed Jan  1 15:39:37 2020
### 

@<TRIPOS>MOLECULE
6hti_ligand
   34    36     1     0     0
SMALL
GAST_HUCK


@<TRIPOS>ATOM
      1 C1         45.6140   33.5960   85.4800 C.ar      1 GQW         0.0381
      2 C2         45.1880   33.9120   84.1910 C.ar      1 GQW        -0.0569
      3 C3         44.3340   34.9810   83.9810 C.ar      1 GQW        -0.0560
      4 C4         43.9070   35.7410   85.0570 C.ar      1 GQW         0.0640
      5 C5         44.3260   35.4520   86.3620 C.ar      1 GQW         0.0853
      6 C6         43.9640   37.6640   87.6460 C.2       1 GQW         0.2289
      7 C7         43.6030   38.0510   89.0470 C.ar      1 GQW         0.0678
      8 N1         44.1660   36.3440   87.4520 N.am      1 GQW        -0.2323
      9 C8         42.4140   37.5670   89.5880 C.ar      1 GQW        -0.0497
     10 N          46.6790   31.4620   85.1050 N.am      1 GQW        -0.1635
     11 C          46.5950   32.5400   85.8730 C.2       1 GQW         0.2242
     12 O          47.2610   32.6630   86.8990 O.2       1 GQW        -0.3850
     13 C10        42.8060   38.8050   91.6130 C.ar      1 GQW        -0.0619
     14 C11        44.0160   39.3090   91.1190 C.ar      1 GQW        -0.0196
     15 C12        44.9960   40.1690   91.7110 C.2       1 GQW        -0.0596
     16 C13        46.0570   40.3760   90.9050 C.2       1 GQW        -0.0022
     17 C14        44.3980   38.9020   89.8300 C.ar      1 GQW         0.0582
     18 C15        45.1590   34.3550   86.5540 C.ar      1 GQW        -0.0210
     19 C9         42.0260   37.9410   90.8620 C.ar      1 GQW        -0.0656
     20 O1         47.4210   30.3710   85.5490 O.3       1 GQW        -0.2719
     21 O2         44.1240   38.5140   86.7770 O.2       1 GQW        -0.3760
     22 S          45.9420   39.5620   89.3930 S.3       1 GQW        -0.0332
     23 CL         42.7470   37.0000   84.7760 Cl        1 GQW        -0.0789
     24 H1         45.5268   33.3183   83.3497 H         1 GQW         0.0539
     25 H2         44.0008   35.2223   82.9781 H         1 GQW         0.0594
     26 H3         44.2174   35.8573   88.3240 H         1 GQW         0.2255
     27 H4         41.7909   36.8952   89.0088 H         1 GQW         0.0622
     28 H5         46.2157   31.4333   84.2192 H         1 GQW         0.2213
     29 H6         42.4734   39.0969   92.6026 H         1 GQW         0.0610
     30 H7         44.8955   40.6075   92.7027 H         1 GQW         0.0424
     31 H8         46.9056   40.9988   91.1841 H         1 GQW         0.0797
     32 H9         45.4598   34.0859   87.5601 H         1 GQW         0.0552
     33 H10        41.1023   37.5541   91.2768 H         1 GQW         0.0570
     34 H11        47.3885   29.6809   84.8969 H         1 GQW         0.2491
@<TRIPOS>BOND
     1    1    2 ar 
     2    1   11 1  
     3   18    1 ar 
     4    3    2 ar 
     5    4    3 ar 
     6    5    4 ar 
     7    4   23 1  
     8    8    5 1  
     9    5   18 ar 
    10    7    6 1  
    11    6    8 am 
    12    6   21 2  
    13    9    7 ar 
    14    7   17 ar 
    15   19    9 ar 
    16   11   10 am 
    17   10   20 1  
    18   11   12 2  
    19   13   14 ar 
    20   13   19 ar 
    21   14   15 1  
    22   14   17 ar 
    23   15   16 2  
    24   16   22 1  
    25   17   22 1  
    26    2   24 1  
    27    3   25 1  
    28    8   26 1  
    29    9   27 1  
    30   10   28 1  
    31   13   29 1  
    32   15   30 1  
    33   16   31 1  
    34   18   32 1  
    35   19   33 1  
    36   20   34 1  
@<TRIPOS>SUBSTRUCTURE
     1 GQW         1

