### 
### Created by X-TOOL on Mon Aug  2 16:10:50 2021
### 

@<TRIPOS>MOLECULE
6htn_ligand
   26    26     1     0     0
SMALL
GAST_HUCK


@<TRIPOS>ATOM
      1 C1         98.0860   53.6910   42.5560 C.3       1 MFU         0.1875
      2 C2         96.5650   53.7300   42.7240 C.3       1 MFU         0.1341
      3 C3         96.0560   54.6390   43.7930 C.3       1 MFU         0.1140
      4 C4         96.5280   56.0500   43.4790 C.3       1 MFU         0.1095
      5 C5         98.0550   55.8860   43.3910 C.3       1 MFU         0.0873
      6 C6         98.6910   57.2500   42.9760 C.3       1 MFU        -0.0361
      7 O1         98.4630   53.2660   43.8190 O.3       1 MFU        -0.3520
      8 O2         96.1170   52.3900   43.1480 O.3       1 MFU        -0.3841
      9 O3         94.6150   54.6850   43.9100 O.3       1 MFU        -0.3864
     10 O4         96.0970   56.4780   42.1650 O.3       1 MFU        -0.3866
     11 O5         98.4660   55.0730   42.2850 O.3       1 MFU        -0.3431
     12 CM         99.9080   53.1120   43.8710 C.3       1 MFU         0.0395
     13 H1         98.4348   53.0129   41.7632 H         1 MFU         0.0937
     14 H2         96.1124   54.0096   41.7612 H         1 MFU         0.0671
     15 H3         96.4747   54.3105   44.7557 H         1 MFU         0.0648
     16 H4         96.2163   56.7670   44.2527 H         1 MFU         0.0646
     17 H5         98.4495   55.5075   44.3455 H         1 MFU         0.0621
     18 H6         99.7836   57.1404   42.9110 H         1 MFU         0.0255
     19 H7         98.4432   58.0139   43.7277 H         1 MFU         0.0255
     20 H8         98.2944   57.5567   41.9969 H         1 MFU         0.0255
     21 H9         96.4900   52.1868   43.9977 H         1 MFU         0.2101
     22 H10        94.2414   54.9880   43.0908 H         1 MFU         0.2100
     23 H11        95.1543   56.5948   42.1647 H         1 MFU         0.2100
     24 H12       100.2048   52.7744   44.8750 H         1 MFU         0.0525
     25 H13       100.3878   54.0773   43.6520 H         1 MFU         0.0525
     26 H14       100.2245   52.3677   43.1255 H         1 MFU         0.0525
@<TRIPOS>BOND
     1    1    2 1  
     2    1    7 1  
     3    1   11 1  
     4    2    3 1  
     5    2    8 1  
     6    3    4 1  
     7    3    9 1  
     8    4    5 1  
     9    4   10 1  
    10    5    6 1  
    11    5   11 1  
    12    7   12 1  
    13    1   13 1  
    14    2   14 1  
    15    3   15 1  
    16    4   16 1  
    17    5   17 1  
    18    6   18 1  
    19    6   19 1  
    20    6   20 1  
    21    8   21 1  
    22    9   22 1  
    23   10   23 1  
    24   12   24 1  
    25   12   25 1  
    26   12   26 1  
@<TRIPOS>SUBSTRUCTURE
     1 MFU         1

