### 
### Created by X-TOOL on Mon Aug  2 16:10:07 2021
### 

@<TRIPOS>MOLECULE
6htp_ligand
   86    87     1     0     0
SMALL
GAST_HUCK


@<TRIPOS>ATOM
      1 C4         56.6420 -133.8210   33.0600 C.ar      1 GQQ         0.0475
      2 C6         58.3940 -135.3540   33.6300 C.ar      1 GQQ         0.1532
      3 C7         59.5990 -135.5640   34.2920 C.2       1 GQQ         0.2347
      4 C10        61.3020 -134.3780   36.7320 C.2       1 GQQ         0.2039
      5 C13        62.8420 -135.6860   39.7270 C.2       1 GQQ         0.2020
      6 C15        63.6740 -135.3700   42.0300 C.3       1 GQQ         0.0521
      7 C17        64.2660 -132.9920   42.2010 C.ar      1 GQQ        -0.0475
      8 C20        65.3700 -130.6890   41.0060 C.ar      1 GQQ        -0.0054
      9 C21        65.9420 -129.5870   40.3700 C.3       1 GQQ        -0.0046
     10 C24        64.9510 -133.0610   40.9700 C.ar      1 GQQ        -0.0666
     11 C26        61.8640 -136.7030   43.2710 C.3       1 GQQ         0.0677
     12 C28        61.3140 -139.4240   42.0510 C.3       1 GQQ         0.0544
     13 C18        64.1550 -131.7400   42.8210 C.ar      1 GQQ        -0.0666
     14 C19        64.7020 -130.5960   42.2380 C.ar      1 GQQ        -0.0618
     15 N22        65.0760 -128.4150   40.3790 N.4       1 GQQ         0.2299
     16 C23        65.4900 -131.9260   40.3850 C.ar      1 GQQ        -0.0618
     17 C16        63.6960 -134.0600   42.8770 C.3       1 GQQ         0.0009
     18 C25        63.3530 -136.6360   42.8580 C.3       1 GQQ        -0.0088
     19 S27        61.2290 -138.4050   43.5110 S.o2      1 GQQ        -0.0337
     20 O29        59.7610 -138.2910   43.9230 O.2       1 GQQ        -0.1746
     21 O30        61.9920 -139.1140   44.6120 O.2       1 GQQ        -0.1746
     22 N14        62.6750 -135.2340   40.9730 N.am      1 GQQ        -0.2801
     23 O31        63.8220 -136.2960   39.2990 O.2       1 GQQ        -0.3945
     24 C12        61.5840 -135.4870   38.9070 C.3       1 GQQ         0.1311
     25 C32        60.7300 -136.7260   39.2790 C.3       1 GQQ        -0.0101
     26 C33        59.4200 -136.8730   38.4760 C.3       1 GQQ        -0.0425
     27 C38        58.6530 -138.0900   39.0310 C.3       1 GQQ        -0.0625
     28 C34        58.5660 -135.5880   38.5670 C.3       1 GQQ        -0.0625
     29 N11        61.8060 -135.3980   37.4530 N.am      1 GQQ        -0.2637
     30 O39        60.6440 -133.4500   37.1980 O.2       1 GQQ        -0.3944
     31 C9         61.5480 -134.4560   35.2330 C.3       1 GQQ         0.1311
     32 C40        62.3120 -133.2550   34.6800 C.3       1 GQQ        -0.0101
     33 C41        63.7840 -133.1980   35.1180 C.3       1 GQQ        -0.0425
     34 C43        64.4140 -131.9340   34.5020 C.3       1 GQQ        -0.0625
     35 C42        64.5500 -134.4530   34.6630 C.3       1 GQQ        -0.0625
     36 N8         60.2520 -134.4350   34.5730 N.am      1 GQQ        -0.2617
     37 O44        60.0130 -136.6950   34.5630 O.2       1 GQQ        -0.3756
     38 N6         57.8490 -134.1190   33.7030 N.ar      1 GQQ        -0.2509
     39 C3         55.9940 -134.8220   32.3170 C.ar      1 GQQ         0.0462
     40 N2         56.5630 -136.1190   32.2330 N.ar      1 GQQ        -0.2653
     41 C1         57.7790 -136.3810   32.8940 C.ar      1 GQQ         0.0620
     42 H1         56.2119 -132.8288   33.1345 H         1 GQQ         0.0941
     43 H2         64.6663 -135.5003   41.5736 H         1 GQQ         0.0578
     44 H3         66.1567 -129.8568   39.3254 H         1 GQQ         0.0965
     45 H4         66.8811 -129.3335   40.8837 H         1 GQQ         0.0965
     46 H5         65.0578 -134.0183   40.4728 H         1 GQQ         0.0540
     47 H6         61.2656 -136.2189   42.4852 H         1 GQQ         0.0500
     48 H7         61.7426 -136.1528   44.2157 H         1 GQQ         0.0500
     49 H8         60.9159 -140.4240   42.2781 H         1 GQQ         0.0464
     50 H9         62.3610 -139.5115   41.7253 H         1 GQQ         0.0464
     51 H10        60.7175 -138.9655   41.2486 H         1 GQQ         0.0464
     52 H11        63.6357 -131.6588   43.7691 H         1 GQQ         0.0540
     53 H12        64.6114 -129.6371   42.7353 H         1 GQQ         0.0542
     54 H13        65.5377 -127.6525   39.9083 H         1 GQQ         0.2007
     55 H14        64.8776 -128.1511   41.3314 H         1 GQQ         0.2007
     56 H15        64.2138 -128.6306   39.9035 H         1 GQQ         0.2007
     57 H16        66.0088 -132.0040   39.4364 H         1 GQQ         0.0542
     58 H17        64.2746 -134.2443   43.7942 H         1 GQQ         0.0435
     59 H18        62.6618 -133.7959   43.1427 H         1 GQQ         0.0435
     60 H19        63.9726 -136.6312   43.7669 H         1 GQQ         0.0305
     61 H20        63.5934 -137.5239   42.2549 H         1 GQQ         0.0305
     62 H21        61.8147 -134.7752   41.1953 H         1 GQQ         0.1856
     63 H22        61.0766 -134.5654   39.2283 H         1 GQQ         0.0800
     64 H23        60.4715 -136.6558   40.3459 H         1 GQQ         0.0315
     65 H24        61.3393 -137.6257   39.1077 H         1 GQQ         0.0315
     66 H25        59.6648 -137.0544   37.4191 H         1 GQQ         0.0298
     67 H26        57.7131 -138.2163   38.4737 H         1 GQQ         0.0232
     68 H27        58.4290 -137.9279   40.0957 H         1 GQQ         0.0232
     69 H28        59.2696 -138.9941   38.9195 H         1 GQQ         0.0232
     70 H29        59.1377 -134.7386   38.1649 H         1 GQQ         0.0232
     71 H30        58.3092 -135.3921   39.6185 H         1 GQQ         0.0232
     72 H31        57.6434 -135.7187   37.9824 H         1 GQQ         0.0232
     73 H32        62.3403 -136.1074   36.9934 H         1 GQQ         0.1883
     74 H33        62.0930 -135.3827   35.0002 H         1 GQQ         0.0800
     75 H34        61.8123 -132.3378   35.0250 H         1 GQQ         0.0315
     76 H35        62.2791 -133.2995   33.5814 H         1 GQQ         0.0315
     77 H36        63.8328 -133.1328   36.2150 H         1 GQQ         0.0298
     78 H37        65.4707 -131.8683   34.8004 H         1 GQQ         0.0232
     79 H38        63.8759 -131.0441   34.8604 H         1 GQQ         0.0232
     80 H39        64.3453 -131.9872   33.4054 H         1 GQQ         0.0232
     81 H40        64.0892 -135.3461   35.1103 H         1 GQQ         0.0232
     82 H41        65.5986 -134.3802   34.9871 H         1 GQQ         0.0232
     83 H42        64.5096 -134.5298   33.5664 H         1 GQQ         0.0232
     84 H43        59.8424 -133.5571   34.3250 H         1 GQQ         0.1881
     85 H44        55.0615 -134.6039   31.8091 H         1 GQQ         0.0958
     86 H45        58.2348 -137.3628   32.8356 H         1 GQQ         0.0978
@<TRIPOS>BOND
     1   38    1 ar 
     2    1   39 ar 
     3    3    2 1  
     4    2   38 ar 
     5    2   41 ar 
     6   36    3 am 
     7    3   37 2  
     8    4   29 am 
     9    4   30 2  
    10   31    4 1  
    11    5   22 am 
    12    5   23 2  
    13   24    5 1  
    14    6   17 1  
    15    6   18 1  
    16   22    6 1  
    17    7   10 ar 
    18    7   13 ar 
    19   17    7 1  
    20    8    9 1  
    21   14    8 ar 
    22   16    8 ar 
    23    9   15 1  
    24   10   16 ar 
    25   18   11 1  
    26   11   19 1  
    27   19   12 1  
    28   13   14 ar 
    29   19   20 2  
    30   19   21 2  
    31   24   25 1  
    32   29   24 1  
    33   25   26 1  
    34   26   27 1  
    35   26   28 1  
    36   31   32 1  
    37   31   36 1  
    38   32   33 1  
    39   33   34 1  
    40   33   35 1  
    41   39   40 ar 
    42   40   41 ar 
    43    1   42 1  
    44    6   43 1  
    45    9   44 1  
    46    9   45 1  
    47   10   46 1  
    48   11   47 1  
    49   11   48 1  
    50   12   49 1  
    51   12   50 1  
    52   12   51 1  
    53   13   52 1  
    54   14   53 1  
    55   15   54 1  
    56   15   55 1  
    57   15   56 1  
    58   16   57 1  
    59   17   58 1  
    60   17   59 1  
    61   18   60 1  
    62   18   61 1  
    63   22   62 1  
    64   24   63 1  
    65   25   64 1  
    66   25   65 1  
    67   26   66 1  
    68   27   67 1  
    69   27   68 1  
    70   27   69 1  
    71   28   70 1  
    72   28   71 1  
    73   28   72 1  
    74   29   73 1  
    75   31   74 1  
    76   32   75 1  
    77   32   76 1  
    78   33   77 1  
    79   34   78 1  
    80   34   79 1  
    81   34   80 1  
    82   35   81 1  
    83   35   82 1  
    84   35   83 1  
    85   36   84 1  
    86   39   85 1  
    87   41   86 1  
@<TRIPOS>SUBSTRUCTURE
     1 GQQ         1

