### 
### Created by X-TOOL on Wed Jan  1 15:39:35 2020
### 

@<TRIPOS>MOLECULE
6htt_ligand
   31    32     1     0     0
SMALL
GAST_HUCK


@<TRIPOS>ATOM
      1 C10        45.4470   33.9340   85.5770 C.ar      1 GQZ         0.0570
      2 C11        45.2380   34.9910   86.4610 C.ar      1 GQZ        -0.0216
      3 C12        44.4410   36.0710   86.0960 C.ar      1 GQZ         0.0615
      4 C13        43.8280   36.0770   84.8430 C.ar      1 GQZ        -0.0374
      5 C14        44.0340   35.0310   83.9600 C.ar      1 GQZ        -0.0508
      6 C15        46.3090   32.7800   85.9910 C.2       1 GQZ         0.2287
      7 O17        47.2020   30.6730   85.4950 O.3       1 GQZ        -0.2719
      8 C1         45.2050   38.8160   89.5920 C.ar      1 GQZ        -0.0412
      9 C2         44.1800   37.9000   89.3900 C.ar      1 GQZ         0.0660
     10 C3         43.0790   37.9060   90.2350 C.ar      1 GQZ        -0.0412
     11 C4         43.0140   38.8170   91.2760 C.ar      1 GQZ        -0.0755
     12 C5         44.0340   39.7220   91.4760 C.ar      1 GQZ        -0.0771
     13 C6         45.1240   39.7230   90.6350 C.ar      1 GQZ        -0.0755
     14 N7         44.2600   36.9590   88.3350 N.am      1 GQZ        -0.2330
     15 C8         44.3110   37.2440   87.0150 C.2       1 GQZ         0.2335
     16 C9         44.8450   33.9670   84.3200 C.ar      1 GQZ        -0.0379
     17 N16        46.3980   31.7590   85.1500 N.am      1 GQZ        -0.1632
     18 O18        44.2810   38.3910   86.5790 O.2       1 GQZ        -0.3729
     19 O19        46.9010   32.7820   87.0700 O.2       1 GQZ        -0.3849
     20 H1         45.7004   34.9713   87.4412 H         1 GQZ         0.0722
     21 H2         43.1875   36.9044   84.5595 H         1 GQZ         0.0703
     22 H3         43.5600   35.0444   82.9852 H         1 GQZ         0.0640
     23 H4         47.1688   30.0232   84.8027 H         1 GQZ         0.2491
     24 H5         46.0666   38.8205   88.9342 H         1 GQZ         0.0503
     25 H6         42.2718   37.1992   90.0805 H         1 GQZ         0.0503
     26 H7         42.1554   38.8183   91.9377 H         1 GQZ         0.0577
     27 H8         43.9782   40.4315   92.2937 H         1 GQZ         0.0488
     28 H9         45.9236   40.4382   90.7903 H         1 GQZ         0.0577
     29 H10        44.2807   35.9925   88.5908 H         1 GQZ         0.2253
     30 H11        45.0123   33.1559   83.6206 H         1 GQZ         0.0702
     31 H12        45.8978   31.7675   84.2841 H         1 GQZ         0.2213
@<TRIPOS>BOND
     1    2    1 ar 
     2    1    6 1  
     3    1   16 ar 
     4    3    2 ar 
     5    3    4 ar 
     6   15    3 1  
     7    4    5 ar 
     8    5   16 ar 
     9    6   17 am 
    10    6   19 2  
    11   17    7 1  
    12    9    8 ar 
    13    8   13 ar 
    14    9   10 ar 
    15   14    9 1  
    16   10   11 ar 
    17   11   12 ar 
    18   13   12 ar 
    19   14   15 am 
    20   15   18 2  
    21    2   20 1  
    22    4   21 1  
    23    5   22 1  
    24    7   23 1  
    25    8   24 1  
    26   10   25 1  
    27   11   26 1  
    28   12   27 1  
    29   13   28 1  
    30   14   29 1  
    31   16   30 1  
    32   17   31 1  
@<TRIPOS>SUBSTRUCTURE
     1 GQZ         1

