### 
### Created by X-TOOL on Wed Jan  1 15:39:36 2020
### 

@<TRIPOS>MOLECULE
6htz_ligand
   38    39     1     0     0
SMALL
GAST_HUCK


@<TRIPOS>ATOM
      1 C8         43.3030   35.8250   84.7480 C.ar      1 GRK         0.1179
      2 C5         45.2510   34.0450   85.6240 C.ar      1 GRK         0.0264
      3 C6         44.8380   34.0500   84.2920 C.ar      1 GRK        -0.0658
      4 C10        44.7030   34.9630   86.5170 C.ar      1 GRK        -0.0296
      5 C12        41.8090   36.6920   83.0990 C.3       1 GRK         0.0575
      6 C14        43.6570   37.7790   87.6620 C.2       1 GRK         0.2123
      7 C16        42.7070   38.4870   88.6080 C.3       1 GRK         0.0757
      8 C17        43.4020   39.4740   89.5190 C.ar      1 GRK        -0.0239
      9 C18        43.2440   40.8410   89.3350 C.ar      1 GRK        -0.0580
     10 C19        43.9100   41.7470   90.1440 C.ar      1 GRK        -0.0681
     11 C20        44.7410   41.2990   91.1490 C.ar      1 GRK        -0.0684
     12 C21        44.9000   39.9440   91.3470 C.ar      1 GRK        -0.0681
     13 C22        44.2340   39.0370   90.5400 C.ar      1 GRK        -0.0580
     14 C3         46.1940   32.9830   86.0940 C.2       1 GRK         0.2160
     15 C7         43.8650   34.9300   83.8530 C.ar      1 GRK        -0.0395
     16 C9         43.7250   35.8560   86.0860 C.ar      1 GRK         0.1024
     17 N13        43.0930   36.7850   86.9440 N.am      1 GRK        -0.2341
     18 N2         46.3210   31.9610   85.2500 N.am      1 GRK        -0.1651
     19 O1         46.9880   30.7900   85.6070 O.3       1 GRK        -0.2722
     20 O11        42.3030   36.7020   84.4390 O.3       1 GRK        -0.3238
     21 O15        44.8420   38.0880   87.5830 O.2       1 GRK        -0.3833
     22 O4         46.7530   33.0510   87.1910 O.2       1 GRK        -0.3900
     23 H1         45.2855   33.3548   83.5910 H         1 GRK         0.0515
     24 H2         45.0379   34.9823   87.5478 H         1 GRK         0.0514
     25 H3         41.0127   37.4439   82.9962 H         1 GRK         0.0574
     26 H4         41.4053   35.6960   82.8644 H         1 GRK         0.0574
     27 H5         42.6284   36.9285   82.4043 H         1 GRK         0.0574
     28 H6         42.2041   37.7314   89.2294 H         1 GRK         0.0664
     29 H7         41.9582   39.0287   88.0115 H         1 GRK         0.0664
     30 H8         42.5917   41.2037   88.5489 H         1 GRK         0.0561
     31 H9         43.7775   42.8113   89.9865 H         1 GRK         0.0600
     32 H10        45.2659   42.0077   91.7793 H         1 GRK         0.0561
     33 H11        45.5494   39.5869   92.1381 H         1 GRK         0.0600
     34 H12        44.3640   37.9740   90.7077 H         1 GRK         0.0561
     35 H13        43.5452   34.9191   82.8173 H         1 GRK         0.0510
     36 H14        42.1009   36.6940   87.0300 H         1 GRK         0.2224
     37 H15        45.9267   32.0355   84.3340 H         1 GRK         0.2209
     38 H16        46.9731   30.1830   84.8763 H         1 GRK         0.2490
@<TRIPOS>BOND
     1    1   15 ar 
     2   16    1 ar 
     3    1   20 1  
     4    2    3 ar 
     5    4    2 ar 
     6    2   14 1  
     7   15    3 ar 
     8   16    4 ar 
     9   20    5 1  
    10    6    7 1  
    11   17    6 am 
    12    6   21 2  
    13    7    8 1  
    14    8    9 ar 
    15    8   13 ar 
    16    9   10 ar 
    17   10   11 ar 
    18   12   11 ar 
    19   13   12 ar 
    20   14   18 am 
    21   14   22 2  
    22   16   17 1  
    23   18   19 1  
    24    3   23 1  
    25    4   24 1  
    26    5   25 1  
    27    5   26 1  
    28    5   27 1  
    29    7   28 1  
    30    7   29 1  
    31    9   30 1  
    32   10   31 1  
    33   11   32 1  
    34   12   33 1  
    35   13   34 1  
    36   15   35 1  
    37   17   36 1  
    38   18   37 1  
    39   19   38 1  
@<TRIPOS>SUBSTRUCTURE
     1 GRK         1

