### 
### Created by X-TOOL on Wed Jan  1 15:39:36 2020
### 

@<TRIPOS>MOLECULE
6hu0_ligand
   33    34     1     0     0
SMALL
GAST_HUCK


@<TRIPOS>ATOM
      1 CL1        41.9890   39.9290   92.4980 Cl        1 T86        -0.0667
      2 CL2        46.1340   39.2740   89.1780 Cl        1 T86        -0.0648
      3 C1         43.7160   38.1330   88.7200 C.ar      1 T86         0.0690
      4 C2         44.4810   38.9440   89.5610 C.ar      1 T86         0.0613
      5 C3         43.9600   39.4990   90.7130 C.ar      1 T86        -0.0284
      6 C4         42.6500   39.2320   91.0420 C.ar      1 T86         0.0454
      7 C5         41.8520   38.4340   90.2510 C.ar      1 T86        -0.0423
      8 C6         42.3770   37.8860   89.0930 C.ar      1 T86        -0.0409
      9 C12        44.1680   37.4600   87.4210 C.2       1 T86         0.2298
     10 N13        43.5690   36.3420   87.0210 N.am      1 T86        -0.2349
     11 C14        45.1510   33.8510   84.0310 C.ar      1 T86        -0.0643
     12 C15        45.6180   33.7220   85.3540 C.ar      1 T86         0.0396
     13 C16        45.1450   34.5780   86.3490 C.ar      1 T86        -0.0282
     14 C17        44.1870   35.5530   85.9960 C.ar      1 T86         0.1028
     15 C18        43.7630   35.6760   84.6670 C.ar      1 T86         0.1188
     16 C19        44.2360   34.8230   83.6860 C.ar      1 T86        -0.0387
     17 O23        44.8180   38.2800   86.6290 O.2       1 T86        -0.3747
     18 O24        42.8650   36.7060   84.4030 O.3       1 T86        -0.3232
     19 C25        42.2990   37.0880   83.3000 C.3       1 T86         0.0577
     20 C26        46.5550   32.6760   85.8440 C.2       1 T86         0.3034
     21 N27        47.0270   31.5560   84.8910 N.2       1 T86         0.0335
     22 O28        47.1820   30.4210   85.3100 O.2       1 T86        -0.1748
     23 O29        47.0170   32.6530   86.9650 O.2       1 T86        -0.3232
     24 H1         44.5705   40.1326   91.3461 H         1 T86         0.0640
     25 H2         40.8238   38.2374   90.5326 H         1 T86         0.0635
     26 H3         41.7528   37.2601   88.4656 H         1 T86         0.0668
     27 H4         42.7016   36.0564   87.4286 H         1 T86         0.2219
     28 H5         45.5183   33.1727   83.2694 H         1 T86         0.0521
     29 H6         45.5044   34.4964   87.3684 H         1 T86         0.0517
     30 H7         43.8927   34.9173   82.6621 H         1 T86         0.0513
     31 H8         41.6459   37.9497   83.5024 H         1 T86         0.0575
     32 H9         41.6995   36.2618   82.8902 H         1 T86         0.0575
     33 H10        43.0716   37.3766   82.5722 H         1 T86         0.0575
@<TRIPOS>BOND
     1    6    1 1  
     2    4    2 1  
     3    3    4 ar 
     4    3    8 ar 
     5    9    3 1  
     6    4    5 ar 
     7    5    6 ar 
     8    7    6 ar 
     9    8    7 ar 
    10   10    9 am 
    11    9   17 2  
    12   14   10 1  
    13   12   11 ar 
    14   11   16 ar 
    15   13   12 ar 
    16   12   20 1  
    17   13   14 ar 
    18   14   15 ar 
    19   15   16 ar 
    20   15   18 1  
    21   18   19 1  
    22   20   21 1  
    23   20   23 2  
    24   21   22 2  
    25    5   24 1  
    26    7   25 1  
    27    8   26 1  
    28   10   27 1  
    29   11   28 1  
    30   13   29 1  
    31   16   30 1  
    32   19   31 1  
    33   19   32 1  
    34   19   33 1  
@<TRIPOS>SUBSTRUCTURE
     1 T86         1

