### 
### Created by X-TOOL on Wed Jan  1 15:39:35 2020
### 

@<TRIPOS>MOLECULE
6hu1_ligand
   31    32     1     0     0
SMALL
GAST_HUCK


@<TRIPOS>ATOM
      1 N1         43.4180   36.3290   87.5040 N.am      1 GT2        -0.2314
      2 C2         44.0620   37.4130   88.0110 C.2       1 GT2         0.2329
      3 C3         42.5090   38.8120   91.7410 C.ar      1 GT2         0.0454
      4 C5         44.3240   38.6860   90.2150 C.ar      1 GT2         0.0614
      5 C6         43.5570   37.9270   89.3300 C.ar      1 GT2         0.0697
      6 C8         41.7250   38.0590   90.9020 C.ar      1 GT2        -0.0422
      7 C16        44.8430   33.6300   84.5960 C.ar      1 GT2        -0.0569
      8 C17        45.3920   33.6080   85.8740 C.ar      1 GT2         0.0381
      9 C18        44.9320   34.5160   86.8270 C.ar      1 GT2        -0.0209
     10 C19        43.9290   35.4370   86.5190 C.ar      1 GT2         0.0855
     11 C20        43.4130   35.4400   85.2200 C.ar      1 GT2         0.0641
     12 C21        43.8610   34.5440   84.2690 C.ar      1 GT2        -0.0560
     13 C25        46.4540   32.6140   86.2390 C.2       1 GT2         0.2242
     14 C4         43.8100   39.1320   91.4180 C.ar      1 GT2        -0.0284
     15 C7         42.2520   37.6210   89.7030 C.ar      1 GT2        -0.0408
     16 N26        46.5450   31.5280   85.4760 N.am      1 GT2        -0.1635
     17 O14        45.0160   37.9450   87.4520 O.2       1 GT2        -0.3729
     18 O27        47.5120   30.5610   85.7440 O.3       1 GT2        -0.2719
     19 O28        47.1890   32.8030   87.2030 O.2       1 GT2        -0.3850
     20 CL1        45.9660   39.1020   89.8430 Cl        1 GT2        -0.0648
     21 CL2        41.8390   39.3940   93.2410 Cl        1 GT2        -0.0667
     22 CL3        42.2090   36.6060   84.7670 Cl        1 GT2        -0.0789
     23 H1         42.5008   36.1405   87.8551 H         1 GT2         0.2257
     24 H2         40.7061   37.8117   91.1771 H         1 GT2         0.0635
     25 H3         45.1891   32.9234   83.8503 H         1 GT2         0.0539
     26 H4         45.3600   34.5066   87.8229 H         1 GT2         0.0552
     27 H5         43.4429   34.5583   83.2690 H         1 GT2         0.0594
     28 H6         44.4182   39.7219   92.0941 H         1 GT2         0.0640
     29 H7         41.6359   37.0262   89.0384 H         1 GT2         0.0668
     30 H8         45.9172   31.4051   84.7074 H         1 GT2         0.2213
     31 H9         47.4395   29.8578   85.1094 H         1 GT2         0.2491
@<TRIPOS>BOND
     1    1    2 am 
     2   10    1 1  
     3    2    5 1  
     4    2   17 2  
     5    6    3 ar 
     6   14    3 ar 
     7    3   21 1  
     8    5    4 ar 
     9    4   14 ar 
    10    4   20 1  
    11    5   15 ar 
    12   15    6 ar 
    13    8    7 ar 
    14    7   12 ar 
    15    9    8 ar 
    16    8   13 1  
    17    9   10 ar 
    18   10   11 ar 
    19   11   12 ar 
    20   11   22 1  
    21   13   16 am 
    22   13   19 2  
    23   16   18 1  
    24    1   23 1  
    25    6   24 1  
    26    7   25 1  
    27    9   26 1  
    28   12   27 1  
    29   14   28 1  
    30   15   29 1  
    31   16   30 1  
    32   18   31 1  
@<TRIPOS>SUBSTRUCTURE
     1 GT2         1

