### 
### Created by X-TOOL on Wed Jan  1 15:39:35 2020
### 

@<TRIPOS>MOLECULE
6hu2_ligand
   35    36     1     0     0
SMALL
GAST_HUCK


@<TRIPOS>ATOM
      1 O1         47.1790   30.7940   85.6680 O.3       1 T34        -0.2721
      2 N2         46.4000   31.8790   85.2690 N.am      1 T34        -0.1645
      3 C3         46.2170   32.9100   86.0880 C.2       1 T34         0.2196
      4 O4         46.7740   32.9950   87.1820 O.2       1 T34        -0.3881
      5 C5         45.2590   33.9610   85.6110 C.ar      1 T34         0.0325
      6 C6         44.6960   33.8540   84.3450 C.ar      1 T34        -0.0618
      7 C7         43.7450   34.7620   83.9200 C.ar      1 T34        -0.0659
      8 C8         43.3160   35.8100   84.7320 C.ar      1 T34        -0.0228
      9 C9         43.9050   35.9360   86.0020 C.ar      1 T34         0.0474
     10 C10        44.8670   35.0150   86.4330 C.ar      1 T34        -0.0311
     11 C11        42.2230   36.7410   84.2710 C.3       1 T34        -0.0324
     12 N12        43.5200   36.9800   86.8160 N.pl3     1 T34        -0.3141
     13 C13        44.1040   37.1320   88.1380 C.3       1 T34         0.0563
     14 C14        44.0140   38.5400   88.6660 C.ar      1 T34        -0.0220
     15 C15        45.1220   39.1590   89.2290 C.ar      1 T34        -0.0585
     16 C16        45.0410   40.4550   89.7100 C.ar      1 T34        -0.0685
     17 C17        43.8490   41.1470   89.6390 C.ar      1 T34        -0.0687
     18 C18        42.7380   40.5400   89.0880 C.ar      1 T34        -0.0685
     19 C19        42.8210   39.2470   88.6010 C.ar      1 T34        -0.0585
     20 H1         47.2058   30.1509   84.9693 H         1 T34         0.2491
     21 H2         45.9770   31.8818   84.3628 H         1 T34         0.2211
     22 H3         45.0055   33.0515   83.6853 H         1 T34         0.0541
     23 H4         43.3212   34.6561   82.9279 H         1 T34         0.0533
     24 H5         45.3112   35.1231   87.4159 H         1 T34         0.0541
     25 H6         41.9100   36.4636   83.2536 H         1 T34         0.0374
     26 H7         42.5982   37.7750   84.2700 H         1 T34         0.0374
     27 H8         41.3634   36.6635   84.9530 H         1 T34         0.0374
     28 H9         42.8156   37.6550   86.4858 H         1 T34         0.1759
     29 H10        45.1645   36.8444   88.0873 H         1 T34         0.0672
     30 H11        43.5755   36.4631   88.8331 H         1 T34         0.0672
     31 H12        46.0612   38.6216   89.2927 H         1 T34         0.0557
     32 H13        45.9155   40.9269   90.1431 H         1 T34         0.0599
     33 H14        43.7853   42.1621   90.0140 H         1 T34         0.0559
     34 H15        41.7981   41.0776   89.0367 H         1 T34         0.0599
     35 H16        41.9450   38.7814   88.1641 H         1 T34         0.0557
@<TRIPOS>BOND
     1    1    2 1  
     2    2    3 am 
     3    3    4 2  
     4    3    5 1  
     5    5    6 ar 
     6    5   10 ar 
     7    6    7 ar 
     8    7    8 ar 
     9    8    9 ar 
    10    8   11 1  
    11    9   10 ar 
    12    9   12 1  
    13   12   13 1  
    14   13   14 1  
    15   14   15 ar 
    16   14   19 ar 
    17   15   16 ar 
    18   16   17 ar 
    19   17   18 ar 
    20   18   19 ar 
    21    1   20 1  
    22    2   21 1  
    23    6   22 1  
    24    7   23 1  
    25   10   24 1  
    26   11   25 1  
    27   11   26 1  
    28   11   27 1  
    29   12   28 1  
    30   13   29 1  
    31   13   30 1  
    32   15   31 1  
    33   16   32 1  
    34   17   33 1  
    35   18   34 1  
    36   19   35 1  
@<TRIPOS>SUBSTRUCTURE
     1 T34         1

