### 
### Created by X-TOOL on Wed Jan  1 15:39:35 2020
### 

@<TRIPOS>MOLECULE
6hu3_ligand
   34    36     1     0     0
SMALL
GAST_HUCK


@<TRIPOS>ATOM
      1 C1         44.7590   39.2120   90.4320 C.ar      1 GRZ         0.1210
      2 C2         45.6450   39.4380   89.4120 C.ar      1 GRZ        -0.0360
      3 C3         45.5050   38.7080   88.2450 C.ar      1 GRZ        -0.0302
      4 C4         44.4870   37.7750   88.1300 C.ar      1 GRZ         0.1113
      5 C5         43.6090   37.5630   89.1870 C.ar      1 GRZ        -0.0302
      6 C6         43.7460   38.2930   90.3540 C.ar      1 GRZ        -0.0360
      7 C13        43.2090   37.0250   86.2000 C.ar      1 GRZ         0.1556
      8 C14        43.0740   36.0160   85.2370 C.ar      1 GRZ         0.1584
      9 C15        41.9000   35.9280   84.4990 C.ar      1 GRZ        -0.0158
     10 C16        40.8990   36.8500   84.7220 C.ar      1 GRZ         0.0267
     11 C17        41.0270   37.8540   85.6580 C.ar      1 GRZ        -0.0614
     12 C18        42.1880   37.9410   86.4030 C.ar      1 GRZ        -0.0297
     13 C26        45.7510   33.6740   84.9810 C.2       1 GRZ         0.1367
     14 C27        44.9190   34.3940   85.7940 C.2       1 GRZ         0.1111
     15 C28        46.8010   32.6950   85.3630 C.2       1 GRZ         0.2234
     16 CL1        39.4370   36.7450   83.7880 Cl        1 GRZ        -0.0818
     17 O12        44.3990   37.0640   86.9270 O.3       1 GRZ        -0.2591
     18 N23        44.1320   35.1010   84.9520 N.pl3     1 GRZ        -0.1223
     19 N24        44.4580   34.8350   83.6620 N.2       1 GRZ        -0.0790
     20 N25        45.4470   33.9690   83.6810 N.2       1 GRZ        -0.2071
     21 N29        46.7500   31.5260   84.7230 N.am      1 GRZ        -0.1665
     22 O30        47.7620   30.5870   84.9060 O.3       1 GRZ        -0.2725
     23 O31        47.6320   32.9520   86.2330 O.2       1 GRZ        -0.3962
     24 F1         44.8870   39.9420   91.5730 F         1 GRZ        -0.1923
     25 H1         46.4367   40.1711   89.5166 H         1 GRZ         0.0578
     26 H2         46.1914   38.8659   87.4210 H         1 GRZ         0.0543
     27 H3         42.8184   36.8269   89.0968 H         1 GRZ         0.0543
     28 H4         43.0684   38.1416   91.1864 H         1 GRZ         0.0578
     29 H5         41.7728   35.1462   83.7589 H         1 GRZ         0.0574
     30 H6         40.2253   38.5680   85.8082 H         1 GRZ         0.0548
     31 H7         42.3001   38.7238   87.1445 H         1 GRZ         0.0536
     32 H8         44.8956   34.3970   86.8827 H         1 GRZ         0.1127
     33 H9         45.9849   31.3237   84.1116 H         1 GRZ         0.2204
     34 H10        47.5756   29.8162   84.3829 H         1 GRZ         0.2490
@<TRIPOS>BOND
     1    2    1 ar 
     2    6    1 ar 
     3    1   24 1  
     4    3    2 ar 
     5    4    3 ar 
     6    4    5 ar 
     7   17    4 1  
     8    5    6 ar 
     9    8    7 ar 
    10    7   12 ar 
    11    7   17 1  
    12    8    9 ar 
    13   18    8 1  
    14    9   10 ar 
    15   10   11 ar 
    16   10   16 1  
    17   12   11 ar 
    18   14   13 2  
    19   13   15 1  
    20   13   20 1  
    21   14   18 1  
    22   15   21 am 
    23   15   23 2  
    24   18   19 1  
    25   19   20 2  
    26   21   22 1  
    27    2   25 1  
    28    3   26 1  
    29    5   27 1  
    30    6   28 1  
    31    9   29 1  
    32   11   30 1  
    33   12   31 1  
    34   14   32 1  
    35   21   33 1  
    36   22   34 1  
@<TRIPOS>SUBSTRUCTURE
     1 GRZ         1

