### 
### Created by X-TOOL on Mon Aug  2 16:10:08 2021
### 

@<TRIPOS>MOLECULE
6hub_ligand
   91    92     1     0     0
SMALL
GAST_HUCK


@<TRIPOS>ATOM
      1 C6         58.7830 -134.5810   33.7480 C.3       1 GRW         0.3900
      2 C7         59.9770 -134.8140   34.6170 C.2       1 GRW         0.2613
      3 C10        61.3900 -134.0490   37.2190 C.2       1 GRW         0.2040
      4 C13        62.7150 -135.2350   40.1680 C.2       1 GRW         0.2046
      5 C15        63.7230 -134.9610   42.3090 C.3       1 GRW         0.0521
      6 C17        64.2510 -132.6480   42.5560 C.ar      1 GRW        -0.0475
      7 C20        65.3170 -130.4640   41.2420 C.ar      1 GRW        -0.0054
      8 C21        65.8670 -129.4070   40.5650 C.3       1 GRW        -0.0046
      9 C24        64.9810 -132.8240   41.4100 C.ar      1 GRW        -0.0666
     10 C26        62.0650 -136.3100   43.5200 C.3       1 GRW         0.0677
     11 C28        60.5880 -138.8090   42.4870 C.3       1 GRW         0.0544
     12 C23        65.5090 -131.7320   40.7640 C.ar      1 GRW        -0.0618
     13 N22        65.3620 -128.2230   40.8740 N.4       1 GRW         0.2299
     14 C19        64.5980 -130.2730   42.3900 C.ar      1 GRW        -0.0618
     15 C18        64.0630 -131.3710   43.0420 C.ar      1 GRW        -0.0666
     16 C16        63.7180 -133.7420   43.2110 C.3       1 GRW         0.0009
     17 C25        63.5550 -136.2320   43.1460 C.3       1 GRW        -0.0088
     18 S27        61.3420 -137.9300   43.8330 S.o2      1 GRW        -0.0337
     19 O30        62.4590 -138.8030   44.3330 O.2       1 GRW        -0.1746
     20 O29        60.3200 -137.6980   44.9140 O.2       1 GRW        -0.1746
     21 N14        62.6000 -134.8460   41.4010 N.am      1 GRW        -0.2800
     22 O31        63.7440 -135.6750   39.7190 O.2       1 GRW        -0.3944
     23 C12        61.4870 -135.1060   39.3390 C.3       1 GRW         0.1563
     24 C32        60.6580 -136.3440   39.5530 C.3       1 GRW         0.0924
     25 C14        59.2730 -136.1160   38.9980 C.3       1 GRW        -0.0346
     26 O33        61.2530 -137.3980   38.8550 O.3       1 GRW        -0.3874
     27 N11        61.9040 -134.9990   37.9600 N.am      1 GRW        -0.2613
     28 O39        60.5560 -133.2810   37.6470 O.2       1 GRW        -0.3944
     29 C9         61.8740 -133.9560   35.8030 C.3       1 GRW         0.1314
     30 C40        62.8110 -132.7760   35.7430 C.3       1 GRW        -0.0101
     31 C41        63.6060 -132.8090   34.4620 C.3       1 GRW        -0.0425
     32 C43        64.6280 -133.9070   34.5240 C.3       1 GRW        -0.0625
     33 C42        64.3510 -131.5090   34.3070 C.3       1 GRW        -0.0625
     34 N8         60.7170 -133.7710   34.9380 N.am      1 GRW        -0.2598
     35 O44        60.2150 -135.9310   35.0170 O.2       1 GRW        -0.3892
     36 N51        59.2300 -134.2740   32.4000 N.1       1 GRW         0.1916
     37 N52        59.5420 -133.9970   31.4120 N.1       1 GRW         0.5560
     38 N53        59.8450 -133.7050   30.4450 N.1       1 GRW         0.6769
     39 C54        58.1590 -133.3300   34.2440 C.3       1 GRW         0.0731
     40 C55        56.8570 -133.4600   34.6200 C.ar      1 GRW        -0.0341
     41 C56        55.8040 -133.5110   33.7100 C.ar      1 GRW        -0.0600
     42 C57        54.5100 -133.5920   34.2000 C.ar      1 GRW        -0.0686
     43 C58        54.2810 -133.6380   35.5670 C.ar      1 GRW        -0.0687
     44 C59        55.3490 -133.5960   36.4370 C.ar      1 GRW        -0.0686
     45 C60        56.6300 -133.4980   35.9650 C.ar      1 GRW        -0.0600
     46 H1         58.0906 -135.4355   33.7670 H         1 GRW         0.1463
     47 H2         64.6659 -135.0081   41.7444 H         1 GRW         0.0578
     48 H3         65.7132 -129.5735   39.4886 H         1 GRW         0.0965
     49 H4         66.9451 -129.3858   40.7825 H         1 GRW         0.0965
     50 H5         65.1414 -133.8205   41.0145 H         1 GRW         0.0540
     51 H6         61.4984 -135.8556   42.6939 H         1 GRW         0.0500
     52 H7         61.9272 -135.7110   44.4323 H         1 GRW         0.0500
     53 H8         60.2002 -139.7724   42.8497 H         1 GRW         0.0464
     54 H9         61.3362 -138.9876   41.7007 H         1 GRW         0.0464
     55 H10        59.7604 -138.2117   42.0768 H         1 GRW         0.0464
     56 H11        66.0881 -131.8776   39.8593 H         1 GRW         0.0542
     57 H12        65.8229 -127.5092   40.3316 H         1 GRW         0.2007
     58 H13        65.5037 -128.0430   41.8556 H         1 GRW         0.2007
     59 H14        64.3749 -128.2151   40.6700 H         1 GRW         0.2007
     60 H15        64.4490 -129.2743   42.7843 H         1 GRW         0.0542
     61 H16        63.4873 -131.2247   43.9488 H         1 GRW         0.0540
     62 H17        64.3186 -133.9538   44.1079 H         1 GRW         0.0435
     63 H18        62.6831 -133.5164   43.5076 H         1 GRW         0.0435
     64 H19        64.1729 -136.1742   44.0542 H         1 GRW         0.0305
     65 H20        63.8470 -137.1155   42.5594 H         1 GRW         0.0305
     66 H21        61.7337 -134.4658   41.7251 H         1 GRW         0.1856
     67 H22        60.9133 -134.2137   39.6301 H         1 GRW         0.0826
     68 H23        60.6010 -136.5815   40.6255 H         1 GRW         0.0639
     69 H24        58.6631 -137.0184   39.1521 H         1 GRW         0.0257
     70 H25        59.3404 -135.8984   37.9219 H         1 GRW         0.0257
     71 H26        58.8060 -135.2651   39.5156 H         1 GRW         0.0257
     72 H27        62.1262 -137.5499   39.1970 H         1 GRW         0.2101
     73 H28        62.5721 -135.6378   37.5785 H         1 GRW         0.1884
     74 H29        62.4078 -134.8735   35.5145 H         1 GRW         0.0800
     75 H30        63.5000 -132.8148   36.5996 H         1 GRW         0.0315
     76 H31        62.2265 -131.8450   35.7843 H         1 GRW         0.0315
     77 H32        62.9309 -132.9665   33.6079 H         1 GRW         0.0298
     78 H33        65.2038 -133.9252   33.5869 H         1 GRW         0.0232
     79 H34        64.1204 -134.8731   34.6612 H         1 GRW         0.0232
     80 H35        65.3087 -133.7271   35.3692 H         1 GRW         0.0232
     81 H36        63.6320 -130.6780   34.2578 H         1 GRW         0.0232
     82 H37        64.9452 -131.5350   33.3817 H         1 GRW         0.0232
     83 H38        65.0198 -131.3647   35.1683 H         1 GRW         0.0232
     84 H39        60.4861 -132.8620   34.5910 H         1 GRW         0.1885
     85 H40        58.2119 -132.5783   33.4427 H         1 GRW         0.0520
     86 H41        58.7346 -132.9801   35.1136 H         1 GRW         0.0520
     87 H42        55.9921 -133.4879   32.6427 H         1 GRW         0.0557
     88 H43        53.6731 -133.6195   33.5115 H         1 GRW         0.0599
     89 H44        53.2687 -133.7065   35.9487 H         1 GRW         0.0559
     90 H45        55.1728 -133.6410   37.5056 H         1 GRW         0.0599
     91 H46        57.4622 -133.4507   36.6580 H         1 GRW         0.0557
@<TRIPOS>BOND
     1    2    1 1  
     2    1   36 1  
     3    1   39 1  
     4   34    2 am 
     5    2   35 2  
     6    3   27 am 
     7    3   28 2  
     8   29    3 1  
     9    4   21 am 
    10    4   22 2  
    11   23    4 1  
    12    5   16 1  
    13    5   17 1  
    14   21    5 1  
    15    6    9 ar 
    16    6   15 ar 
    17   16    6 1  
    18    7    8 1  
    19   12    7 ar 
    20   14    7 ar 
    21    8   13 1  
    22    9   12 ar 
    23   17   10 1  
    24   10   18 1  
    25   18   11 1  
    26   15   14 ar 
    27   18   19 2  
    28   18   20 2  
    29   23   24 1  
    30   27   23 1  
    31   24   25 1  
    32   24   26 1  
    33   29   30 1  
    34   29   34 1  
    35   30   31 1  
    36   31   32 1  
    37   31   33 1  
    38   36   37 3  
    39   37   38 3  
    40   39   40 1  
    41   40   41 ar 
    42   40   45 ar 
    43   41   42 ar 
    44   42   43 ar 
    45   43   44 ar 
    46   44   45 ar 
    47    1   46 1  
    48    5   47 1  
    49    8   48 1  
    50    8   49 1  
    51    9   50 1  
    52   10   51 1  
    53   10   52 1  
    54   11   53 1  
    55   11   54 1  
    56   11   55 1  
    57   12   56 1  
    58   13   57 1  
    59   13   58 1  
    60   13   59 1  
    61   14   60 1  
    62   15   61 1  
    63   16   62 1  
    64   16   63 1  
    65   17   64 1  
    66   17   65 1  
    67   21   66 1  
    68   23   67 1  
    69   24   68 1  
    70   25   69 1  
    71   25   70 1  
    72   25   71 1  
    73   26   72 1  
    74   27   73 1  
    75   29   74 1  
    76   30   75 1  
    77   30   76 1  
    78   31   77 1  
    79   32   78 1  
    80   32   79 1  
    81   32   80 1  
    82   33   81 1  
    83   33   82 1  
    84   33   83 1  
    85   34   84 1  
    86   39   85 1  
    87   39   86 1  
    88   41   87 1  
    89   42   88 1  
    90   43   89 1  
    91   44   90 1  
    92   45   91 1  
@<TRIPOS>SUBSTRUCTURE
     1 GRW         1

