### 
### Created by X-TOOL on Mon Aug  2 16:10:08 2021
### 

@<TRIPOS>MOLECULE
6huc_ligand
   84    85     1     0     0
SMALL
GAST_HUCK


@<TRIPOS>ATOM
      1 C4         55.6780 -132.9270   35.1370 C.ar      1 GRT        -0.0600
      2 C5         54.4000 -132.5090   34.7680 C.ar      1 GRT        -0.0686
      3 C6         53.7410 -133.1050   33.6920 C.ar      1 GRT        -0.0687
      4 C7         57.5890 -134.3760   34.8030 C.3       1 GRT         0.0575
      5 C8         58.6410 -134.2440   33.6890 C.3       1 GRT         0.3131
      6 C15        61.9360 -133.9160   35.4780 C.3       1 GRT         0.1313
      7 C17        63.6700 -132.8660   33.9990 C.3       1 GRT        -0.0425
      8 C28        61.4620 -135.2040   38.9970 C.3       1 GRT         0.1200
      9 C39        64.8090 -132.5560   40.8320 C.ar      1 GRT        -0.0666
     10 C40        65.3600 -131.4300   40.2460 C.ar      1 GRT        -0.0618
     11 C41        65.4010 -130.2250   40.9290 C.ar      1 GRT        -0.0054
     12 C44        65.9910 -129.1320   40.2990 C.3       1 GRT        -0.0046
     13 N45        65.1800 -127.9310   40.3490 N.4       1 GRT         0.2299
     14 C42        64.8820 -130.1560   42.2270 C.ar      1 GRT        -0.0618
     15 C43        64.3160 -131.2900   42.8140 C.ar      1 GRT        -0.0666
     16 C38        64.2690 -132.5170   42.1350 C.ar      1 GRT        -0.0475
     17 C37        63.6910 -133.5950   42.8120 C.3       1 GRT         0.0009
     18 C36        63.7200 -134.9080   41.9570 C.3       1 GRT         0.0521
     19 C46        63.4860 -136.2290   42.7310 C.3       1 GRT        -0.0088
     20 C47        61.9900 -136.3890   43.1220 C.3       1 GRT         0.0677
     21 S48        61.4320 -138.1120   43.3490 S.o2      1 GRT        -0.0337
     22 O49        59.9480 -138.1030   43.6900 O.2       1 GRT        -0.1746
     23 O50        62.1400 -138.7110   44.5380 O.2       1 GRT        -0.1746
     24 C51        61.6880 -139.1370   41.9120 C.3       1 GRT         0.0544
     25 N35        62.6670 -134.7950   40.9540 N.am      1 GRT        -0.2804
     26 C33        62.7060 -135.4280   39.7900 C.2       1 GRT         0.1989
     27 O34        63.6400 -136.1200   39.3810 O.2       1 GRT        -0.3948
     28 N27        61.9080 -134.9670   37.6300 N.am      1 GRT        -0.2664
     29 C25        61.3960 -133.9870   36.8940 C.2       1 GRT         0.2037
     30 O26        60.4930 -133.2300   37.2640 O.2       1 GRT        -0.3944
     31 C16        62.9900 -132.8170   35.3730 C.3       1 GRT        -0.0101
     32 C19        64.5000 -134.1520   33.8450 C.3       1 GRT        -0.0625
     33 C18        64.5640 -131.6380   33.8230 C.3       1 GRT        -0.0625
     34 N14        60.7400 -133.6350   34.6950 N.am      1 GRT        -0.2609
     35 C12        59.9270 -134.6390   34.3600 C.2       1 GRT         0.2449
     36 O13        60.1390 -135.8220   34.6230 O.2       1 GRT        -0.3906
     37 N9         58.4080 -135.1890   32.5930 N.2       1 GRT         0.1934
     38 N10        58.6180 -134.7210   31.3490 N.1       1 GRT         0.1323
     39 N11        58.8340 -134.2260   30.1150 N.1       1 GRT         0.2336
     40 C3         56.3140 -133.9470   34.4240 C.ar      1 GRT        -0.0354
     41 C1         54.3630 -134.1300   32.9790 C.ar      1 GRT        -0.0686
     42 C2         55.6400 -134.5510   33.3550 C.ar      1 GRT        -0.0600
     43 H1         56.1787 -132.4604   35.9776 H         1 GRT         0.0557
     44 H2         53.9140 -131.7140   35.3219 H         1 GRT         0.0599
     45 H3         52.7483 -132.7723   33.4109 H         1 GRT         0.0559
     46 H4         57.9166 -133.7741   35.6634 H         1 GRT         0.0506
     47 H5         57.5262 -135.4338   35.0981 H         1 GRT         0.0506
     48 H6         58.6781 -133.2147   33.3027 H         1 GRT         0.1271
     49 H7         62.3820 -134.8742   35.1733 H         1 GRT         0.0800
     50 H8         62.8931 -132.8543   33.2203 H         1 GRT         0.0298
     51 H9         60.9146 -134.3299   39.3795 H         1 GRT         0.0763
     52 H10        60.8132 -136.0912   39.0411 H         1 GRT         0.0763
     53 H11        64.7919 -133.4878   40.2783 H         1 GRT         0.0540
     54 H12        65.7639 -131.4912   39.2419 H         1 GRT         0.0542
     55 H13        66.1664 -129.3904   39.2443 H         1 GRT         0.0965
     56 H14        66.9528 -128.9238   40.7904 H         1 GRT         0.0965
     57 H15        65.6611 -127.1809   39.8779 H         1 GRT         0.2007
     58 H16        65.0179 -127.6748   41.3103 H         1 GRT         0.2007
     59 H17        64.2973 -128.1024   39.8935 H         1 GRT         0.2007
     60 H18        64.9193 -129.2225   42.7767 H         1 GRT         0.0542
     61 H19        63.9047 -131.2207   43.8145 H         1 GRT         0.0540
     62 H20        62.6454 -133.3474   43.0473 H         1 GRT         0.0435
     63 H21        64.2462 -133.7669   43.7459 H         1 GRT         0.0435
     64 H22        64.7006 -134.9720   41.4627 H         1 GRT         0.0578
     65 H23        64.0979 -136.2234   43.6451 H         1 GRT         0.0305
     66 H24        63.7840 -137.0758   42.0954 H         1 GRT         0.0305
     67 H25        61.3793 -135.9344   42.3281 H         1 GRT         0.0500
     68 H26        61.8245 -135.8496   44.0663 H         1 GRT         0.0500
     69 H27        61.3303 -140.1562   42.1202 H         1 GRT         0.0464
     70 H28        62.7605 -139.1673   41.6695 H         1 GRT         0.0464
     71 H29        61.1310 -138.7198   41.0601 H         1 GRT         0.0464
     72 H30        61.8789 -134.2128   41.1538 H         1 GRT         0.1856
     73 H31        62.6151 -135.5551   37.2374 H         1 GRT         0.1881
     74 H32        63.7464 -132.9625   36.1583 H         1 GRT         0.0315
     75 H33        62.5079 -131.8371   35.5052 H         1 GRT         0.0315
     76 H34        64.9769 -134.1641   32.8538 H         1 GRT         0.0232
     77 H35        63.8418 -135.0275   33.9459 H         1 GRT         0.0232
     78 H36        65.2749 -134.1839   34.6251 H         1 GRT         0.0232
     79 H37        63.9599 -130.7256   33.9352 H         1 GRT         0.0232
     80 H38        65.0186 -131.6559   32.8215 H         1 GRT         0.0232
     81 H39        65.3565 -131.6490   34.5857 H         1 GRT         0.0232
     82 H40        60.5303 -132.6993   34.4114 H         1 GRT         0.1884
     83 H41        53.8590 -134.5958   32.1399 H         1 GRT         0.0599
     84 H42        56.1174 -135.3580   32.8110 H         1 GRT         0.0557
@<TRIPOS>BOND
     1    1    2 ar 
     2   40    1 ar 
     3    2    3 ar 
     4    3   41 ar 
     5    5    4 1  
     6    4   40 1  
     7   35    5 1  
     8    5   37 1  
     9    6   29 1  
    10    6   31 1  
    11   34    6 1  
    12   31    7 1  
    13    7   32 1  
    14    7   33 1  
    15    8   26 1  
    16   28    8 1  
    17    9   10 ar 
    18   16    9 ar 
    19   10   11 ar 
    20   11   12 1  
    21   14   11 ar 
    22   12   13 1  
    23   15   14 ar 
    24   16   15 ar 
    25   17   16 1  
    26   18   17 1  
    27   18   19 1  
    28   25   18 1  
    29   19   20 1  
    30   20   21 1  
    31   21   22 2  
    32   21   23 2  
    33   21   24 1  
    34   26   25 am 
    35   26   27 2  
    36   29   28 am 
    37   29   30 2  
    38   34   35 am 
    39   35   36 2  
    40   37   38 2  
    41   38   39 3  
    42   40   42 ar 
    43   41   42 ar 
    44    1   43 1  
    45    2   44 1  
    46    3   45 1  
    47    4   46 1  
    48    4   47 1  
    49    5   48 1  
    50    6   49 1  
    51    7   50 1  
    52    8   51 1  
    53    8   52 1  
    54    9   53 1  
    55   10   54 1  
    56   12   55 1  
    57   12   56 1  
    58   13   57 1  
    59   13   58 1  
    60   13   59 1  
    61   14   60 1  
    62   15   61 1  
    63   17   62 1  
    64   17   63 1  
    65   18   64 1  
    66   19   65 1  
    67   19   66 1  
    68   20   67 1  
    69   20   68 1  
    70   24   69 1  
    71   24   70 1  
    72   24   71 1  
    73   25   72 1  
    74   28   73 1  
    75   31   74 1  
    76   31   75 1  
    77   32   76 1  
    78   32   77 1  
    79   32   78 1  
    80   33   79 1  
    81   33   80 1  
    82   33   81 1  
    83   34   82 1  
    84   41   83 1  
    85   42   84 1  
@<TRIPOS>SUBSTRUCTURE
     1 GRT         1

