### 
### Created by X-TOOL on Mon Aug  2 16:10:09 2021
### 

@<TRIPOS>MOLECULE
6huq_ligand
   82    83     1     0     0
SMALL
GAST_HUCK


@<TRIPOS>ATOM
      1 C4         55.3190 -133.2070   32.9480 C.3       1 GT5         0.0097
      2 C6         58.8590 -134.6940   33.2830 C.2       1 GT5         0.1120
      3 C7         60.0900 -134.8460   33.7540 C.2       1 GT5         0.2069
      4 C10        61.5690 -133.7180   36.5990 C.2       1 GT5         0.2038
      5 C13        63.2330 -135.1070   39.5500 C.2       1 GT5         0.2043
      6 C15        64.1890 -134.7390   41.7990 C.3       1 GT5         0.0521
      7 C17        64.7560 -132.3080   41.9560 C.ar      1 GT5        -0.0475
      8 C20        65.8560 -130.0070   40.7510 C.ar      1 GT5        -0.0054
      9 C21        66.4230 -128.8950   40.1220 C.3       1 GT5        -0.0046
     10 C24        65.3870 -132.3700   40.6980 C.ar      1 GT5        -0.0666
     11 C26        62.4530 -136.1140   43.0450 C.3       1 GT5         0.0677
     12 C28        62.0300 -138.9610   42.0680 C.3       1 GT5         0.0544
     13 C3         56.6530 -133.9510   32.8990 C.2       1 GT5         0.0962
     14 S5         57.9020 -133.5180   33.8670 S.3       1 GT5         0.0124
     15 N2         56.9720 -135.0050   32.1220 N.2       1 GT5        -0.3095
     16 C1         58.2320 -135.4310   32.3430 C.2       1 GT5        -0.0031
     17 O44        60.7010 -135.9070   33.6120 O.2       1 GT5        -0.3934
     18 N8         60.5230 -133.7980   34.4760 N.am      1 GT5        -0.2673
     19 C9         61.8310 -133.7840   35.1080 C.3       1 GT5         0.1302
     20 C40        62.5690 -132.5740   34.5540 C.3       1 GT5        -0.0102
     21 C41        64.0750 -132.5610   34.8810 C.3       1 GT5        -0.0425
     22 C43        64.6780 -131.2870   34.2610 C.3       1 GT5        -0.0625
     23 C42        64.7840 -133.8080   34.3250 C.3       1 GT5        -0.0625
     24 O39        60.7830 -132.8870   37.0620 O.2       1 GT5        -0.3944
     25 N11        62.2110 -134.6660   37.3030 N.am      1 GT5        -0.2616
     26 C12        61.9700 -134.8650   38.7260 C.3       1 GT5         0.1540
     27 C32        61.0990 -136.1260   38.7490 C.3       1 GT5         0.0874
     28 O36        60.7500 -136.5150   40.0880 O.3       1 GT5        -0.3783
     29 C34        59.5500 -137.3160   40.1290 C.3       1 GT5         0.0367
     30 O31        64.1850 -135.7500   39.1100 O.2       1 GT5        -0.3944
     31 N14        63.1410 -134.5980   40.7800 N.am      1 GT5        -0.2800
     32 C25        63.9480 -136.0110   42.6530 C.3       1 GT5        -0.0088
     33 S27        61.8160 -137.7870   43.3900 S.o2      1 GT5        -0.0337
     34 O29        60.3170 -137.6470   43.6270 O.2       1 GT5        -0.1746
     35 O30        62.4410 -138.3130   44.6630 O.2       1 GT5        -0.1746
     36 C16        64.1970 -133.4180   42.6280 C.3       1 GT5         0.0009
     37 C18        64.6960 -131.0670   42.6010 C.ar      1 GT5        -0.0666
     38 C19        65.2410 -129.9240   42.0100 C.ar      1 GT5        -0.0618
     39 N22        65.5380 -127.7350   40.1130 N.4       1 GT5         0.2299
     40 C23        65.9240 -131.2370   40.1060 C.ar      1 GT5        -0.0618
     41 H1         54.6228 -133.6545   32.2234 H         1 GT5         0.0500
     42 H2         55.4800 -132.1484   32.6961 H         1 GT5         0.0500
     43 H3         54.8939 -133.2826   33.9597 H         1 GT5         0.0500
     44 H4         65.1646 -134.8461   41.3023 H         1 GT5         0.0578
     45 H5         66.6605 -129.1632   39.0820 H         1 GT5         0.0965
     46 H6         67.3487 -128.6261   40.6519 H         1 GT5         0.0965
     47 H7         65.4540 -133.3215   40.1831 H         1 GT5         0.0540
     48 H8         61.8610 -135.6950   42.2180 H         1 GT5         0.0500
     49 H9         62.3019 -135.5059   43.9491 H         1 GT5         0.0500
     50 H10        61.6162 -139.9340   42.3712 H         1 GT5         0.0464
     51 H11        63.1016 -139.0716   41.8457 H         1 GT5         0.0464
     52 H12        61.5044 -138.6026   41.1706 H         1 GT5         0.0464
     53 H13        58.6899 -136.2715   31.8236 H         1 GT5         0.0669
     54 H14        59.9258 -133.0028   34.5814 H         1 GT5         0.1867
     55 H15        62.3959 -134.6979   34.8720 H         1 GT5         0.0798
     56 H16        62.1143 -131.6664   34.9777 H         1 GT5         0.0315
     57 H17        62.4515 -132.5668   33.4603 H         1 GT5         0.0315
     58 H18        64.2082 -132.5363   35.9726 H         1 GT5         0.0298
     59 H19        65.7557 -131.2485   34.4777 H         1 GT5         0.0232
     60 H20        64.1858 -130.4019   34.6904 H         1 GT5         0.0232
     61 H21        64.5233 -131.3005   33.1720 H         1 GT5         0.0232
     62 H22        64.3449 -134.7106   34.7749 H         1 GT5         0.0232
     63 H23        65.8553 -133.7604   34.5698 H         1 GT5         0.0232
     64 H24        64.6587 -133.8447   33.2328 H         1 GT5         0.0232
     65 H25        62.8735 -135.2519   36.8364 H         1 GT5         0.1884
     66 H26        61.4316 -134.0016   39.1440 H         1 GT5         0.0823
     67 H27        61.6526 -136.9488   38.2731 H         1 GT5         0.0608
     68 H28        60.1757 -135.9303   38.1840 H         1 GT5         0.0608
     69 H29        59.3257 -137.5873   41.1712 H         1 GT5         0.0524
     70 H30        59.6990 -138.2304   39.5360 H         1 GT5         0.0524
     71 H31        58.7107 -136.7407   39.7112 H         1 GT5         0.0524
     72 H32        62.3126 -134.0925   41.0213 H         1 GT5         0.1856
     73 H33        64.5604 -135.9581   43.5652 H         1 GT5         0.0305
     74 H34        64.2334 -136.8995   42.0707 H         1 GT5         0.0305
     75 H35        64.7776 -133.5919   43.5459 H         1 GT5         0.0435
     76 H36        63.1580 -133.1720   42.8924 H         1 GT5         0.0435
     77 H37        64.2203 -130.9917   43.5721 H         1 GT5         0.0540
     78 H38        65.1887 -128.9715   42.5248 H         1 GT5         0.0542
     79 H39        65.9963 -126.9663   39.6491 H         1 GT5         0.2007
     80 H40        65.3185 -127.4725   41.0611 H         1 GT5         0.2007
     81 H41        64.6879 -127.9647   39.6225 H         1 GT5         0.2007
     82 H42        66.3996 -131.3105   39.1347 H         1 GT5         0.0542
@<TRIPOS>BOND
     1   13    1 1  
     2    3    2 1  
     3    2   14 1  
     4    2   16 2  
     5    3   17 2  
     6   18    3 am 
     7    4   19 1  
     8    4   24 2  
     9   25    4 am 
    10   26    5 1  
    11    5   30 2  
    12    5   31 am 
    13   31    6 1  
    14    6   32 1  
    15    6   36 1  
    16    7   10 ar 
    17   36    7 1  
    18    7   37 ar 
    19    8    9 1  
    20    8   38 ar 
    21   40    8 ar 
    22    9   39 1  
    23   10   40 ar 
    24   32   11 1  
    25   11   33 1  
    26   33   12 1  
    27   14   13 1  
    28   15   13 2  
    29   16   15 1  
    30   19   18 1  
    31   19   20 1  
    32   20   21 1  
    33   21   22 1  
    34   21   23 1  
    35   25   26 1  
    36   26   27 1  
    37   27   28 1  
    38   28   29 1  
    39   33   34 2  
    40   33   35 2  
    41   37   38 ar 
    42    1   41 1  
    43    1   42 1  
    44    1   43 1  
    45    6   44 1  
    46    9   45 1  
    47    9   46 1  
    48   10   47 1  
    49   11   48 1  
    50   11   49 1  
    51   12   50 1  
    52   12   51 1  
    53   12   52 1  
    54   16   53 1  
    55   18   54 1  
    56   19   55 1  
    57   20   56 1  
    58   20   57 1  
    59   21   58 1  
    60   22   59 1  
    61   22   60 1  
    62   22   61 1  
    63   23   62 1  
    64   23   63 1  
    65   23   64 1  
    66   25   65 1  
    67   26   66 1  
    68   27   67 1  
    69   27   68 1  
    70   29   69 1  
    71   29   70 1  
    72   29   71 1  
    73   31   72 1  
    74   32   73 1  
    75   32   74 1  
    76   36   75 1  
    77   36   76 1  
    78   37   77 1  
    79   38   78 1  
    80   39   79 1  
    81   39   80 1  
    82   39   81 1  
    83   40   82 1  
@<TRIPOS>SUBSTRUCTURE
     1 GT5         1

