### 
### Created by X-TOOL on Mon Aug  2 16:10:09 2021
### 

@<TRIPOS>MOLECULE
6huu_ligand
   94    96     1     0     0
SMALL
GAST_HUCK


@<TRIPOS>ATOM
      1 C4         55.1230 -133.1870   33.3310 C.3       1 GTW         0.0097
      2 C6         58.5970 -134.8060   33.9270 C.2       1 GTW         0.1120
      3 C7         59.8160 -134.9690   34.4540 C.2       1 GTW         0.2069
      4 C10        61.3450 -133.9720   37.0740 C.2       1 GTW         0.2038
      5 C13        62.8400 -135.3020   39.9130 C.2       1 GTW         0.2020
      6 C15        63.8220 -134.9680   42.1600 C.3       1 GTW         0.0521
      7 C17        64.4870 -132.5740   42.2000 C.ar      1 GTW        -0.0475
      8 C20        65.7600 -130.3900   40.9450 C.ar      1 GTW        -0.0054
      9 C21        66.4140 -129.3370   40.2970 C.3       1 GTW        -0.0046
     10 C24        65.2500 -132.7460   41.0310 C.ar      1 GTW        -0.0666
     11 C26        62.2600 -136.3240   43.6520 C.3       1 GTW         0.0677
     12 C28        62.3840 -139.2610   42.5920 C.3       1 GTW         0.0544
     13 C3         56.4150 -133.9990   33.4100 C.2       1 GTW         0.0962
     14 S5         57.6120 -133.5070   34.3440 S.3       1 GTW         0.0124
     15 N2         56.7210 -135.1490   32.7630 N.2       1 GTW        -0.3095
     16 C1         57.9540 -135.6120   33.0610 C.2       1 GTW        -0.0031
     17 O44        60.2970 -136.0940   34.6030 O.2       1 GTW        -0.3934
     18 N8         60.4070 -133.8430   34.8920 N.am      1 GTW        -0.2673
     19 C9         61.6870 -133.9060   35.5860 C.3       1 GTW         0.1302
     20 C40        62.5290 -132.6590   35.2950 C.3       1 GTW        -0.0102
     21 C41        63.9770 -133.0990   34.9530 C.3       1 GTW        -0.0425
     22 C42        64.1070 -133.3760   33.4400 C.3       1 GTW        -0.0625
     23 C43        64.9910 -132.0190   35.3620 C.3       1 GTW        -0.0625
     24 O39        60.6650 -133.0810   37.5900 O.2       1 GTW        -0.3944
     25 N11        61.7880 -135.0580   37.7240 N.am      1 GTW        -0.2637
     26 C12        61.5310 -135.2540   39.1590 C.3       1 GTW         0.1311
     27 C32        60.8710 -136.5990   39.4550 C.3       1 GTW        -0.0096
     28 C33        59.5830 -136.8370   38.6760 C.3       1 GTW        -0.0368
     29 C38        59.0560 -138.1690   39.1610 C.3       1 GTW        -0.0500
     30 C37        57.8240 -138.5500   38.2940 C.3       1 GTW        -0.0528
     31 C36        56.7360 -137.5060   38.5030 C.3       1 GTW        -0.0530
     32 C35        57.3110 -136.1770   38.0970 C.3       1 GTW        -0.0528
     33 C34        58.5170 -135.7890   38.9170 C.3       1 GTW        -0.0500
     34 O31        63.8700 -135.7120   39.3810 O.2       1 GTW        -0.3945
     35 N14        62.7100 -134.9480   41.1900 N.am      1 GTW        -0.2801
     36 C25        63.7010 -136.1910   43.1040 C.3       1 GTW        -0.0088
     37 S27        61.5170 -137.9870   43.5150 S.o2      1 GTW        -0.0337
     38 O30        61.3250 -138.4530   44.9480 O.2       1 GTW        -0.1746
     39 O29        60.1670 -137.8150   42.8190 O.2       1 GTW        -0.1746
     40 C16        63.8290 -133.6090   42.8990 C.3       1 GTW         0.0009
     41 C23        65.8710 -131.6700   40.4150 C.ar      1 GTW        -0.0618
     42 N22        65.5730 -128.1460   40.1480 N.4       1 GTW         0.2299
     43 C19        65.0130 -130.2040   42.1180 C.ar      1 GTW        -0.0618
     44 C18        64.3810 -131.2870   42.7330 C.ar      1 GTW        -0.0666
     45 H1         54.4216 -133.6802   32.6420 H         1 GTW         0.0500
     46 H2         55.3478 -132.1750   32.9631 H         1 GTW         0.0500
     47 H3         54.6695 -133.1213   34.3310 H         1 GTW         0.0500
     48 H4         64.7700 -135.0643   41.6104 H         1 GTW         0.0578
     49 H5         66.7204 -129.6771   39.2968 H         1 GTW         0.0965
     50 H6         67.3057 -129.0656   40.8812 H         1 GTW         0.0965
     51 H7         65.3544 -133.7369   40.6042 H         1 GTW         0.0540
     52 H8         61.6206 -135.6206   43.0985 H         1 GTW         0.0500
     53 H9         62.2751 -136.0463   44.7162 H         1 GTW         0.0500
     54 H10        61.7979 -140.1916   42.6124 H         1 GTW         0.0464
     55 H11        63.3691 -139.4381   43.0482 H         1 GTW         0.0464
     56 H12        62.5159 -138.9335   41.5502 H         1 GTW         0.0464
     57 H13        58.3775 -136.5274   32.6502 H         1 GTW         0.0669
     58 H14        59.9660 -132.9583   34.7407 H         1 GTW         0.1867
     59 H15        62.2441 -134.8034   35.2789 H         1 GTW         0.0798
     60 H16        62.5408 -132.0065   36.1805 H         1 GTW         0.0315
     61 H17        62.0980 -132.1130   34.4429 H         1 GTW         0.0315
     62 H18        64.2024 -134.0232   35.5053 H         1 GTW         0.0298
     63 H19        65.1371 -133.6867   33.2113 H         1 GTW         0.0232
     64 H20        63.8665 -132.4616   32.8778 H         1 GTW         0.0232
     65 H21        63.4101 -134.1771   33.1527 H         1 GTW         0.0232
     66 H22        64.9000 -131.8201   36.4400 H         1 GTW         0.0232
     67 H23        64.7892 -131.0950   34.8004 H         1 GTW         0.0232
     68 H24        66.0096 -132.3689   35.1385 H         1 GTW         0.0232
     69 H25        62.3052 -135.7508   37.2214 H         1 GTW         0.1883
     70 H26        60.8995 -134.4322   39.5276 H         1 GTW         0.0800
     71 H27        60.6395 -136.6427   40.5295 H         1 GTW         0.0315
     72 H28        61.5828 -137.3981   39.2005 H         1 GTW         0.0315
     73 H29        59.8074 -136.8773   37.5999 H         1 GTW         0.0303
     74 H30        58.7576 -138.0891   40.2167 H         1 GTW         0.0268
     75 H31        59.8359 -138.9378   39.0575 H         1 GTW         0.0268
     76 H32        57.4503 -139.5392   38.5969 H         1 GTW         0.0265
     77 H33        58.1124 -138.5761   37.2328 H         1 GTW         0.0265
     78 H34        56.4371 -137.4798   39.5613 H         1 GTW         0.0265
     79 H35        55.8608 -137.7439   37.8806 H         1 GTW         0.0265
     80 H36        56.5371 -135.4055   38.2228 H         1 GTW         0.0265
     81 H37        57.6073 -136.2302   37.0390 H         1 GTW         0.0265
     82 H38        58.8833 -134.8005   38.6028 H         1 GTW         0.0268
     83 H39        58.2526 -135.7598   39.9843 H         1 GTW         0.0268
     84 H40        61.8096 -134.6524   41.5092 H         1 GTW         0.1856
     85 H41        64.3968 -136.0659   43.9467 H         1 GTW         0.0305
     86 H42        63.9602 -137.1033   42.5468 H         1 GTW         0.0305
     87 H43        64.3324 -133.7455   43.8675 H         1 GTW         0.0435
     88 H44        62.7861 -133.3026   43.0677 H         1 GTW         0.0435
     89 H45        66.4485 -131.8287   39.5115 H         1 GTW         0.0542
     90 H46        66.0943 -127.4235   39.6766 H         1 GTW         0.2007
     91 H47        65.2913 -127.8175   41.0584 H         1 GTW         0.2007
     92 H48        64.7550 -128.3778   39.6065 H         1 GTW         0.2007
     93 H49        64.9258 -129.2135   42.5496 H         1 GTW         0.0542
     94 H50        63.8012 -131.1270   43.6348 H         1 GTW         0.0540
@<TRIPOS>BOND
     1   13    1 1  
     2    3    2 1  
     3    2   14 1  
     4    2   16 2  
     5    3   17 2  
     6   18    3 am 
     7    4   19 1  
     8    4   24 2  
     9   25    4 am 
    10   26    5 1  
    11    5   34 2  
    12    5   35 am 
    13   35    6 1  
    14    6   36 1  
    15    6   40 1  
    16    7   10 ar 
    17   40    7 1  
    18    7   44 ar 
    19    8    9 1  
    20   41    8 ar 
    21    8   43 ar 
    22    9   42 1  
    23   10   41 ar 
    24   36   11 1  
    25   11   37 1  
    26   37   12 1  
    27   14   13 1  
    28   15   13 2  
    29   16   15 1  
    30   19   18 1  
    31   19   20 1  
    32   20   21 1  
    33   21   22 1  
    34   21   23 1  
    35   25   26 1  
    36   26   27 1  
    37   27   28 1  
    38   28   29 1  
    39   28   33 1  
    40   29   30 1  
    41   30   31 1  
    42   31   32 1  
    43   32   33 1  
    44   37   38 2  
    45   37   39 2  
    46   43   44 ar 
    47    1   45 1  
    48    1   46 1  
    49    1   47 1  
    50    6   48 1  
    51    9   49 1  
    52    9   50 1  
    53   10   51 1  
    54   11   52 1  
    55   11   53 1  
    56   12   54 1  
    57   12   55 1  
    58   12   56 1  
    59   16   57 1  
    60   18   58 1  
    61   19   59 1  
    62   20   60 1  
    63   20   61 1  
    64   21   62 1  
    65   22   63 1  
    66   22   64 1  
    67   22   65 1  
    68   23   66 1  
    69   23   67 1  
    70   23   68 1  
    71   25   69 1  
    72   26   70 1  
    73   27   71 1  
    74   27   72 1  
    75   28   73 1  
    76   29   74 1  
    77   29   75 1  
    78   30   76 1  
    79   30   77 1  
    80   31   78 1  
    81   31   79 1  
    82   32   80 1  
    83   32   81 1  
    84   33   82 1  
    85   33   83 1  
    86   35   84 1  
    87   36   85 1  
    88   36   86 1  
    89   40   87 1  
    90   40   88 1  
    91   41   89 1  
    92   42   90 1  
    93   42   91 1  
    94   42   92 1  
    95   43   93 1  
    96   44   94 1  
@<TRIPOS>SUBSTRUCTURE
     1 GTW         1

