### 
### Created by X-TOOL on Mon Aug  2 16:10:10 2021
### 

@<TRIPOS>MOLECULE
6huv_ligand
   96    98     1     0     0
SMALL
GAST_HUCK


@<TRIPOS>ATOM
      1 C4         64.2570 -130.9660   43.1310 C.3       1 GT8        -0.0502
      2 C5         64.1430 -129.4790   42.8420 C.3       1 GT8        -0.0528
      3 C6         65.4070 -129.0570   42.1000 C.3       1 GT8        -0.0530
      4 C7         63.6540 -134.0120   42.6830 C.3       1 GT8        -0.0271
      5 C8         63.6290 -135.4450   42.0990 C.3       1 GT8         0.0706
      6 C10        64.2200 -138.2340   41.2660 C.3       1 GT8        -0.0338
      7 C24        61.3340 -135.4810   39.0100 C.3       1 GT8         0.1389
      8 C26        61.1420 -134.2560   36.8360 C.2       1 GT8         0.2037
      9 C2         65.4540 -131.1130   40.8720 C.3       1 GT8        -0.0502
     10 C1         65.3170 -129.6390   40.7110 C.3       1 GT8        -0.0528
     11 C3         64.3490 -131.7220   41.7500 C.3       1 GT8        -0.0410
     12 C50        64.7160 -133.2020   41.9200 C.3       1 GT8        -0.0480
     13 C9         63.5800 -136.5440   43.2080 C.3       1 GT8         0.1061
     14 O21        62.4240 -136.2690   44.0400 O.3       1 GT8        -0.3867
     15 C11        63.9410 -139.2520   43.5730 C.3       1 GT8        -0.0338
     16 C12        63.4540 -138.0480   42.6220 C.3       1 GT8         0.0884
     17 O13        62.0550 -138.2840   42.3330 O.3       1 GT8        -0.3865
     18 N22        62.4870 -135.4790   41.1590 N.am      1 GT8        -0.2793
     19 C23        62.6520 -135.4920   39.8150 C.2       1 GT8         0.2038
     20 O49        63.7490 -135.5520   39.2420 O.2       1 GT8        -0.3944
     21 C40        60.6190 -136.8330   39.2020 C.3       1 GT8         0.0163
     22 C41        59.2660 -136.7700   38.8440 C.ar      1 GT8        -0.0493
     23 C48        58.8990 -136.9870   37.5130 C.ar      1 GT8        -0.0685
     24 C47        57.5550 -136.9430   37.1450 C.ar      1 GT8        -0.0396
     25 C44        56.5500 -136.6870   38.0900 C.ar      1 GT8         0.0837
     26 O45        55.2530 -136.6540   37.6130 O.3       1 GT8        -0.3257
     27 C46        54.0670 -136.8440   38.4110 C.3       1 GT8         0.0579
     28 C43        56.9250 -136.4630   39.4300 C.ar      1 GT8        -0.0396
     29 C42        58.2740 -136.5140   39.8030 C.ar      1 GT8        -0.0685
     30 N25        61.6640 -135.2490   37.5860 N.am      1 GT8        -0.2621
     31 O39        60.2910 -133.4490   37.2260 O.2       1 GT8        -0.3944
     32 C27        61.6740 -134.2080   35.3810 C.3       1 GT8         0.1283
     33 C38        62.8340 -133.2070   35.2420 C.3       1 GT8        -0.0244
     34 N28        60.5430 -133.8520   34.5010 N.am      1 GT8        -0.2615
     35 C29        59.8310 -134.8020   33.8670 C.2       1 GT8         0.2238
     36 O37        60.0460 -136.0130   33.9540 O.2       1 GT8        -0.3910
     37 C30        58.6300 -134.2940   33.0580 C.3       1 GT8         0.0582
     38 N31        57.4640 -134.2440   33.9810 N.4       1 GT8         0.2552
     39 C36        56.5300 -135.3480   33.7220 C.3       1 GT8        -0.0060
     40 C35        55.4420 -135.1930   34.8020 C.3       1 GT8         0.0878
     41 O34        54.7070 -133.9570   34.5990 O.3       1 GT8        -0.3693
     42 C33        55.5390 -132.7880   34.7910 C.3       1 GT8         0.0878
     43 C32        56.8400 -132.9120   34.0400 C.3       1 GT8        -0.0060
     44 H1         63.3710 -131.3080   43.6860 H         1 GT8         0.0268
     45 H2         65.1610 -131.1630   43.7259 H         1 GT8         0.0268
     46 H3         64.0565 -128.9189   43.7847 H         1 GT8         0.0265
     47 H4         63.2586 -129.2846   42.2175 H         1 GT8         0.0265
     48 H5         66.2964 -129.4472   42.6163 H         1 GT8         0.0265
     49 H6         65.4656 -127.9599   42.0469 H         1 GT8         0.0265
     50 H7         63.9110 -134.0497   43.7519 H         1 GT8         0.0288
     51 H8         62.6672 -133.5420   42.5595 H         1 GT8         0.0288
     52 H9         64.5535 -135.6074   41.5255 H         1 GT8         0.0582
     53 H10        64.1003 -139.2701   40.9164 H         1 GT8         0.0258
     54 H11        65.2883 -138.0187   41.4158 H         1 GT8         0.0258
     55 H12        63.8087 -137.5437   40.5148 H         1 GT8         0.0258
     56 H13        60.6825 -134.6715   39.3708 H         1 GT8         0.0821
     57 H14        66.4286 -131.3268   41.3351 H         1 GT8         0.0268
     58 H15        65.4102 -131.5807   39.8774 H         1 GT8         0.0268
     59 H16        66.1277 -129.2469   40.0794 H         1 GT8         0.0265
     60 H17        64.3461 -129.3932   40.2561 H         1 GT8         0.0265
     61 H18        63.3780 -131.6401   41.2397 H         1 GT8         0.0301
     62 H19        64.8427 -133.6465   40.9218 H         1 GT8         0.0269
     63 H20        65.6652 -133.2644   42.4723 H         1 GT8         0.0269
     64 H21        64.4971 -136.4796   43.8120 H         1 GT8         0.0645
     65 H22        61.6378 -136.2977   43.5074 H         1 GT8         0.2100
     66 H23        63.7998 -140.2106   43.0523 H         1 GT8         0.0258
     67 H24        63.3503 -139.2483   44.5009 H         1 GT8         0.0258
     68 H25        65.0057 -139.1200   43.8156 H         1 GT8         0.0258
     69 H26        61.5483 -138.1939   43.1315 H         1 GT8         0.2102
     70 H27        61.5585 -135.4929   41.5301 H         1 GT8         0.1856
     71 H28        60.6926 -137.1259   40.2597 H         1 GT8         0.0453
     72 H29        61.1163 -137.5890   38.5767 H         1 GT8         0.0453
     73 H30        59.6591 -137.1894   36.7671 H         1 GT8         0.0530
     74 H31        57.2814 -137.1097   36.1094 H         1 GT8         0.0525
     75 H32        53.1769 -136.7653   37.7694 H         1 GT8         0.0575
     76 H33        54.0242 -136.0723   39.1937 H         1 GT8         0.0575
     77 H34        54.0951 -137.8393   38.8785 H         1 GT8         0.0575
     78 H35        56.1665 -136.2505   40.1747 H         1 GT8         0.0525
     79 H36        58.5534 -136.3548   40.8382 H         1 GT8         0.0530
     80 H37        62.3169 -135.8690   37.1509 H         1 GT8         0.1885
     81 H38        62.0442 -135.2055   35.1017 H         1 GT8         0.0797
     82 H39        63.1872 -133.1975   34.2003 H         1 GT8         0.0277
     83 H40        63.6583 -133.5065   35.9059 H         1 GT8         0.0277
     84 H41        62.4859 -132.2013   35.5203 H         1 GT8         0.0277
     85 H42        60.3022 -132.8897   34.3741 H         1 GT8         0.1884
     86 H43        58.4207 -134.9800   32.2240 H         1 GT8         0.1063
     87 H44        58.8403 -133.2893   32.6625 H         1 GT8         0.1063
     88 H45        57.8319 -134.4088   34.9049 H         1 GT8         0.2054
     89 H46        57.0385 -136.3186   33.8187 H         1 GT8         0.0837
     90 H47        56.0943 -135.2610   32.7157 H         1 GT8         0.0837
     91 H48        55.9153 -135.1755   35.7948 H         1 GT8         0.0613
     92 H49        54.7467 -136.0433   34.7421 H         1 GT8         0.0613
     93 H50        55.7541 -132.6736   35.8637 H         1 GT8         0.0613
     94 H51        54.9993 -131.9007   34.4285 H         1 GT8         0.0613
     95 H52        56.6557 -132.5879   33.0051 H         1 GT8         0.0837
     96 H53        57.5612 -132.2305   34.5148 H         1 GT8         0.0837
@<TRIPOS>BOND
     1    1    2 1  
     2   11    1 1  
     3    2    3 1  
     4   10    3 1  
     5    5    4 1  
     6    4   12 1  
     7    5   13 1  
     8   18    5 1  
     9   16    6 1  
    10   19    7 1  
    11    7   21 1  
    12    7   30 1  
    13   30    8 am 
    14    8   31 2  
    15    8   32 1  
    16    9   10 1  
    17   11    9 1  
    18   12   11 1  
    19   13   14 1  
    20   13   16 1  
    21   16   15 1  
    22   16   17 1  
    23   18   19 am 
    24   19   20 2  
    25   21   22 1  
    26   22   23 ar 
    27   22   29 ar 
    28   23   24 ar 
    29   24   25 ar 
    30   25   26 1  
    31   25   28 ar 
    32   26   27 1  
    33   28   29 ar 
    34   32   33 1  
    35   32   34 1  
    36   34   35 am 
    37   35   36 2  
    38   35   37 1  
    39   37   38 1  
    40   38   39 1  
    41   38   43 1  
    42   39   40 1  
    43   40   41 1  
    44   41   42 1  
    45   42   43 1  
    46    1   44 1  
    47    1   45 1  
    48    2   46 1  
    49    2   47 1  
    50    3   48 1  
    51    3   49 1  
    52    4   50 1  
    53    4   51 1  
    54    5   52 1  
    55    6   53 1  
    56    6   54 1  
    57    6   55 1  
    58    7   56 1  
    59    9   57 1  
    60    9   58 1  
    61   10   59 1  
    62   10   60 1  
    63   11   61 1  
    64   12   62 1  
    65   12   63 1  
    66   13   64 1  
    67   14   65 1  
    68   15   66 1  
    69   15   67 1  
    70   15   68 1  
    71   17   69 1  
    72   18   70 1  
    73   21   71 1  
    74   21   72 1  
    75   23   73 1  
    76   24   74 1  
    77   27   75 1  
    78   27   76 1  
    79   27   77 1  
    80   28   78 1  
    81   29   79 1  
    82   30   80 1  
    83   32   81 1  
    84   33   82 1  
    85   33   83 1  
    86   33   84 1  
    87   34   85 1  
    88   37   86 1  
    89   37   87 1  
    90   38   88 1  
    91   39   89 1  
    92   39   90 1  
    93   40   91 1  
    94   40   92 1  
    95   42   93 1  
    96   42   94 1  
    97   43   95 1  
    98   43   96 1  
@<TRIPOS>SUBSTRUCTURE
     1 GT8         1

