### 
### Created by X-TOOL on Mon Aug  2 16:13:59 2021
### 

@<TRIPOS>MOLECULE
6hv0_ligand
   38    41     1     0     0
SMALL
GAST_HUCK


@<TRIPOS>ATOM
      1 CAM        -4.1750   35.8440   23.3860 C.3       1 GUK        -0.0422
      2 CAL        -3.5030   35.7580   24.7710 C.3       1 GUK         0.0333
      3 CAN        -2.0210   36.1270   24.5380 C.3       1 GUK        -0.0422
      4 NAK        -3.5520   34.3680   25.3080 N.pl3     1 GUK        -0.3070
      5 CAD        -4.4240   33.9920   26.3810 C.2       1 GUK         0.1103
      6 CAC        -5.0680   34.9870   27.1160 C.2       1 GUK        -0.0012
      7 CAB        -5.9370   34.6320   28.1870 C.2       1 GUK         0.1304
      8 CL         -6.8060   35.8860   29.1780 Cl        1 GUK        -0.0459
      9 NAA        -6.2060   33.3660   28.5810 N.2       1 GUK        -0.1583
     10 NAF        -5.5830   32.3690   27.8720 N.pl3     1 GUK        -0.1389
     11 CAE        -4.6830   32.6030   26.7680 C.2       1 GUK         0.1950
     12 NAG        -4.2930   31.3360   26.3600 N.2       1 GUK        -0.3252
     13 CAH        -4.9300   30.3430   27.1820 C.2       1 GUK        -0.0132
     14 CAI        -5.7770   30.9990   28.1690 C.2       1 GUK         0.1070
     15 CAO        -6.6070   30.3600   29.2170 C.ar      1 GUK        -0.0081
     16 CAT        -6.9190   30.9540   30.4190 C.ar      1 GUK        -0.0598
     17 CAS        -7.7160   30.3140   31.4180 C.ar      1 GUK         0.0059
     18 CAW        -8.1940   30.6680   32.7280 C.2       1 GUK         0.0206
     19 NAV        -8.9180   29.7020   33.2560 N.2       1 GUK        -0.2061
     20 NAU        -8.9720   28.6500   32.3670 N.pl3     1 GUK        -0.2141
     21 CAR        -8.2310   29.0120   31.2110 C.ar      1 GUK         0.0855
     22 CAQ        -7.9310   28.3710   29.9820 C.ar      1 GUK        -0.0369
     23 CAP        -7.1450   29.0120   29.0090 C.ar      1 GUK        -0.0642
     24 H1         -4.1231   36.8789   23.0170 H         1 GUK         0.0252
     25 H2         -5.2279   35.5369   23.4696 H         1 GUK         0.0252
     26 H3         -3.6533   35.1776   22.6833 H         1 GUK         0.0252
     27 H4         -3.9808   36.4534   25.4767 H         1 GUK         0.0552
     28 H5         -1.4781   36.0852   25.4938 H         1 GUK         0.0252
     29 H6         -1.9571   37.1442   24.1242 H         1 GUK         0.0252
     30 H7         -1.5726   35.4143   23.8302 H         1 GUK         0.0252
     31 H8         -2.9375   33.6530   24.8932 H         1 GUK         0.1827
     32 H9         -4.9063   36.0357   26.8709 H         1 GUK         0.0495
     33 H10        -4.7994   29.2665   27.0821 H         1 GUK         0.0532
     34 H11        -6.5435   31.9515   30.6166 H         1 GUK         0.0552
     35 H12        -7.9837   31.6158   33.2214 H         1 GUK         0.0713
     36 H13        -9.4639   27.7573   32.5153 H         1 GUK         0.2451
     37 H14        -8.3125   27.3746   29.7907 H         1 GUK         0.0557
     38 H15        -6.9308   28.4960   28.0800 H         1 GUK         0.0561
@<TRIPOS>BOND
     1    1    2 1  
     2    2    3 1  
     3    2    4 1  
     4    4    5 1  
     5    5    6 2  
     6    5   11 1  
     7    6    7 1  
     8    7    8 1  
     9    7    9 2  
    10    9   10 1  
    11   10   11 1  
    12   10   14 1  
    13   11   12 2  
    14   12   13 1  
    15   13   14 2  
    16   14   15 1  
    17   15   16 ar 
    18   15   23 ar 
    19   16   17 ar 
    20   17   18 1  
    21   17   21 ar 
    22   18   19 2  
    23   19   20 1  
    24   20   21 1  
    25   21   22 ar 
    26   22   23 ar 
    27    1   24 1  
    28    1   25 1  
    29    1   26 1  
    30    2   27 1  
    31    3   28 1  
    32    3   29 1  
    33    3   30 1  
    34    4   31 1  
    35    6   32 1  
    36   13   33 1  
    37   16   34 1  
    38   18   35 1  
    39   20   36 1  
    40   22   37 1  
    41   23   38 1  
@<TRIPOS>SUBSTRUCTURE
     1 GUK         1

