### 
### Created by X-TOOL on Mon Aug  2 16:13:59 2021
### 

@<TRIPOS>MOLECULE
6hv2_ligand
   89    89     1     0     0
SMALL
GAST_HUCK


@<TRIPOS>ATOM
      1 N          33.9090  -12.7190   11.7010 N.4       1 ILE         0.2381
      2 CA         32.8990  -13.5100   10.9920 C.3       1 ILE         0.0676
      3 C          32.0650  -14.2710   11.9970 C.2       1 ILE         0.2270
      4 O          32.6120  -15.0090   12.8180 O.2       1 ILE        -0.3907
      5 CB         33.5370  -14.4760    9.9760 C.3       1 ILE         0.0164
      6 CG1        34.2270  -13.6830    8.8730 C.3       1 ILE        -0.0460
      7 CG2        32.4860  -15.4400    9.4350 C.3       1 ILE        -0.0551
      8 CD1        34.7940  -14.5360    7.7300 C.3       1 ILE        -0.0647
      9 N          30.7470  -14.0710   11.9390 N.am      1 ILE        -0.2610
     10 CA         29.7880  -14.7840   12.7760 C.3       1 ILE         0.1318
     11 C          28.7630  -15.4540   11.8710 C.2       1 ILE         0.2039
     12 O          28.2890  -14.8460   10.9040 O.2       1 ILE        -0.3944
     13 CB         29.1080  -13.8390   13.7780 C.3       1 ILE        -0.0034
     14 CG         30.0340  -13.3480   14.8810 C.3       1 ILE        -0.0024
     15 SD         29.5620  -13.9800   16.5220 S.3       1 ILE        -0.1639
     16 CE         29.9240  -15.7220   16.3240 C.3       1 ILE        -0.0181
     17 N          28.4510  -16.7130   12.1760 N.am      1 ILE        -0.2635
     18 CA         27.5830  -17.5650   11.3720 C.3       1 ILE         0.1335
     19 C          26.5970  -18.2560   12.3070 C.2       1 ILE         0.2042
     20 O          26.9710  -18.6770   13.4070 O.2       1 ILE        -0.3944
     21 CB         28.4030  -18.6120   10.5830 C.3       1 ILE        -0.0037
     22 CG1        29.4320  -17.9370    9.6710 C.3       1 ILE        -0.0491
     23 CG2        27.4970  -19.5230    9.7760 C.3       1 ILE        -0.0582
     24 CD1        30.4370  -18.9070    9.0890 C.3       1 ILE        -0.0648
     25 N          25.3460  -18.3890   11.8670 N.am      1 ILE        -0.2616
     26 CA         24.2980  -19.0790   12.6110 C.3       1 ILE         0.1539
     27 C          23.7860  -20.2790   11.8200 C.2       1 ILE         0.2058
     28 O          24.0440  -20.4190   10.6230 O.2       1 ILE        -0.3943
     29 CB         23.1410  -18.1270   12.9360 C.3       1 ILE         0.0843
     30 OG         22.1370  -18.7690   13.7040 O.3       1 ILE        -0.3903
     31 N          23.0330  -21.1360   12.5080 N.am      1 ILE        -0.2676
     32 CA         22.5020  -22.3800   11.9390 C.3       1 ILE         0.1039
     33 C          23.6220  -23.2830   11.4300 C.2       1 ILE         0.0621
     34 O          24.4680  -23.7350   12.2020 O.co2     1 ILE        -0.5664
     35 CB         21.5100  -22.0940   10.8080 C.3       1 ILE         0.0159
     36 CG         20.1350  -21.7220   11.2820 C.ar      1 ILE        -0.0392
     37 CD1        19.6500  -22.1940   12.4930 C.ar      1 ILE        -0.0602
     38 CD2        19.3190  -20.9110   10.5090 C.ar      1 ILE        -0.0602
     39 CE1        18.3750  -21.8550   12.9270 C.ar      1 ILE        -0.0686
     40 CE2        18.0480  -20.5630   10.9360 C.ar      1 ILE        -0.0686
     41 CZ         17.5740  -21.0370   12.1470 C.ar      1 ILE        -0.0687
     42 OXT        23.7020  -23.5780   10.2370 O.co2     1 ILE        -0.5664
     43 H1         33.4539  -12.1012   12.3546 H         1 ILE         0.2015
     44 H2         34.4372  -12.1752   11.0366 H         1 ILE         0.2015
     45 H3         34.5305  -13.3366   12.1994 H         1 ILE         0.2015
     46 H4         32.2424  -12.8201   10.4417 H         1 ILE         0.1101
     47 H5         34.3032  -15.0700   10.4956 H         1 ILE         0.0378
     48 H6         35.0567  -13.1190    9.3240 H         1 ILE         0.0269
     49 H7         33.4954  -12.9810    8.4465 H         1 ILE         0.0269
     50 H8         32.0221  -15.9836   10.2712 H         1 ILE         0.0236
     51 H9         32.9636  -16.1573    8.7514 H         1 ILE         0.0236
     52 H10        31.7143  -14.8743    8.8923 H         1 ILE         0.0236
     53 H11        35.2704  -13.8813    6.9854 H         1 ILE         0.0230
     54 H12        33.9784  -15.1000    7.2539 H         1 ILE         0.0230
     55 H13        35.5397  -15.2380    8.1314 H         1 ILE         0.0230
     56 H14        30.3983  -13.3971   11.2877 H         1 ILE         0.1884
     57 H15        30.3220  -15.5606   13.3432 H         1 ILE         0.0800
     58 H16        28.2666  -14.3733   14.2433 H         1 ILE         0.0320
     59 H17        28.7285  -12.9649   13.2285 H         1 ILE         0.0320
     60 H18        30.0028  -12.2487   14.9043 H         1 ILE         0.0378
     61 H19        31.0579  -13.6811   14.6561 H         1 ILE         0.0378
     62 H20        29.6849  -16.2544   17.2564 H         1 ILE         0.0340
     63 H21        30.9915  -15.8506   16.0918 H         1 ILE         0.0340
     64 H22        29.3180  -16.1314   15.5023 H         1 ILE         0.0340
     65 H23        28.8384  -17.0996   13.0129 H         1 ILE         0.1883
     66 H24        27.0280  -16.9406   10.6564 H         1 ILE         0.0803
     67 H25        28.9479  -19.2317   11.3103 H         1 ILE         0.0345
     68 H26        29.9747  -17.1798   10.2559 H         1 ILE         0.0267
     69 H27        28.8981  -17.4475    8.8431 H         1 ILE         0.0267
     70 H28        26.7653  -19.9989   10.4454 H         1 ILE         0.0235
     71 H29        28.1017  -20.2985    9.2832 H         1 ILE         0.0235
     72 H30        26.9671  -18.9321    9.0144 H         1 ILE         0.0235
     73 H31        31.1440  -18.3612    8.4469 H         1 ILE         0.0230
     74 H32        29.9106  -19.6663    8.4921 H         1 ILE         0.0230
     75 H33        30.9871  -19.3986    9.9049 H         1 ILE         0.0230
     76 H34        25.1130  -17.9942   10.9783 H         1 ILE         0.1884
     77 H35        24.7259  -19.4414   13.5573 H         1 ILE         0.0823
     78 H36        22.6971  -17.7703   11.9949 H         1 ILE         0.0606
     79 H37        23.5323  -17.2706   13.5046 H         1 ILE         0.0606
     80 H38        21.4375  -18.1529   13.8871 H         1 ILE         0.2097
     81 H39        22.8187  -20.9206   13.4607 H         1 ILE         0.1877
     82 H40        21.9670  -22.9149   12.7375 H         1 ILE         0.0749
     83 H41        21.4284  -22.9956   10.1831 H         1 ILE         0.0467
     84 H42        21.9041  -21.2635   10.2038 H         1 ILE         0.0467
     85 H43        20.2729  -22.8343   13.1071 H         1 ILE         0.0557
     86 H44        19.6810  -20.5434    9.5556 H         1 ILE         0.0557
     87 H45        18.0070  -22.2301   13.8751 H         1 ILE         0.0599
     88 H46        17.4259  -19.9208   10.3231 H         1 ILE         0.0599
     89 H47        16.5792  -20.7690   12.4840 H         1 ILE         0.0559
@<TRIPOS>BOND
     1    1    2 1  
     2    2    3 1  
     3    2    5 1  
     4    3    4 2  
     5    3    9 am 
     6    5    6 1  
     7    5    7 1  
     8    6    8 1  
     9    9   10 1  
    10   10   11 1  
    11   10   13 1  
    12   11   12 2  
    13   11   17 am 
    14   13   14 1  
    15   14   15 1  
    16   15   16 1  
    17   17   18 1  
    18   18   19 1  
    19   18   21 1  
    20   19   20 2  
    21   19   25 am 
    22   21   22 1  
    23   21   23 1  
    24   22   24 1  
    25   25   26 1  
    26   26   27 1  
    27   26   29 1  
    28   27   28 2  
    29   27   31 am 
    30   29   30 1  
    31   31   32 1  
    32   32   33 1  
    33   32   35 1  
    34   33   34 ar 
    35   33   42 ar 
    36   35   36 1  
    37   36   37 ar 
    38   36   38 ar 
    39   37   39 ar 
    40   38   40 ar 
    41   39   41 ar 
    42   40   41 ar 
    43    1   43 1  
    44    1   44 1  
    45    1   45 1  
    46    2   46 1  
    47    5   47 1  
    48    6   48 1  
    49    6   49 1  
    50    7   50 1  
    51    7   51 1  
    52    7   52 1  
    53    8   53 1  
    54    8   54 1  
    55    8   55 1  
    56    9   56 1  
    57   10   57 1  
    58   13   58 1  
    59   13   59 1  
    60   14   60 1  
    61   14   61 1  
    62   16   62 1  
    63   16   63 1  
    64   16   64 1  
    65   17   65 1  
    66   18   66 1  
    67   21   67 1  
    68   22   68 1  
    69   22   69 1  
    70   23   70 1  
    71   23   71 1  
    72   23   72 1  
    73   24   73 1  
    74   24   74 1  
    75   24   75 1  
    76   25   76 1  
    77   26   77 1  
    78   29   78 1  
    79   29   79 1  
    80   30   80 1  
    81   31   81 1  
    82   32   82 1  
    83   35   83 1  
    84   35   84 1  
    85   37   85 1  
    86   38   86 1  
    87   39   87 1  
    88   40   88 1  
    89   41   89 1  
@<TRIPOS>SUBSTRUCTURE
     1 ILE         1

