### 
### Created by X-TOOL on Mon Aug  2 16:10:10 2021
### 

@<TRIPOS>MOLECULE
6hv4_ligand
   87    89     1     0     0
SMALL
GAST_HUCK


@<TRIPOS>ATOM
      1 C4         65.2690 -131.6860   40.4460 C.ar      1 GQK        -0.0686
      2 C5         64.7460 -132.7710   41.1200 C.ar      1 GQK        -0.0603
      3 C6         64.1010 -132.5910   42.3140 C.ar      1 GQK        -0.0408
      4 C7         63.5880 -133.6290   43.0600 C.3       1 GQK         0.0065
      5 C8         63.5470 -135.0170   42.4010 C.3       1 GQK         0.0800
      6 C10        63.5700 -137.4950   42.8730 C.3       1 GQK         0.0886
      7 C24        61.4190 -135.1640   39.2620 C.3       1 GQK         0.1389
      8 C26        61.1490 -134.1470   37.0530 C.2       1 GQK         0.2037
      9 C36        56.1010 -134.2780   33.2140 C.3       1 GQK        -0.0060
     10 C35        54.7380 -134.4150   33.8480 C.3       1 GQK         0.0878
     11 O34        54.4110 -133.1360   34.4380 O.3       1 GQK        -0.3693
     12 C33        55.3290 -132.7160   35.4380 C.3       1 GQK         0.0878
     13 C32        56.6970 -132.6060   34.7830 C.3       1 GQK        -0.0060
     14 N31        57.0650 -133.9150   34.2530 N.4       1 GQK         0.2552
     15 C30        58.3710 -133.7830   33.6310 C.3       1 GQK         0.0582
     16 C29        59.3990 -134.4370   34.4980 C.2       1 GQK         0.2238
     17 O37        59.2430 -135.5740   34.8820 O.2       1 GQK        -0.3910
     18 N28        60.4530 -133.7200   34.7880 N.am      1 GQK        -0.2615
     19 C27        61.5110 -134.2470   35.6160 C.3       1 GQK         0.1283
     20 C38        62.6900 -133.3430   35.4250 C.3       1 GQK        -0.0244
     21 O39        60.4440 -133.2430   37.4450 O.2       1 GQK        -0.3944
     22 N25        61.6570 -135.0880   37.8280 N.am      1 GQK        -0.2621
     23 C40        60.6050 -136.3690   39.6590 C.3       1 GQK         0.0163
     24 C41        59.2880 -136.4170   39.2620 C.ar      1 GQK        -0.0493
     25 C48        58.8130 -136.6000   37.9970 C.ar      1 GQK        -0.0685
     26 C47        57.4500 -136.6540   37.7760 C.ar      1 GQK        -0.0396
     27 C44        56.5540 -136.5280   38.8110 C.ar      1 GQK         0.0837
     28 O45        55.2050 -136.5740   38.7340 O.3       1 GQK        -0.3257
     29 C46        54.5190 -135.3620   38.5050 C.3       1 GQK         0.0579
     30 C43        57.0480 -136.3690   40.0580 C.ar      1 GQK        -0.0396
     31 C42        58.3910 -136.3180   40.2750 C.ar      1 GQK        -0.0685
     32 C23        62.7100 -135.2550   40.0170 C.2       1 GQK         0.2040
     33 O49        63.7420 -135.5200   39.4590 O.2       1 GQK        -0.3943
     34 N22        62.5660 -135.0300   41.3040 N.am      1 GQK        -0.2773
     35 C3         65.1790 -130.4160   40.9560 C.ar      1 GQK        -0.0687
     36 C2         64.5490 -130.2340   42.1600 C.ar      1 GQK        -0.0686
     37 C1         64.0260 -131.3210   42.8290 C.ar      1 GQK        -0.0603
     38 C9         63.2800 -136.1560   43.4180 C.3       1 GQK         0.1079
     39 O21        62.0640 -136.0790   43.9980 O.3       1 GQK        -0.3865
     40 C11        63.7350 -138.5800   43.8540 C.3       1 GQK        -0.0338
     41 C12        64.9570 -137.5040   42.2300 C.3       1 GQK        -0.0338
     42 O13        63.0660 -138.1740   41.7700 O.3       1 GQK        -0.3865
     43 H1         65.7616 -131.8410   39.4929 H         1 GQK         0.0599
     44 H2         64.8461 -133.7668   40.7034 H         1 GQK         0.0557
     45 H3         62.5563 -133.3619   43.3325 H         1 GQK         0.0449
     46 H4         64.1978 -133.7138   43.9716 H         1 GQK         0.0449
     47 H5         64.5387 -135.2014   41.9623 H         1 GQK         0.0605
     48 H6         60.8820 -134.2539   39.5674 H         1 GQK         0.0821
     49 H7         56.0740 -133.4936   32.4433 H         1 GQK         0.0837
     50 H8         56.3937 -135.2336   32.7546 H         1 GQK         0.0837
     51 H9         54.7600 -135.1937   34.6246 H         1 GQK         0.0613
     52 H10        53.9919 -134.6796   33.0843 H         1 GQK         0.0613
     53 H11        55.3608 -133.4541   36.2530 H         1 GQK         0.0613
     54 H12        55.0253 -131.7383   35.8404 H         1 GQK         0.0613
     55 H13        57.4401 -132.2854   35.5280 H         1 GQK         0.0837
     56 H14        56.6582 -131.8722   33.9645 H         1 GQK         0.0837
     57 H15        57.0818 -134.6083   34.9845 H         1 GQK         0.2054
     58 H16        58.6152 -132.7171   33.5116 H         1 GQK         0.1063
     59 H17        58.3591 -134.2693   32.6444 H         1 GQK         0.1063
     60 H18        60.5275 -132.7894   34.4295 H         1 GQK         0.1884
     61 H19        61.7437 -135.2861   35.3401 H         1 GQK         0.0797
     62 H20        63.5301 -133.7017   36.0378 H         1 GQK         0.0277
     63 H21        62.4222 -132.3213   35.7321 H         1 GQK         0.0277
     64 H22        62.9836 -133.3423   34.3649 H         1 GQK         0.0277
     65 H23        62.2364 -135.7859   37.4070 H         1 GQK         0.1885
     66 H24        60.6180 -136.4254   40.7575 H         1 GQK         0.0453
     67 H25        61.1055 -137.2546   39.2404 H         1 GQK         0.0453
     68 H26        59.5027 -136.7028   37.1670 H         1 GQK         0.0530
     69 H27        57.0802 -136.7985   36.7673 H         1 GQK         0.0525
     70 H28        53.4367 -135.5548   38.4672 H         1 GQK         0.0575
     71 H29        54.8480 -134.9295   37.5486 H         1 GQK         0.0575
     72 H30        54.7376 -134.6572   39.3207 H         1 GQK         0.0575
     73 H31        56.3666 -136.2809   40.8965 H         1 GQK         0.0525
     74 H32        58.7549 -136.1945   41.2886 H         1 GQK         0.0530
     75 H33        61.6271 -134.8336   41.5868 H         1 GQK         0.1857
     76 H34        65.5975 -129.5731   40.4180 H         1 GQK         0.0559
     77 H35        64.4623 -129.2403   42.5843 H         1 GQK         0.0599
     78 H36        63.5428 -131.1681   43.7872 H         1 GQK         0.0557
     79 H37        64.0055 -136.0026   44.2304 H         1 GQK         0.0647
     80 H38        61.9283 -135.1996   44.3309 H         1 GQK         0.2100
     81 H39        63.9461 -139.5220   43.3267 H         1 GQK         0.0258
     82 H40        62.8108 -138.6875   44.4408 H         1 GQK         0.0258
     83 H41        64.5714 -138.3414   44.5274 H         1 GQK         0.0258
     84 H42        65.0051 -136.7288   41.4511 H         1 GQK         0.0258
     85 H43        65.1456 -138.4893   41.7788 H         1 GQK         0.0258
     86 H44        65.7183 -137.3003   42.9974 H         1 GQK         0.0258
     87 H45        62.9185 -137.5589   41.0612 H         1 GQK         0.2102
@<TRIPOS>BOND
     1    2    1 ar 
     2    1   35 ar 
     3    3    2 ar 
     4    4    3 1  
     5    3   37 ar 
     6    5    4 1  
     7   34    5 1  
     8    5   38 1  
     9   38    6 1  
    10    6   40 1  
    11    6   41 1  
    12    6   42 1  
    13    7   22 1  
    14    7   23 1  
    15   32    7 1  
    16    8   19 1  
    17    8   21 2  
    18   22    8 am 
    19    9   10 1  
    20   14    9 1  
    21   10   11 1  
    22   12   11 1  
    23   13   12 1  
    24   14   13 1  
    25   15   14 1  
    26   16   15 1  
    27   16   17 2  
    28   18   16 am 
    29   19   18 1  
    30   19   20 1  
    31   23   24 1  
    32   24   25 ar 
    33   24   31 ar 
    34   25   26 ar 
    35   26   27 ar 
    36   27   28 1  
    37   30   27 ar 
    38   28   29 1  
    39   31   30 ar 
    40   32   33 2  
    41   32   34 am 
    42   35   36 ar 
    43   36   37 ar 
    44   38   39 1  
    45    1   43 1  
    46    2   44 1  
    47    4   45 1  
    48    4   46 1  
    49    5   47 1  
    50    7   48 1  
    51    9   49 1  
    52    9   50 1  
    53   10   51 1  
    54   10   52 1  
    55   12   53 1  
    56   12   54 1  
    57   13   55 1  
    58   13   56 1  
    59   14   57 1  
    60   15   58 1  
    61   15   59 1  
    62   18   60 1  
    63   19   61 1  
    64   20   62 1  
    65   20   63 1  
    66   20   64 1  
    67   22   65 1  
    68   23   66 1  
    69   23   67 1  
    70   25   68 1  
    71   26   69 1  
    72   29   70 1  
    73   29   71 1  
    74   29   72 1  
    75   30   73 1  
    76   31   74 1  
    77   34   75 1  
    78   35   76 1  
    79   36   77 1  
    80   37   78 1  
    81   38   79 1  
    82   39   80 1  
    83   40   81 1  
    84   40   82 1  
    85   40   83 1  
    86   41   84 1  
    87   41   85 1  
    88   41   86 1  
    89   42   87 1  
@<TRIPOS>SUBSTRUCTURE
     1 GQK         1

