### 
### Created by X-TOOL on Mon Aug  2 16:10:11 2021
### 

@<TRIPOS>MOLECULE
6hv7_ligand
   86    87     1     0     0
SMALL
GAST_HUCK


@<TRIPOS>ATOM
      1 C4         56.7520 -134.6370   32.1620 C.ar      1 GQQ         0.0475
      2 C6         58.2320 -136.0350   33.3610 C.ar      1 GQQ         0.1532
      3 C7         59.3720 -136.1210   34.1550 C.2       1 GQQ         0.2347
      4 C10        60.9230 -134.9550   36.4950 C.2       1 GQQ         0.2039
      5 C13        62.4300 -136.3400   39.4490 C.2       1 GQQ         0.2020
      6 C15        63.3150 -135.8840   41.6980 C.3       1 GQQ         0.0521
      7 C17        63.8500 -133.4860   41.9380 C.ar      1 GQQ        -0.0475
      8 C20        65.0010 -131.1400   40.8130 C.ar      1 GQQ        -0.0054
      9 C21        65.6120 -130.0330   40.2030 C.3       1 GQQ        -0.0046
     10 C24        64.6360 -133.5280   40.7710 C.ar      1 GQQ        -0.0666
     11 C26        61.6420 -137.3470   42.9330 C.3       1 GQQ         0.0677
     12 C28        61.2390 -140.1540   41.9590 C.3       1 GQQ         0.0544
     13 C18        63.6600 -132.2340   42.5280 C.ar      1 GQQ        -0.0666
     14 C19        64.2270 -131.0800   41.9830 C.ar      1 GQQ        -0.0618
     15 N22        64.8560 -128.7710   40.3020 N.4       1 GQQ         0.2299
     16 C23        65.1990 -132.3790   40.2240 C.ar      1 GQQ        -0.0618
     17 C16        63.2450 -134.5750   42.5600 C.3       1 GQQ         0.0009
     18 C25        63.1220 -137.1900   42.5020 C.3       1 GQQ        -0.0088
     19 S27        61.0400 -139.0290   43.3320 S.o2      1 GQQ        -0.0337
     20 O29        59.5840 -138.9720   43.7490 O.2       1 GQQ        -0.1746
     21 O30        61.7680 -139.5540   44.5500 O.2       1 GQQ        -0.1746
     22 N14        62.2850 -135.8050   40.6570 N.am      1 GQQ        -0.2801
     23 O31        63.3930 -137.0010   39.0680 O.2       1 GQQ        -0.3945
     24 C12        61.1870 -136.2000   38.6110 C.3       1 GQQ         0.1311
     25 C32        60.4990 -137.5570   38.8270 C.3       1 GQQ        -0.0101
     26 C33        59.1720 -137.6760   38.0710 C.3       1 GQQ        -0.0425
     27 C38        58.6010 -139.0910   38.2560 C.3       1 GQQ        -0.0625
     28 C34        58.2000 -136.6060   38.5820 C.3       1 GQQ        -0.0625
     29 N11        61.4840 -135.9620   37.1910 N.am      1 GQQ        -0.2637
     30 O39        60.1420 -134.1200   36.9470 O.2       1 GQQ        -0.3944
     31 C9         61.3060 -134.9020   35.0270 C.3       1 GQQ         0.1311
     32 C40        62.0410 -133.6040   34.7300 C.3       1 GQQ        -0.0101
     33 C41        63.4500 -133.6580   35.3460 C.3       1 GQQ        -0.0425
     34 C43        64.0750 -132.2700   35.3060 C.3       1 GQQ        -0.0625
     35 C42        64.3430 -134.6500   34.5970 C.3       1 GQQ        -0.0625
     36 N8         60.0720 -134.9660   34.2530 N.am      1 GQQ        -0.2617
     37 O44        59.7090 -137.1910   34.6680 O.2       1 GQQ        -0.3756
     38 N6         57.8590 -134.8100   32.9620 N.ar      1 GQQ        -0.2509
     39 C3         55.9840 -135.7180   31.7320 C.ar      1 GQQ         0.0462
     40 N2         56.3680 -137.0130   32.1360 N.ar      1 GQQ        -0.2653
     41 C1         57.5020 -137.1690   32.9570 C.ar      1 GQQ         0.0620
     42 H1         56.4705 -133.6350   31.8589 H         1 GQQ         0.0941
     43 H2         64.3055 -135.9247   41.2214 H         1 GQQ         0.0578
     44 H3         65.7512 -130.2646   39.1367 H         1 GQQ         0.0965
     45 H4         66.5932 -129.8810   40.6764 H         1 GQQ         0.0965
     46 H5         64.8074 -134.4817   40.2850 H         1 GQQ         0.0540
     47 H6         61.0191 -136.9624   42.1120 H         1 GQQ         0.0500
     48 H7         61.4937 -136.7251   43.8281 H         1 GQQ         0.0500
     49 H8         60.8653 -141.1488   42.2430 H         1 GQQ         0.0464
     50 H9         62.3043 -140.2244   41.6940 H         1 GQQ         0.0464
     51 H10        60.6699 -139.7817   41.0944 H         1 GQQ         0.0464
     52 H11        63.0600 -132.1567   43.4275 H         1 GQQ         0.0540
     53 H12        64.0674 -130.1248   42.4699 H         1 GQQ         0.0542
     54 H13        65.3673 -128.0359   39.8392 H         1 GQQ         0.2007
     55 H14        64.7278 -128.5314   41.2727 H         1 GQQ         0.2007
     56 H15        63.9561 -128.8829   39.8618 H         1 GQQ         0.2007
     57 H16        65.8004 -132.4539   39.3253 H         1 GQQ         0.0542
     58 H17        63.7519 -134.7582   43.5189 H         1 GQQ         0.0435
     59 H18        62.1882 -134.3318   42.7444 H         1 GQQ         0.0435
     60 H19        63.7591 -137.1611   43.3983 H         1 GQQ         0.0305
     61 H20        63.4095 -138.0470   41.8752 H         1 GQQ         0.0305
     62 H21        61.4327 -135.3256   40.8661 H         1 GQQ         0.1856
     63 H22        60.5582 -135.3781   38.9839 H         1 GQQ         0.0800
     64 H23        60.3039 -137.6851   39.9019 H         1 GQQ         0.0315
     65 H24        61.1742 -138.3528   38.4794 H         1 GQQ         0.0315
     66 H25        59.3517 -137.5063   36.9991 H         1 GQQ         0.0298
     67 H26        57.6482 -139.1758   37.7129 H         1 GQQ         0.0232
     68 H27        58.4312 -139.2809   39.3261 H         1 GQQ         0.0232
     69 H28        59.3149 -139.8290   37.8613 H         1 GQQ         0.0232
     70 H29        58.6410 -135.6092   38.4337 H         1 GQQ         0.0232
     71 H30        58.0082 -136.7664   39.6532 H         1 GQQ         0.0232
     72 H31        57.2535 -136.6746   38.0257 H         1 GQQ         0.0232
     73 H32        62.1263 -136.5704   36.7248 H         1 GQQ         0.1883
     74 H33        61.9525 -135.7556   34.7753 H         1 GQQ         0.0800
     75 H34        61.4839 -132.7601   35.1631 H         1 GQQ         0.0315
     76 H35        62.1221 -133.4697   33.6413 H         1 GQQ         0.0315
     77 H36        63.3652 -133.9825   36.3936 H         1 GQQ         0.0298
     78 H37        65.0823 -132.3086   35.7464 H         1 GQQ         0.0232
     79 H38        63.4504 -131.5699   35.8802 H         1 GQQ         0.0232
     80 H39        64.1439 -131.9288   34.2625 H         1 GQQ         0.0232
     81 H40        63.8869 -135.6505   34.6291 H         1 GQQ         0.0232
     82 H41        65.3339 -134.6834   35.0733 H         1 GQQ         0.0232
     83 H42        64.4499 -134.3292   33.5503 H         1 GQQ         0.0232
     84 H43        59.7381 -134.1459   33.7883 H         1 GQQ         0.1881
     85 H44        55.1140 -135.5668   31.1032 H         1 GQQ         0.0958
     86 H45        57.8112 -138.1577   33.2763 H         1 GQQ         0.0978
@<TRIPOS>BOND
     1   38    1 ar 
     2    1   39 ar 
     3    3    2 1  
     4    2   38 ar 
     5    2   41 ar 
     6   36    3 am 
     7    3   37 2  
     8    4   29 am 
     9    4   30 2  
    10   31    4 1  
    11    5   22 am 
    12    5   23 2  
    13   24    5 1  
    14    6   17 1  
    15    6   18 1  
    16   22    6 1  
    17    7   10 ar 
    18    7   13 ar 
    19   17    7 1  
    20    8    9 1  
    21   14    8 ar 
    22   16    8 ar 
    23    9   15 1  
    24   10   16 ar 
    25   18   11 1  
    26   11   19 1  
    27   19   12 1  
    28   13   14 ar 
    29   19   20 2  
    30   19   21 2  
    31   24   25 1  
    32   29   24 1  
    33   25   26 1  
    34   26   27 1  
    35   26   28 1  
    36   31   32 1  
    37   31   36 1  
    38   32   33 1  
    39   33   34 1  
    40   33   35 1  
    41   39   40 ar 
    42   40   41 ar 
    43    1   42 1  
    44    6   43 1  
    45    9   44 1  
    46    9   45 1  
    47   10   46 1  
    48   11   47 1  
    49   11   48 1  
    50   12   49 1  
    51   12   50 1  
    52   12   51 1  
    53   13   52 1  
    54   14   53 1  
    55   15   54 1  
    56   15   55 1  
    57   15   56 1  
    58   16   57 1  
    59   17   58 1  
    60   17   59 1  
    61   18   60 1  
    62   18   61 1  
    63   22   62 1  
    64   24   63 1  
    65   25   64 1  
    66   25   65 1  
    67   26   66 1  
    68   27   67 1  
    69   27   68 1  
    70   27   69 1  
    71   28   70 1  
    72   28   71 1  
    73   28   72 1  
    74   29   73 1  
    75   31   74 1  
    76   32   75 1  
    77   32   76 1  
    78   33   77 1  
    79   34   78 1  
    80   34   79 1  
    81   34   80 1  
    82   35   81 1  
    83   35   82 1  
    84   35   83 1  
    85   36   84 1  
    86   39   85 1  
    87   41   86 1  
@<TRIPOS>SUBSTRUCTURE
     1 GQQ         1

