### 
### Created by X-TOOL on Wed Jan  1 15:39:37 2020
### 

@<TRIPOS>MOLECULE
6hvh_ligand
   62    67     1     0     0
SMALL
GAST_HUCK


@<TRIPOS>ATOM
      1 CBF        84.8270   46.5630  267.5780 C.3       1 GV2        -0.0064
      2 CBG        83.8690   46.5790  268.7920 C.3       1 GV2         0.0497
      3 OBH        83.5910   45.2250  269.2750 O.3       1 GV2        -0.3796
      4 CBI        84.7810   44.4310  269.6190 C.3       1 GV2         0.0497
      5 CBJ        85.8240   44.3920  268.4790 C.3       1 GV2        -0.0064
      6 CBE        86.1310   45.8240  267.9640 C.3       1 GV2         0.0456
      7 NBD        87.0450   45.7670  266.8020 N.am      1 GV2        -0.2833
      8 CBB        87.8470   46.7990  266.5440 C.2       1 GV2         0.2080
      9 OBC        87.8580   47.7660  267.2890 O.2       1 GV2        -0.3863
     10 CAW        88.7160   46.7090  265.4330 C.ar      1 GV2         0.0912
     11 CAX        88.3060   46.0390  264.2990 C.ar      1 GV2        -0.0247
     12 CAY        89.1140   45.8970  263.1850 C.ar      1 GV2         0.0041
     13 NAZ        90.3720   46.4490  263.1600 N.ar      1 GV2        -0.3037
     14 CBA        90.8170   47.1330  264.2870 C.ar      1 GV2         0.0396
     15 CAV        90.0070   47.2630  265.4160 C.ar      1 GV2         0.1090
     16 NAQ        90.3810   47.9510  266.5080 N.pl3     1 GV2        -0.2606
     17 CAA        91.6690   48.1760  266.8320 C.ar      1 GV2         0.0710
     18 CAB        91.9800   49.4050  267.4180 C.ar      1 GV2        -0.0180
     19 CAF        92.6780   47.2340  266.6540 C.ar      1 GV2        -0.0142
     20 CAE        93.9670   47.5290  267.0410 C.ar      1 GV2         0.0611
     21 NAM        94.9230   46.6110  266.8430 N.ar      1 GV2        -0.2794
     22 CAN        96.2420   46.8770  267.2230 C.ar      1 GV2         0.0365
     23 CAO        96.5600   48.0960  267.8040 C.ar      1 GV2         0.0383
     24 NAP        95.5530   49.0300  267.9920 N.ar      1 GV2        -0.2743
     25 CAD        94.2820   48.7620  267.6200 C.ar      1 GV2         0.0740
     26 CAC        93.2780   49.7150  267.8090 C.ar      1 GV2         0.0036
     27 CAG        93.5400   50.9680  268.3910 C.ar      1 GV2        -0.0275
     28 CAH        92.8220   51.4020  269.5040 C.ar      1 GV2        -0.0333
     29 CAI        93.0670   52.5990  270.0560 C.ar      1 GV2         0.0681
     30 NAT        92.5200   53.2280  271.1000 N.pl3     1 GV2        -0.2674
     31 CAU        91.4350   52.6990  271.9460 C.3       1 GV2         0.0409
     32 CAS        93.1100   54.4150  271.2630 C.2       1 GV2         0.0256
     33 CAR        94.0390   54.5270  270.3090 C.2       1 GV2        -0.0617
     34 CAJ        94.0160   53.4000  269.5680 C.ar      1 GV2        -0.0257
     35 CAK        94.7340   53.0250  268.5000 C.ar      1 GV2        -0.0732
     36 CAL        94.5240   51.8100  267.8840 C.ar      1 GV2        -0.0694
     37 H1         85.0638   47.5960  267.2833 H         1 GV2         0.0310
     38 H2         84.3454   46.0429  266.7369 H         1 GV2         0.0310
     39 H3         82.9224   47.0533  268.4939 H         1 GV2         0.0560
     40 H4         84.3307   47.1601  269.6039 H         1 GV2         0.0560
     41 H5         84.4645   43.4013  269.8413 H         1 GV2         0.0560
     42 H6         85.2513   44.8707  270.5109 H         1 GV2         0.0560
     43 H7         85.4291   43.7873  267.6493 H         1 GV2         0.0310
     44 H8         86.7523   43.9372  268.8548 H         1 GV2         0.0310
     45 H9         86.6243   46.3856  268.7710 H         1 GV2         0.0557
     46 H10        87.0607   44.9585  266.2137 H         1 GV2         0.1846
     47 H11        87.3120   45.6069  264.2800 H         1 GV2         0.0727
     48 H12        88.7517   45.3457  262.3248 H         1 GV2         0.0730
     49 H13        91.8083   47.5717  264.2881 H         1 GV2         0.0755
     50 H14        89.6474   48.3243  267.1272 H         1 GV2         0.2150
     51 H15        91.1920   50.1335  267.5715 H         1 GV2         0.0623
     52 H16        92.4503   46.2707  266.2120 H         1 GV2         0.0515
     53 H17        97.0140   46.1328  267.0641 H         1 GV2         0.0932
     54 H18        97.5780   48.3143  268.1057 H         1 GV2         0.0902
     55 H19        92.0557   50.7636  269.9287 H         1 GV2         0.0563
     56 H20        91.1883   53.4330  272.7273 H         1 GV2         0.0566
     57 H21        91.7611   51.7593  272.4156 H         1 GV2         0.0566
     58 H22        90.5459   52.5101  271.3265 H         1 GV2         0.0566
     59 H23        92.8777   55.1530  272.0294 H         1 GV2         0.0948
     60 H24        94.6994   55.3793  270.1564 H         1 GV2         0.0295
     61 H25        95.4960   53.6915  268.1125 H         1 GV2         0.0541
     62 H26        95.1133   51.5169  267.0227 H         1 GV2         0.0529
@<TRIPOS>BOND
     1    1    2 1  
     2    1    6 1  
     3    2    3 1  
     4    3    4 1  
     5    4    5 1  
     6    5    6 1  
     7    6    7 1  
     8    7    8 am 
     9    8    9 2  
    10    8   10 1  
    11   10   11 ar 
    12   10   15 ar 
    13   11   12 ar 
    14   12   13 ar 
    15   13   14 ar 
    16   14   15 ar 
    17   15   16 1  
    18   16   17 1  
    19   17   18 ar 
    20   17   19 ar 
    21   18   26 ar 
    22   19   20 ar 
    23   20   21 ar 
    24   20   25 ar 
    25   21   22 ar 
    26   22   23 ar 
    27   23   24 ar 
    28   24   25 ar 
    29   25   26 ar 
    30   26   27 1  
    31   27   28 ar 
    32   27   36 ar 
    33   28   29 ar 
    34   29   30 1  
    35   29   34 ar 
    36   30   31 1  
    37   30   32 1  
    38   32   33 2  
    39   33   34 1  
    40   34   35 ar 
    41   35   36 ar 
    42    1   37 1  
    43    1   38 1  
    44    2   39 1  
    45    2   40 1  
    46    4   41 1  
    47    4   42 1  
    48    5   43 1  
    49    5   44 1  
    50    6   45 1  
    51    7   46 1  
    52   11   47 1  
    53   12   48 1  
    54   14   49 1  
    55   16   50 1  
    56   18   51 1  
    57   19   52 1  
    58   22   53 1  
    59   23   54 1  
    60   28   55 1  
    61   31   56 1  
    62   31   57 1  
    63   31   58 1  
    64   32   59 1  
    65   33   60 1  
    66   35   61 1  
    67   36   62 1  
@<TRIPOS>SUBSTRUCTURE
     1 GV2         1

