### 
### Created by X-TOOL on Wed Jan  1 15:39:36 2020
### 

@<TRIPOS>MOLECULE
6hvi_ligand
   51    54     1     0     0
SMALL
GAST_HUCK


@<TRIPOS>ATOM
      1 C10        93.2440   52.7850  269.9960 C.ar      1 GV5         0.0408
      2 C11        92.9270   51.5550  269.4290 C.ar      1 GV5        -0.0361
      3 C12        95.9370   46.7610  267.2490 C.ar      1 GV5         0.0369
      4 C13        96.3190   47.9470  267.8380 C.ar      1 GV5         0.0386
      5 C14        89.8080   47.5810  265.2640 C.ar      1 GV5         0.1134
      6 C15        88.5590   46.8220  265.4550 C.ar      1 GV5         0.1295
      7 C16        88.2310   45.9150  264.4590 C.ar      1 GV5        -0.0192
      8 N1         94.6830   46.5580  266.8170 N.ar      1 GV5        -0.2788
      9 C17        89.0210   45.7690  263.2980 C.ar      1 GV5         0.0004
     10 C18        90.5700   47.3160  264.1150 C.ar      1 GV5         0.0352
     11 C19        88.5020   46.4720  268.1200 C.3       1 GV5         0.0595
     12 S          87.6620   46.9880  266.8340 S.o2      1 GV5        -0.0018
     13 O1         86.3470   46.2630  266.7370 O.2       1 GV5        -0.1697
     14 C20        91.5240   52.3270  271.6990 C.3       1 GV5         0.0150
     15 C1         91.9200   49.6730  267.2810 C.ar      1 GV5        -0.0159
     16 O          87.3140   48.3800  266.7900 O.2       1 GV5        -0.1697
     17 N3         90.1390   46.4660  263.1320 N.ar      1 GV5        -0.3086
     18 N          90.2720   48.3720  266.2760 N.pl3     1 GV5        -0.2628
     19 C          91.5470   48.4460  266.7130 C.ar      1 GV5         0.0715
     20 C5         92.4720   47.3940  266.5640 C.ar      1 GV5        -0.0130
     21 C4         93.7630   47.5320  266.9730 C.ar      1 GV5         0.0623
     22 N2         95.4610   48.9500  267.9960 N.ar      1 GV5        -0.2739
     23 C3         94.2050   48.8110  267.5230 C.ar      1 GV5         0.0753
     24 C2         93.2120   49.8740  267.6990 C.ar      1 GV5         0.0071
     25 C6         93.6030   51.1640  268.3070 C.ar      1 GV5        -0.0257
     26 N4         92.5690   53.1820  271.1310 N.pl3     1 GV5        -0.3150
     27 C21        92.8760   54.4710  271.7690 C.3       1 GV5         0.0150
     28 C9         94.2410   53.5690  269.4600 C.ar      1 GV5        -0.0433
     29 C8         94.9080   53.1770  268.3150 C.ar      1 GV5        -0.0718
     30 C7         94.6360   51.9400  267.7660 C.ar      1 GV5        -0.0659
     31 H1         92.1629   50.9223  269.8660 H         1 GV5         0.0521
     32 H2         96.6696   45.9707  267.1315 H         1 GV5         0.0933
     33 H3         97.3410   48.0645  268.1797 H         1 GV5         0.0905
     34 H4         87.3446   45.3018  264.5747 H         1 GV5         0.0696
     35 H5         88.7087   45.0741  262.5268 H         1 GV5         0.0720
     36 H6         91.5328   47.8011  264.0022 H         1 GV5         0.0741
     37 H7         87.8917   46.5892  269.0276 H         1 GV5         0.0467
     38 H8         89.4231   47.0652  268.2184 H         1 GV5         0.0467
     39 H9         88.7614   45.4113  267.9870 H         1 GV5         0.0467
     40 H10        91.1037   52.8077  272.5947 H         1 GV5         0.0477
     41 H11        91.9560   51.3534  271.9739 H         1 GV5         0.0477
     42 H12        90.7276   52.1779  270.9550 H         1 GV5         0.0477
     43 H13        91.1868   50.4639  267.3901 H         1 GV5         0.0641
     44 H14        89.5819   48.9703  266.7521 H         1 GV5         0.2128
     45 H15        92.1508   46.4603  266.1168 H         1 GV5         0.0526
     46 H16        93.6801   54.9737  271.2116 H         1 GV5         0.0477
     47 H17        93.2008   54.2989  272.8058 H         1 GV5         0.0477
     48 H18        91.9768   55.1046  271.7668 H         1 GV5         0.0477
     49 H19        94.5055   54.5036  269.9413 H         1 GV5         0.0525
     50 H20        95.6366   53.8335  267.8531 H         1 GV5         0.0587
     51 H21        95.2150   51.5735  266.9261 H         1 GV5         0.0521
@<TRIPOS>BOND
     1    2    1 ar 
     2    1   26 1  
     3    1   28 ar 
     4   25    2 ar 
     5    4    3 ar 
     6    8    3 ar 
     7   22    4 ar 
     8    5    6 ar 
     9    5   10 ar 
    10   18    5 1  
    11    6    7 ar 
    12    6   12 1  
    13    7    9 ar 
    14   21    8 ar 
    15   17    9 ar 
    16   10   17 ar 
    17   12   11 1  
    18   12   13 2  
    19   12   16 2  
    20   26   14 1  
    21   15   19 ar 
    22   24   15 ar 
    23   19   18 1  
    24   19   20 ar 
    25   21   20 ar 
    26   23   21 ar 
    27   23   22 ar 
    28   24   23 ar 
    29   24   25 1  
    30   25   30 ar 
    31   26   27 1  
    32   28   29 ar 
    33   29   30 ar 
    34    2   31 1  
    35    3   32 1  
    36    4   33 1  
    37    7   34 1  
    38    9   35 1  
    39   10   36 1  
    40   11   37 1  
    41   11   38 1  
    42   11   39 1  
    43   14   40 1  
    44   14   41 1  
    45   14   42 1  
    46   15   43 1  
    47   18   44 1  
    48   20   45 1  
    49   27   46 1  
    50   27   47 1  
    51   27   48 1  
    52   28   49 1  
    53   29   50 1  
    54   30   51 1  
@<TRIPOS>SUBSTRUCTURE
     1 GV5         1

