### 
### Created by X-TOOL on Wed Jan  1 15:39:37 2020
### 

@<TRIPOS>MOLECULE
6hvj_ligand
   49    53     1     0     0
SMALL
GAST_HUCK


@<TRIPOS>ATOM
      1 CBE        37.1740  -43.5290   13.0460 C.3       1 GV8         0.0595
      2 SBB        36.2770  -42.9480   11.6300 S.o2      1 GV8        -0.0018
      3 OBC        35.1670  -43.9500   11.3870 O.2       1 GV8        -0.1697
      4 OBD        35.5950  -41.5940   11.8110 O.2       1 GV8        -0.1697
      5 CBA        37.4310  -43.0200   10.2970 C.ar      1 GV8         0.1295
      6 CAZ        37.2130  -43.9250    9.2610 C.ar      1 GV8        -0.0192
      7 CAY        38.1010  -44.0370    8.2070 C.ar      1 GV8         0.0004
      8 NAX        39.2530  -43.2660    8.1810 N.ar      1 GV8        -0.3086
      9 CAW        39.4870  -42.3730    9.2320 C.ar      1 GV8         0.0352
     10 CAM        38.5830  -42.2560   10.2800 C.ar      1 GV8         0.1134
     11 NAL        38.7780  -41.4280   11.2870 N.pl3     1 GV8        -0.2632
     12 CAI        40.0500  -41.2180   11.6770 C.ar      1 GV8         0.0694
     13 CAH        40.3420  -39.9830   12.2410 C.ar      1 GV8        -0.0184
     14 CAJ        41.0780  -42.1730   11.5220 C.ar      1 GV8        -0.0148
     15 CAE        42.3610  -41.8520   11.9710 C.ar      1 GV8         0.0608
     16 NAF        43.3550  -42.7360   11.8430 N.ar      1 GV8        -0.2795
     17 CAA        44.6560  -42.4540   12.2580 C.ar      1 GV8         0.0365
     18 CAB        44.9360  -41.2260   12.8370 C.ar      1 GV8         0.0383
     19 NAC        43.8960  -40.3140   12.9680 N.ar      1 GV8        -0.2744
     20 CAD        42.6390  -40.6210   12.5380 C.ar      1 GV8         0.0738
     21 CAG        41.6170  -39.6740   12.6650 C.ar      1 GV8         0.0037
     22 CAK        41.8820  -38.4310   13.2860 C.ar      1 GV8        -0.0272
     23 CAR        41.1570  -38.0150   14.4180 C.ar      1 GV8        -0.0599
     24 CAQ        41.4390  -36.8400   14.9930 C.ar      1 GV8        -0.0024
     25 CAU        40.9360  -36.1810   16.0500 C.2       1 GV8        -0.0319
     26 CAV        39.7850  -36.6550   16.9390 C.3       1 GV8        -0.0449
     27 CAT        41.5440  -35.0160   16.2640 C.2       1 GV8         0.0784
     28 OAS        42.4890  -34.8740   15.3460 O.3       1 GV8        -0.2672
     29 CAP        42.4170  -36.0560   14.5140 C.ar      1 GV8         0.1221
     30 CAO        43.1410  -36.4110   13.4640 C.ar      1 GV8        -0.0296
     31 CAN        42.9060  -37.6180   12.8320 C.ar      1 GV8        -0.0637
     32 H1         37.6264  -44.5054   12.8181 H         1 GV8         0.0467
     33 H2         36.4863  -43.6335   13.8982 H         1 GV8         0.0467
     34 H3         37.9655  -42.8085   13.2997 H         1 GV8         0.0467
     35 H4         36.3302  -44.5537    9.2814 H         1 GV8         0.0696
     36 H5         37.8959  -44.7296    7.3987 H         1 GV8         0.0720
     37 H6         40.3845  -41.7651    9.2285 H         1 GV8         0.0741
     38 H7         37.9895  -40.9605   11.7566 H         1 GV8         0.2128
     39 H8         39.5526  -39.2481   12.3499 H         1 GV8         0.0622
     40 H9         40.8760  -43.1347   11.0644 H         1 GV8         0.0512
     41 H10        45.4421  -43.1891   12.1289 H         1 GV8         0.0932
     42 H11        45.9364  -40.9845   13.1774 H         1 GV8         0.0901
     43 H12        40.3727  -38.6442   14.8229 H         1 GV8         0.0575
     44 H13        39.5953  -35.9071   17.7230 H         1 GV8         0.0324
     45 H14        40.0528  -37.6148   17.4049 H         1 GV8         0.0324
     46 H15        38.8792  -36.7839   16.3284 H         1 GV8         0.0324
     47 H16        41.3066  -34.3052   17.0541 H         1 GV8         0.0925
     48 H17        43.9209  -35.7529   13.0984 H         1 GV8         0.0567
     49 H18        43.5168  -37.9241   11.9904 H         1 GV8         0.0558
@<TRIPOS>BOND
     1    1    2 1  
     2    2    3 2  
     3    2    4 2  
     4    2    5 1  
     5    5    6 ar 
     6    5   10 ar 
     7    6    7 ar 
     8    7    8 ar 
     9    8    9 ar 
    10    9   10 ar 
    11   10   11 1  
    12   11   12 1  
    13   12   13 ar 
    14   12   14 ar 
    15   13   21 ar 
    16   14   15 ar 
    17   15   16 ar 
    18   15   20 ar 
    19   16   17 ar 
    20   17   18 ar 
    21   18   19 ar 
    22   19   20 ar 
    23   20   21 ar 
    24   21   22 1  
    25   22   23 ar 
    26   22   31 ar 
    27   23   24 ar 
    28   24   25 1  
    29   24   29 ar 
    30   25   26 1  
    31   25   27 2  
    32   27   28 1  
    33   28   29 1  
    34   29   30 ar 
    35   30   31 ar 
    36    1   32 1  
    37    1   33 1  
    38    1   34 1  
    39    6   35 1  
    40    7   36 1  
    41    9   37 1  
    42   11   38 1  
    43   13   39 1  
    44   14   40 1  
    45   17   41 1  
    46   18   42 1  
    47   23   43 1  
    48   26   44 1  
    49   26   45 1  
    50   26   46 1  
    51   27   47 1  
    52   30   48 1  
    53   31   49 1  
@<TRIPOS>SUBSTRUCTURE
     1 GV8         1

