### 
### Created by X-TOOL on Mon Aug  2 16:10:12 2021
### 

@<TRIPOS>MOLECULE
6hvr_ligand
   91    92     1     0     0
SMALL
GAST_HUCK


@<TRIPOS>ATOM
      1 C6         58.0890 -134.7640   34.1230 C.3       1 GRW         0.3900
      2 C7         59.3770 -134.9530   34.8310 C.2       1 GRW         0.2613
      3 C10        61.0050 -134.2360   37.2060 C.2       1 GRW         0.2040
      4 C13        62.6220 -135.4310   40.1670 C.2       1 GRW         0.2046
      5 C15        63.5450 -135.1360   42.4280 C.3       1 GRW         0.0521
      6 C17        63.8500 -132.7970   42.6960 C.ar      1 GRW        -0.0475
      7 C20        64.9600 -130.5880   41.5010 C.ar      1 GRW        -0.0054
      8 C21        65.5250 -129.5090   40.8780 C.3       1 GRW        -0.0046
      9 C24        64.7860 -132.9280   41.7120 C.ar      1 GRW        -0.0666
     10 C26        61.7520 -136.4970   43.3360 C.3       1 GRW         0.0677
     11 C28        61.7840 -139.2650   42.6130 C.3       1 GRW         0.0544
     12 C23        65.3280 -131.8350   41.1010 C.ar      1 GRW        -0.0618
     13 N22        65.1110 -128.3400   41.3260 N.4       1 GRW         0.2299
     14 C19        64.0450 -130.4370   42.5130 C.ar      1 GRW        -0.0618
     15 C18        63.4920 -131.5450   43.1150 C.ar      1 GRW        -0.0666
     16 C16        63.3650 -133.9260   43.3090 C.3       1 GRW         0.0009
     17 C25        63.2400 -136.4490   43.1470 C.3       1 GRW        -0.0088
     18 S27        61.1710 -138.1030   43.7470 S.o2      1 GRW        -0.0337
     19 O30        61.4990 -138.4140   45.1320 O.2       1 GRW        -0.1746
     20 O29        59.7150 -138.0310   43.6360 O.2       1 GRW        -0.1746
     21 N14        62.5470 -134.9890   41.3690 N.am      1 GRW        -0.2800
     22 O31        63.6260 -135.8680   39.6680 O.2       1 GRW        -0.3944
     23 C12        61.4170 -135.0950   39.3640 C.3       1 GRW         0.1563
     24 C32        60.4070 -136.1920   39.5970 C.3       1 GRW         0.0924
     25 C14        59.2040 -135.9870   38.7270 C.3       1 GRW        -0.0346
     26 O33        60.9750 -137.3800   39.1940 O.3       1 GRW        -0.3874
     27 N11        61.7370 -134.9970   37.9600 N.am      1 GRW        -0.2613
     28 O39        60.0780 -133.6020   37.6590 O.2       1 GRW        -0.3944
     29 C9         61.4030 -134.1870   35.7560 C.3       1 GRW         0.1314
     30 C40        62.3820 -133.0690   35.7560 C.3       1 GRW        -0.0101
     31 C41        62.9570 -132.9190   34.3950 C.3       1 GRW        -0.0425
     32 C43        63.7000 -134.1860   34.0670 C.3       1 GRW        -0.0625
     33 C42        63.9620 -131.7960   34.4570 C.3       1 GRW        -0.0625
     34 N8         60.1580 -133.9200   35.0550 N.am      1 GRW        -0.2598
     35 O44        59.6690 -136.0820   35.1510 O.2       1 GRW        -0.3892
     36 N51        58.2930 -134.4930   32.7010 N.1       1 GRW         0.1916
     37 N52        58.4580 -134.3170   31.6270 N.1       1 GRW         0.5560
     38 N53        58.6190 -134.1350   30.6180 N.1       1 GRW         0.6769
     39 C54        57.5400 -133.6230   34.9260 C.3       1 GRW         0.0731
     40 C55        56.2500 -133.3280   34.6590 C.ar      1 GRW        -0.0341
     41 C56        55.8330 -132.7780   33.4780 C.ar      1 GRW        -0.0600
     42 C57        54.4860 -132.5000   33.2930 C.ar      1 GRW        -0.0686
     43 C58        53.5730 -132.7650   34.2870 C.ar      1 GRW        -0.0687
     44 C59        54.0080 -133.3110   35.4740 C.ar      1 GRW        -0.0686
     45 C60        55.3430 -133.5920   35.6520 C.ar      1 GRW        -0.0600
     46 H1         57.4436 -135.6499   34.2164 H         1 GRW         0.1463
     47 H2         64.5660 -135.1611   42.0194 H         1 GRW         0.0578
     48 H3         65.2887 -129.5690   39.8054 H         1 GRW         0.0965
     49 H4         66.6148 -129.5638   41.0171 H         1 GRW         0.0965
     50 H5         65.1050 -133.9190   41.4100 H         1 GRW         0.0540
     51 H6         61.2682 -136.1765   42.4015 H         1 GRW         0.0500
     52 H7         61.4779 -135.8058   44.1466 H         1 GRW         0.0500
     53 H8         61.4149 -140.2666   42.8787 H         1 GRW         0.0464
     54 H9         62.8836 -139.2601   42.6412 H         1 GRW         0.0464
     55 H10        61.4420 -139.0049   41.6004 H         1 GRW         0.0464
     56 H11        66.0484 -131.9598   40.3007 H         1 GRW         0.0542
     57 H12        65.5729 -127.6025   40.8173 H         1 GRW         0.2007
     58 H13        65.3294 -128.2595   42.3067 H         1 GRW         0.2007
     59 H14        64.1142 -128.2643   41.1964 H         1 GRW         0.2007
     60 H15        63.7573 -129.4439   42.8388 H         1 GRW         0.0542
     61 H16        62.7748 -131.4255   43.9189 H         1 GRW         0.0540
     62 H17        63.9068 -134.0841   44.2531 H         1 GRW         0.0435
     63 H18        62.2939 -133.7897   43.5193 H         1 GRW         0.0435
     64 H19        63.7477 -136.4747   44.1225 H         1 GRW         0.0305
     65 H20        63.5731 -137.3020   42.5376 H         1 GRW         0.0305
     66 H21        61.7147 -134.4890   41.6082 H         1 GRW         0.1856
     67 H22        61.0050 -134.1333   39.7036 H         1 GRW         0.0826
     68 H23        60.1183 -136.2282   40.6578 H         1 GRW         0.0639
     69 H24        58.4785 -136.7937   38.9085 H         1 GRW         0.0257
     70 H25        59.5093 -135.9994   37.6703 H         1 GRW         0.0257
     71 H26        58.7412 -135.0176   38.9637 H         1 GRW         0.0257
     72 H27        61.7467 -137.5551   39.7196 H         1 GRW         0.2101
     73 H28        62.5076 -135.5056   37.5760 H         1 GRW         0.1884
     74 H29        61.8619 -135.1186   35.3935 H         1 GRW         0.0800
     75 H30        63.1874 -133.2860   36.4731 H         1 GRW         0.0315
     76 H31        61.8749 -132.1367   36.0452 H         1 GRW         0.0315
     77 H32        62.1738 -132.7136   33.6505 H         1 GRW         0.0298
     78 H33        64.1383 -134.1041   33.0614 H         1 GRW         0.0232
     79 H34        63.0038 -135.0372   34.0953 H         1 GRW         0.0232
     80 H35        64.5010 -134.3427   34.8044 H         1 GRW         0.0232
     81 H36        63.4456 -130.8546   34.6958 H         1 GRW         0.0232
     82 H37        64.4662 -131.7010   33.4840 H         1 GRW         0.0232
     83 H38        64.7071 -132.0133   35.2364 H         1 GRW         0.0232
     84 H39        59.9086 -132.9981   34.7585 H         1 GRW         0.1885
     85 H40        58.1481 -132.7304   34.7175 H         1 GRW         0.0520
     86 H41        57.6211 -133.8811   35.9922 H         1 GRW         0.0520
     87 H42        56.5487 -132.5611   32.6932 H         1 GRW         0.0557
     88 H43        54.1502 -132.0700   32.3563 H         1 GRW         0.0599
     89 H44        52.5219 -132.5463   34.1375 H         1 GRW         0.0559
     90 H45        53.2993 -133.5192   36.2674 H         1 GRW         0.0599
     91 H46        55.6805 -134.0262   36.5861 H         1 GRW         0.0557
@<TRIPOS>BOND
     1    2    1 1  
     2    1   36 1  
     3    1   39 1  
     4   34    2 am 
     5    2   35 2  
     6    3   27 am 
     7    3   28 2  
     8   29    3 1  
     9    4   21 am 
    10    4   22 2  
    11   23    4 1  
    12    5   16 1  
    13    5   17 1  
    14   21    5 1  
    15    6    9 ar 
    16    6   15 ar 
    17   16    6 1  
    18    7    8 1  
    19   12    7 ar 
    20   14    7 ar 
    21    8   13 1  
    22    9   12 ar 
    23   17   10 1  
    24   10   18 1  
    25   18   11 1  
    26   15   14 ar 
    27   18   19 2  
    28   18   20 2  
    29   23   24 1  
    30   27   23 1  
    31   24   25 1  
    32   24   26 1  
    33   29   30 1  
    34   29   34 1  
    35   30   31 1  
    36   31   32 1  
    37   31   33 1  
    38   36   37 3  
    39   37   38 3  
    40   39   40 1  
    41   40   41 ar 
    42   40   45 ar 
    43   41   42 ar 
    44   42   43 ar 
    45   43   44 ar 
    46   44   45 ar 
    47    1   46 1  
    48    5   47 1  
    49    8   48 1  
    50    8   49 1  
    51    9   50 1  
    52   10   51 1  
    53   10   52 1  
    54   11   53 1  
    55   11   54 1  
    56   11   55 1  
    57   12   56 1  
    58   13   57 1  
    59   13   58 1  
    60   13   59 1  
    61   14   60 1  
    62   15   61 1  
    63   16   62 1  
    64   16   63 1  
    65   17   64 1  
    66   17   65 1  
    67   21   66 1  
    68   23   67 1  
    69   24   68 1  
    70   25   69 1  
    71   25   70 1  
    72   25   71 1  
    73   26   72 1  
    74   27   73 1  
    75   29   74 1  
    76   30   75 1  
    77   30   76 1  
    78   31   77 1  
    79   32   78 1  
    80   32   79 1  
    81   32   80 1  
    82   33   81 1  
    83   33   82 1  
    84   33   83 1  
    85   34   84 1  
    86   39   85 1  
    87   39   86 1  
    88   41   87 1  
    89   42   88 1  
    90   43   89 1  
    91   44   90 1  
    92   45   91 1  
@<TRIPOS>SUBSTRUCTURE
     1 GRW         1

