### 
### Created by X-TOOL on Mon Aug  2 16:10:13 2021
### 

@<TRIPOS>MOLECULE
6hvs_ligand
   84    85     1     0     0
SMALL
GAST_HUCK


@<TRIPOS>ATOM
      1 C4         54.2630 -133.8190   35.5630 C.ar      1 GRT        -0.0600
      2 C5         52.9580 -133.3930   35.2560 C.ar      1 GRT        -0.0686
      3 C6         52.5950 -133.0810   33.9390 C.ar      1 GRT        -0.0687
      4 C7         56.5480 -134.3830   34.8960 C.3       1 GRT         0.0575
      5 C8         57.6820 -134.0370   33.8800 C.3       1 GRT         0.3131
      6 C15        61.1080 -134.4150   35.5230 C.3       1 GRT         0.1313
      7 C17        62.9040 -133.2280   34.2110 C.3       1 GRT        -0.0425
      8 C28        61.0740 -135.5310   39.1110 C.3       1 GRT         0.1200
      9 C39        64.7010 -132.9580   41.2040 C.ar      1 GRT        -0.0666
     10 C40        65.2150 -131.8010   40.6390 C.ar      1 GRT        -0.0618
     11 C41        64.8840 -130.5530   41.1450 C.ar      1 GRT        -0.0054
     12 C44        65.4500 -129.4290   40.5270 C.3       1 GRT        -0.0046
     13 N45        64.5860 -128.2360   40.4790 N.4       1 GRT         0.2299
     14 C42        64.0290 -130.4940   42.2550 C.ar      1 GRT        -0.0618
     15 C43        63.5090 -131.6610   42.8230 C.ar      1 GRT        -0.0666
     16 C38        63.8310 -132.9190   42.3090 C.ar      1 GRT        -0.0475
     17 C37        63.2810 -134.0230   42.9490 C.3       1 GRT         0.0009
     18 C36        63.3320 -135.3080   42.0650 C.3       1 GRT         0.0521
     19 C46        63.0830 -136.6140   42.8390 C.3       1 GRT        -0.0088
     20 C47        61.6220 -136.6910   43.3020 C.3       1 GRT         0.0677
     21 S48        60.9740 -138.3900   43.4570 S.o2      1 GRT        -0.0337
     22 O49        59.6900 -138.3160   44.2700 O.2       1 GRT        -0.1746
     23 O50        61.9460 -139.2630   44.2080 O.2       1 GRT        -0.1746
     24 C51        60.6450 -139.1810   41.9020 C.3       1 GRT         0.0544
     25 N35        62.3070 -135.1600   41.0470 N.am      1 GRT        -0.2804
     26 C33        62.3070 -135.8200   39.8950 C.2       1 GRT         0.1989
     27 O34        63.1740 -136.6020   39.5110 O.2       1 GRT        -0.3948
     28 N27        61.4350 -135.3260   37.7130 N.am      1 GRT        -0.2664
     29 C25        60.6650 -134.5550   36.9500 C.2       1 GRT         0.2037
     30 O26        59.6850 -133.9260   37.3580 O.2       1 GRT        -0.3944
     31 C16        62.2700 -133.4340   35.5720 C.3       1 GRT        -0.0101
     32 C19        63.4860 -134.5350   33.6670 C.3       1 GRT        -0.0625
     33 C18        63.9970 -132.1550   34.3550 C.3       1 GRT        -0.0625
     34 N14        59.9050 -133.8970   34.8740 N.am      1 GRT        -0.2609
     35 C12        58.9730 -134.7230   34.3700 C.2       1 GRT         0.2449
     36 O13        59.1010 -135.9430   34.3230 O.2       1 GRT        -0.3906
     37 N9         57.3340 -134.3830   32.4790 N.2       1 GRT         0.1934
     38 N10        57.6540 -135.5640   31.8950 N.1       1 GRT         0.1323
     39 N11        57.9530 -136.7390   31.2750 N.1       1 GRT         0.2336
     40 C3         55.2360 -133.9360   34.5570 C.ar      1 GRT        -0.0354
     41 C1         53.5440 -133.1960   32.9290 C.ar      1 GRT        -0.0686
     42 C2         54.8370 -133.6230   33.2500 C.ar      1 GRT        -0.0600
     43 H1         54.5207 -134.0598   36.5880 H         1 GRT         0.0557
     44 H2         52.2236 -133.3049   36.0485 H         1 GRT         0.0599
     45 H3         51.5871 -132.7541   33.7103 H         1 GRT         0.0559
     46 H4         56.8158 -133.9325   35.8631 H         1 GRT         0.0506
     47 H5         56.5127 -135.4776   34.9986 H         1 GRT         0.0506
     48 H6         57.8437 -132.9494   33.9097 H         1 GRT         0.1271
     49 H7         61.4231 -135.3674   35.0718 H         1 GRT         0.0800
     50 H8         62.1376 -132.8691   33.5083 H         1 GRT         0.0298
     51 H9         60.5918 -134.6237   39.5038 H         1 GRT         0.0763
     52 H10        60.3789 -136.3798   39.1913 H         1 GRT         0.0763
     53 H11        64.9767 -133.9182   40.7832 H         1 GRT         0.0540
     54 H12        65.8850 -131.8729   39.7899 H         1 GRT         0.0542
     55 H13        65.7087 -129.7032   39.4936 H         1 GRT         0.0965
     56 H14        66.3655 -129.1639   41.0762 H         1 GRT         0.0965
     57 H15        65.0761 -127.4845   40.0195 H         1 GRT         0.2007
     58 H16        64.3465 -127.9566   41.4174 H         1 GRT         0.2007
     59 H17        63.7446 -128.4508   39.9672 H         1 GRT         0.2007
     60 H18        63.7678 -129.5308   42.6783 H         1 GRT         0.0542
     61 H19        62.8448 -131.5881   43.6766 H         1 GRT         0.0540
     62 H20        62.2312 -133.8034   43.1932 H         1 GRT         0.0435
     63 H21        63.8419 -134.2097   43.8766 H         1 GRT         0.0435
     64 H22        64.3221 -135.3709   41.5899 H         1 GRT         0.0578
     65 H23        63.7438 -136.6462   43.7178 H         1 GRT         0.0305
     66 H24        63.3014 -137.4706   42.1844 H         1 GRT         0.0305
     67 H25        61.0004 -136.1500   42.5734 H         1 GRT         0.0500
     68 H26        61.5453 -136.2018   44.2842 H         1 GRT         0.0500
     69 H27        60.2595 -140.1956   42.0811 H         1 GRT         0.0464
     70 H28        61.5745 -139.2400   41.3167 H         1 GRT         0.0464
     71 H29        59.8972 -138.5977   41.3448 H         1 GRT         0.0464
     72 H30        61.5566 -134.5232   41.2242 H         1 GRT         0.1856
     73 H31        62.2517 -135.7599   37.3325 H         1 GRT         0.1881
     74 H32        63.0327 -133.8227   36.2627 H         1 GRT         0.0315
     75 H33        61.9007 -132.4657   35.9408 H         1 GRT         0.0315
     76 H34        63.9377 -134.3527   32.6807 H         1 GRT         0.0232
     77 H35        62.6839 -135.2815   33.5706 H         1 GRT         0.0232
     78 H36        64.2548 -134.9100   34.3586 H         1 GRT         0.0232
     79 H37        63.5519 -131.2285   34.7469 H         1 GRT         0.0232
     80 H38        64.4487 -131.9574   33.3717 H         1 GRT         0.0232
     81 H39        64.7719 -132.5118   35.0494 H         1 GRT         0.0232
     82 H40        59.7731 -132.9082   34.8038 H         1 GRT         0.1884
     83 H41        53.2846 -132.9573   31.9039 H         1 GRT         0.0599
     84 H42        55.5639 -133.7161   32.4513 H         1 GRT         0.0557
@<TRIPOS>BOND
     1    1    2 ar 
     2   40    1 ar 
     3    2    3 ar 
     4    3   41 ar 
     5    5    4 1  
     6    4   40 1  
     7   35    5 1  
     8    5   37 1  
     9    6   29 1  
    10    6   31 1  
    11   34    6 1  
    12   31    7 1  
    13    7   32 1  
    14    7   33 1  
    15    8   26 1  
    16   28    8 1  
    17    9   10 ar 
    18   16    9 ar 
    19   10   11 ar 
    20   11   12 1  
    21   14   11 ar 
    22   12   13 1  
    23   15   14 ar 
    24   16   15 ar 
    25   17   16 1  
    26   18   17 1  
    27   18   19 1  
    28   25   18 1  
    29   19   20 1  
    30   20   21 1  
    31   21   22 2  
    32   21   23 2  
    33   21   24 1  
    34   26   25 am 
    35   26   27 2  
    36   29   28 am 
    37   29   30 2  
    38   34   35 am 
    39   35   36 2  
    40   37   38 2  
    41   38   39 3  
    42   40   42 ar 
    43   41   42 ar 
    44    1   43 1  
    45    2   44 1  
    46    3   45 1  
    47    4   46 1  
    48    4   47 1  
    49    5   48 1  
    50    6   49 1  
    51    7   50 1  
    52    8   51 1  
    53    8   52 1  
    54    9   53 1  
    55   10   54 1  
    56   12   55 1  
    57   12   56 1  
    58   13   57 1  
    59   13   58 1  
    60   13   59 1  
    61   14   60 1  
    62   15   61 1  
    63   17   62 1  
    64   17   63 1  
    65   18   64 1  
    66   19   65 1  
    67   19   66 1  
    68   20   67 1  
    69   20   68 1  
    70   24   69 1  
    71   24   70 1  
    72   24   71 1  
    73   25   72 1  
    74   28   73 1  
    75   31   74 1  
    76   31   75 1  
    77   32   76 1  
    78   32   77 1  
    79   32   78 1  
    80   33   79 1  
    81   33   80 1  
    82   33   81 1  
    83   34   82 1  
    84   41   83 1  
    85   42   84 1  
@<TRIPOS>SUBSTRUCTURE
     1 GRT         1

