### 
### Created by X-TOOL on Mon Aug  2 16:10:13 2021
### 

@<TRIPOS>MOLECULE
6hvt_ligand
   82    83     1     0     0
SMALL
GAST_HUCK


@<TRIPOS>ATOM
      1 C4         55.2920 -134.9150   31.7080 C.3       1 GT5         0.0097
      2 C6         58.4600 -134.6070   33.9280 C.2       1 GT5         0.1120
      3 C7         59.6230 -134.9140   34.4870 C.2       1 GT5         0.2069
      4 C10        61.2150 -134.2910   37.0510 C.2       1 GT5         0.2038
      5 C13        62.7950 -135.7290   40.0790 C.2       1 GT5         0.2043
      6 C15        63.6420 -135.3070   42.3640 C.3       1 GT5         0.0521
      7 C17        64.1320 -132.8830   42.5500 C.ar      1 GT5        -0.0475
      8 C20        65.2040 -130.5720   41.3430 C.ar      1 GT5        -0.0054
      9 C21        65.7980 -129.5150   40.6410 C.3       1 GT5        -0.0046
     10 C24        64.9620 -132.9660   41.4210 C.ar      1 GT5        -0.0666
     11 C26        61.8980 -136.7110   43.5010 C.3       1 GT5         0.0677
     12 C28        61.8810 -139.6510   42.7960 C.3       1 GT5         0.0544
     13 C3         56.4470 -134.5960   32.6570 C.2       1 GT5         0.0962
     14 S5         57.7280 -135.5760   32.7930 S.3       1 GT5         0.0124
     15 N2         56.5600 -133.5270   33.4790 N.2       1 GT5        -0.3095
     16 C1         57.6940 -133.5350   34.2030 C.2       1 GT5        -0.0031
     17 O44        59.9530 -136.0920   34.6440 O.2       1 GT5        -0.3934
     18 N8         60.3560 -133.8810   34.8940 N.am      1 GT5        -0.2673
     19 C9         61.6070 -134.0900   35.5970 C.3       1 GT5         0.1302
     20 C40        62.4230 -132.8380   35.3260 C.3       1 GT5        -0.0102
     21 C41        63.9060 -133.0530   35.5580 C.3       1 GT5        -0.0425
     22 C43        64.6730 -131.7640   35.2020 C.3       1 GT5        -0.0625
     23 C42        64.3930 -134.1940   34.6710 C.3       1 GT5        -0.0625
     24 O39        60.1600 -133.8230   37.4780 O.2       1 GT5        -0.3944
     25 N11        62.0130 -135.0850   37.7750 N.am      1 GT5        -0.2616
     26 C12        61.6200 -135.4410   39.1440 C.3       1 GT5         0.1540
     27 C32        60.7730 -136.7010   38.9870 C.3       1 GT5         0.0874
     28 O36        60.2330 -137.1150   40.2440 O.3       1 GT5        -0.3783
     29 C34        58.9650 -137.7840   40.1180 C.3       1 GT5         0.0367
     30 O31        63.7140 -136.4710   39.7470 O.2       1 GT5        -0.3944
     31 N14        62.6650 -135.1540   41.2760 N.am      1 GT5        -0.2800
     32 C25        63.3980 -136.5820   43.1970 C.3       1 GT5        -0.0088
     33 S27        61.2560 -138.3760   43.8720 S.o2      1 GT5        -0.0337
     34 O29        59.7530 -138.3180   43.6620 O.2       1 GT5        -0.1746
     35 O30        61.5030 -138.7280   45.3200 O.2       1 GT5        -0.1746
     36 C16        63.5790 -133.9950   43.2040 C.3       1 GT5         0.0009
     37 C18        63.8510 -131.6220   43.0700 C.ar      1 GT5        -0.0666
     38 C19        64.3730 -130.4750   42.4740 C.ar      1 GT5        -0.0618
     39 N22        65.7330 -128.1800   41.2550 N.4       1 GT5         0.2299
     40 C23        65.4810 -131.8310   40.8310 C.ar      1 GT5        -0.0618
     41 H1         54.5333 -134.1213   31.7740 H         1 GT5         0.0500
     42 H2         54.8409 -135.8778   31.9901 H         1 GT5         0.0500
     43 H3         55.6706 -134.9755   30.6770 H         1 GT5         0.0500
     44 H4         64.6471 -135.3907   41.9250 H         1 GT5         0.0578
     45 H5         65.3061 -129.4520   39.6591 H         1 GT5         0.0965
     46 H6         66.8604 -129.7646   40.5035 H         1 GT5         0.0965
     47 H7         65.1996 -133.9385   41.0051 H         1 GT5         0.0540
     48 H8         61.3504 -136.3343   42.6246 H         1 GT5         0.0500
     49 H9         61.6818 -136.0730   44.3706 H         1 GT5         0.0500
     50 H10        61.4474 -140.6197   43.0850 H         1 GT5         0.0464
     51 H11        62.9765 -139.6993   42.8824 H         1 GT5         0.0464
     52 H12        61.6049 -139.4213   41.7563 H         1 GT5         0.0464
     53 H13        57.9605 -132.7653   34.9258 H         1 GT5         0.0669
     54 H14        60.0406 -132.9495   34.7130 H         1 GT5         0.1867
     55 H15        62.1440 -134.9759   35.2271 H         1 GT5         0.0798
     56 H16        62.0735 -132.0370   35.9940 H         1 GT5         0.0315
     57 H17        62.2694 -132.5358   34.2795 H         1 GT5         0.0315
     58 H18        64.0813 -133.3061   36.6140 H         1 GT5         0.0298
     59 H19        65.7489 -131.9193   35.3701 H         1 GT5         0.0232
     60 H20        64.3181 -130.9389   35.8370 H         1 GT5         0.0232
     61 H21        64.4994 -131.5141   34.1449 H         1 GT5         0.0232
     62 H22        63.8463 -135.1143   34.9243 H         1 GT5         0.0232
     63 H23        65.4696 -134.3507   34.8332 H         1 GT5         0.0232
     64 H24        64.2143 -133.9400   33.6157 H         1 GT5         0.0232
     65 H25        62.8673 -135.4318   37.3878 H         1 GT5         0.1884
     66 H26        61.0204 -134.6266   39.5767 H         1 GT5         0.0823
     67 H27        61.4007 -137.5083   38.5818 H         1 GT5         0.0608
     68 H28        59.9466 -136.4946   38.2910 H         1 GT5         0.0608
     69 H29        58.6040 -138.0762   41.1151 H         1 GT5         0.0524
     70 H30        59.0845 -138.6818   39.4937 H         1 GT5         0.0524
     71 H31        58.2374 -137.1054   39.6490 H         1 GT5         0.0524
     72 H32        61.8580 -134.5874   41.4424 H         1 GT5         0.1856
     73 H33        63.9598 -136.5175   44.1405 H         1 GT5         0.0305
     74 H34        63.7347 -137.4619   42.6291 H         1 GT5         0.0305
     75 H35        64.1296 -134.1560   44.1425 H         1 GT5         0.0435
     76 H36        62.5248 -133.7769   43.4301 H         1 GT5         0.0435
     77 H37        63.2201 -131.5315   43.9469 H         1 GT5         0.0540
     78 H38        64.1367 -129.5003   42.8854 H         1 GT5         0.0542
     79 H39        66.1927 -127.5120   40.6562 H         1 GT5         0.2007
     80 H40        66.1931 -128.1998   42.1517 H         1 GT5         0.2007
     81 H41        64.7687 -127.9132   41.3779 H         1 GT5         0.2007
     82 H42        66.1136 -131.9249   39.9557 H         1 GT5         0.0542
@<TRIPOS>BOND
     1   13    1 1  
     2    3    2 1  
     3    2   14 1  
     4    2   16 2  
     5    3   17 2  
     6   18    3 am 
     7    4   19 1  
     8    4   24 2  
     9   25    4 am 
    10   26    5 1  
    11    5   30 2  
    12    5   31 am 
    13   31    6 1  
    14    6   32 1  
    15    6   36 1  
    16    7   10 ar 
    17   36    7 1  
    18    7   37 ar 
    19    8    9 1  
    20    8   38 ar 
    21   40    8 ar 
    22    9   39 1  
    23   10   40 ar 
    24   32   11 1  
    25   11   33 1  
    26   33   12 1  
    27   14   13 1  
    28   15   13 2  
    29   16   15 1  
    30   19   18 1  
    31   19   20 1  
    32   20   21 1  
    33   21   22 1  
    34   21   23 1  
    35   25   26 1  
    36   26   27 1  
    37   27   28 1  
    38   28   29 1  
    39   33   34 2  
    40   33   35 2  
    41   37   38 ar 
    42    1   41 1  
    43    1   42 1  
    44    1   43 1  
    45    6   44 1  
    46    9   45 1  
    47    9   46 1  
    48   10   47 1  
    49   11   48 1  
    50   11   49 1  
    51   12   50 1  
    52   12   51 1  
    53   12   52 1  
    54   16   53 1  
    55   18   54 1  
    56   19   55 1  
    57   20   56 1  
    58   20   57 1  
    59   21   58 1  
    60   22   59 1  
    61   22   60 1  
    62   22   61 1  
    63   23   62 1  
    64   23   63 1  
    65   23   64 1  
    66   25   65 1  
    67   26   66 1  
    68   27   67 1  
    69   27   68 1  
    70   29   69 1  
    71   29   70 1  
    72   29   71 1  
    73   31   72 1  
    74   32   73 1  
    75   32   74 1  
    76   36   75 1  
    77   36   76 1  
    78   37   77 1  
    79   38   78 1  
    80   39   79 1  
    81   39   80 1  
    82   39   81 1  
    83   40   82 1  
@<TRIPOS>SUBSTRUCTURE
     1 GT5         1

