### 
### Created by X-TOOL on Mon Aug  2 16:10:13 2021
### 

@<TRIPOS>MOLECULE
6hvu_ligand
   94    96     1     0     0
SMALL
GAST_HUCK


@<TRIPOS>ATOM
      1 C4         54.6420 -132.2600   34.0520 C.3       1 GTW         0.0097
      2 C6         57.6670 -134.4410   34.2920 C.2       1 GTW         0.1120
      3 C7         58.8640 -134.8530   34.6250 C.2       1 GTW         0.2069
      4 C10        60.7340 -134.2900   37.2550 C.2       1 GTW         0.2038
      5 C13        62.4310 -135.2950   40.1610 C.2       1 GTW         0.2020
      6 C15        63.1250 -134.8790   42.5280 C.3       1 GTW         0.0521
      7 C17        63.5490 -132.4610   42.7610 C.ar      1 GTW        -0.0475
      8 C20        64.7930 -130.2640   41.6220 C.ar      1 GTW        -0.0054
      9 C21        65.4290 -129.2190   41.0100 C.3       1 GTW        -0.0046
     10 C24        64.5470 -132.6190   41.8410 C.ar      1 GTW        -0.0666
     11 C26        61.4770 -136.2900   43.5180 C.3       1 GTW         0.0677
     12 C28        61.5200 -139.0350   42.7450 C.3       1 GTW         0.0544
     13 C3         55.7670 -133.2690   34.0140 C.2       1 GTW         0.0962
     14 S5         57.0370 -133.1400   34.7050 S.3       1 GTW         0.0124
     15 N2         55.7350 -134.4020   33.3290 N.2       1 GTW        -0.3095
     16 C1         56.8590 -135.0960   33.4800 C.2       1 GTW        -0.0031
     17 O44        59.2200 -135.9960   34.4290 O.2       1 GTW        -0.3934
     18 N8         59.5580 -134.0070   35.3090 N.am      1 GTW        -0.2673
     19 C9         60.8970 -134.2810   35.7660 C.3       1 GTW         0.1302
     20 C40        61.6310 -133.0670   35.2870 C.3       1 GTW        -0.0102
     21 C41        63.0980 -133.1430   35.5090 C.3       1 GTW        -0.0425
     22 C42        63.6370 -134.2040   34.5910 C.3       1 GTW        -0.0625
     23 C43        63.6840 -131.8540   35.0010 C.3       1 GTW        -0.0625
     24 O39        60.0650 -133.4380   37.8090 O.2       1 GTW        -0.3944
     25 N11        61.3490 -135.2300   37.9420 N.am      1 GTW        -0.2637
     26 C12        61.1780 -135.2220   39.3870 C.3       1 GTW         0.1311
     27 C32        60.5460 -136.5150   39.8160 C.3       1 GTW        -0.0096
     28 C33        59.2210 -136.8370   39.1750 C.3       1 GTW        -0.0368
     29 C38        58.7220 -138.0950   39.7510 C.3       1 GTW        -0.0500
     30 C37        57.4220 -138.4380   39.1360 C.3       1 GTW        -0.0528
     31 C36        56.4720 -137.3690   39.4030 C.3       1 GTW        -0.0530
     32 C35        56.9660 -136.0930   38.8330 C.3       1 GTW        -0.0528
     33 C34        58.2700 -135.7690   39.4600 C.3       1 GTW        -0.0500
     34 O31        63.4790 -135.6670   39.7010 O.2       1 GTW        -0.3945
     35 N14        62.2110 -134.9620   41.3850 N.am      1 GTW        -0.2801
     36 C25        62.9580 -136.1880   43.3160 C.3       1 GTW        -0.0088
     37 S27        60.9200 -137.9190   43.9340 S.o2      1 GTW        -0.0337
     38 O30        61.2860 -138.3990   45.2990 O.2       1 GTW        -0.1746
     39 O29        59.4550 -137.8270   43.7770 O.2       1 GTW        -0.1746
     40 C16        63.0130 -133.6020   43.3620 C.3       1 GTW         0.0009
     41 C23        65.1560 -131.5310   41.2670 C.ar      1 GTW        -0.0618
     42 N22        65.0050 -127.9510   41.5600 N.4       1 GTW         0.2299
     43 C19        63.8140 -130.0810   42.5670 C.ar      1 GTW        -0.0618
     44 C18        63.2030 -131.1790   43.1440 C.ar      1 GTW        -0.0666
     45 H1         53.8047 -132.6211   33.4367 H         1 GTW         0.0500
     46 H2         54.9991 -131.2976   33.6568 H         1 GTW         0.0500
     47 H3         54.3035 -132.1272   35.0901 H         1 GTW         0.0500
     48 H4         64.1477 -134.8741   42.1230 H         1 GTW         0.0578
     49 H5         65.1973 -129.2386   39.9349 H         1 GTW         0.0965
     50 H6         66.5143 -129.3266   41.1532 H         1 GTW         0.0965
     51 H7         64.8621 -133.6176   41.5606 H         1 GTW         0.0540
     52 H8         60.9784 -135.9806   42.5876 H         1 GTW         0.0500
     53 H9         61.1906 -135.6077   44.3319 H         1 GTW         0.0500
     54 H10        61.1806 -140.0517   42.9922 H         1 GTW         0.0464
     55 H11        62.6196 -139.0071   42.7379 H         1 GTW         0.0464
     56 H12        61.1396 -138.7528   41.7522 H         1 GTW         0.0464
     57 H13        57.0780 -136.0529   33.0085 H         1 GTW         0.0669
     58 H14        59.1486 -133.1222   35.5318 H         1 GTW         0.1867
     59 H15        61.3311 -135.2169   35.3844 H         1 GTW         0.0798
     60 H16        61.2416 -132.1891   35.8232 H         1 GTW         0.0315
     61 H17        61.4465 -132.9499   34.2089 H         1 GTW         0.0315
     62 H18        63.3473 -133.3333   36.5633 H         1 GTW         0.0298
     63 H19        64.7251 -134.2890   34.7279 H         1 GTW         0.0232
     64 H20        63.4189 -133.9316   33.5478 H         1 GTW         0.0232
     65 H21        63.1615 -135.1678   34.8254 H         1 GTW         0.0232
     66 H22        63.3335 -131.0201   35.6269 H         1 GTW         0.0232
     67 H23        63.3652 -131.6910   33.9609 H         1 GTW         0.0232
     68 H24        64.7818 -131.9083   35.0438 H         1 GTW         0.0232
     69 H25        61.9112 -135.9218   37.4888 H         1 GTW         0.1883
     70 H26        60.5806 -134.3456   39.6786 H         1 GTW         0.0800
     71 H27        60.3936 -136.4723   40.9045 H         1 GTW         0.0315
     72 H28        61.2450 -137.3295   39.5752 H         1 GTW         0.0315
     73 H29        59.3460 -136.9440   38.0874 H         1 GTW         0.0303
     74 H30        58.5935 -137.9754   40.8369 H         1 GTW         0.0268
     75 H31        59.4446 -138.9005   39.5537 H         1 GTW         0.0268
     76 H32        57.0480 -139.3789   39.5659 H         1 GTW         0.0265
     77 H33        57.5481 -138.5558   38.0496 H         1 GTW         0.0265
     78 H34        56.3465 -137.2572   40.4901 H         1 GTW         0.0265
     79 H35        55.5036 -137.6206   38.9460 H         1 GTW         0.0265
     80 H36        56.2444 -135.2896   39.0421 H         1 GTW         0.0265
     81 H37        57.0935 -136.1975   37.7454 H         1 GTW         0.0265
     82 H38        58.6488 -134.8209   39.0507 H         1 GTW         0.0268
     83 H39        58.1406 -135.6730   40.5481 H         1 GTW         0.0268
     84 H40        61.2623 -134.7207   41.5892 H         1 GTW         0.1856
     85 H41        63.4834 -136.1355   44.2810 H         1 GTW         0.0305
     86 H42        63.3357 -137.0449   42.7389 H         1 GTW         0.0305
     87 H43        63.5400 -133.7672   44.3133 H         1 GTW         0.0435
     88 H44        61.9473 -133.4154   43.5607 H         1 GTW         0.0435
     89 H45        65.9323 -131.6793   40.5250 H         1 GTW         0.0542
     90 H46        65.4895 -127.2022   41.0903 H         1 GTW         0.2007
     91 H47        65.2184 -127.9237   42.5448 H         1 GTW         0.2007
     92 H48        64.0115 -127.8430   41.4283 H         1 GTW         0.2007
     93 H49        63.5211 -129.0792   42.8597 H         1 GTW         0.0542
     94 H50        62.4447 -131.0327   43.9047 H         1 GTW         0.0540
@<TRIPOS>BOND
     1   13    1 1  
     2    3    2 1  
     3    2   14 1  
     4    2   16 2  
     5    3   17 2  
     6   18    3 am 
     7    4   19 1  
     8    4   24 2  
     9   25    4 am 
    10   26    5 1  
    11    5   34 2  
    12    5   35 am 
    13   35    6 1  
    14    6   36 1  
    15    6   40 1  
    16    7   10 ar 
    17   40    7 1  
    18    7   44 ar 
    19    8    9 1  
    20   41    8 ar 
    21    8   43 ar 
    22    9   42 1  
    23   10   41 ar 
    24   36   11 1  
    25   11   37 1  
    26   37   12 1  
    27   14   13 1  
    28   15   13 2  
    29   16   15 1  
    30   19   18 1  
    31   19   20 1  
    32   20   21 1  
    33   21   22 1  
    34   21   23 1  
    35   25   26 1  
    36   26   27 1  
    37   27   28 1  
    38   28   29 1  
    39   28   33 1  
    40   29   30 1  
    41   30   31 1  
    42   31   32 1  
    43   32   33 1  
    44   37   38 2  
    45   37   39 2  
    46   43   44 ar 
    47    1   45 1  
    48    1   46 1  
    49    1   47 1  
    50    6   48 1  
    51    9   49 1  
    52    9   50 1  
    53   10   51 1  
    54   11   52 1  
    55   11   53 1  
    56   12   54 1  
    57   12   55 1  
    58   12   56 1  
    59   16   57 1  
    60   18   58 1  
    61   19   59 1  
    62   20   60 1  
    63   20   61 1  
    64   21   62 1  
    65   22   63 1  
    66   22   64 1  
    67   22   65 1  
    68   23   66 1  
    69   23   67 1  
    70   23   68 1  
    71   25   69 1  
    72   26   70 1  
    73   27   71 1  
    74   27   72 1  
    75   28   73 1  
    76   29   74 1  
    77   29   75 1  
    78   30   76 1  
    79   30   77 1  
    80   31   78 1  
    81   31   79 1  
    82   32   80 1  
    83   32   81 1  
    84   33   82 1  
    85   33   83 1  
    86   35   84 1  
    87   36   85 1  
    88   36   86 1  
    89   40   87 1  
    90   40   88 1  
    91   41   89 1  
    92   42   90 1  
    93   42   91 1  
    94   42   92 1  
    95   43   93 1  
    96   44   94 1  
@<TRIPOS>SUBSTRUCTURE
     1 GTW         1

