### 
### Created by X-TOOL on Mon Aug  2 16:10:14 2021
### 

@<TRIPOS>MOLECULE
6hvv_ligand
   96    98     1     0     0
SMALL
GAST_HUCK


@<TRIPOS>ATOM
      1 C4         64.1740 -130.9210   43.7560 C.3       1 GT8        -0.0502
      2 C5         63.9580 -129.4420   44.0510 C.3       1 GT8        -0.0528
      3 C6         64.9160 -128.6340   43.1840 C.3       1 GT8        -0.0530
      4 C7         63.6470 -133.6650   42.8230 C.3       1 GT8        -0.0271
      5 C8         63.5980 -135.0510   42.1900 C.3       1 GT8         0.0706
      6 C10        63.9720 -137.8250   41.2420 C.3       1 GT8        -0.0338
      7 C24        61.1490 -135.3590   39.2810 C.3       1 GT8         0.1389
      8 C26        60.8370 -134.3080   37.0780 C.2       1 GT8         0.2037
      9 C2         64.8310 -130.2610   41.4380 C.3       1 GT8        -0.0502
     10 C1         64.5390 -128.8370   41.7650 C.3       1 GT8        -0.0528
     11 C3         63.9300 -131.1840   42.2550 C.3       1 GT8        -0.0410
     12 C50        64.2170 -132.6410   41.8320 C.3       1 GT8        -0.0480
     13 C9         63.4200 -136.1600   43.2650 C.3       1 GT8         0.1061
     14 O21        62.1370 -135.9310   43.8460 O.3       1 GT8        -0.3867
     15 C11        64.4310 -138.6720   43.4650 C.3       1 GT8        -0.0338
     16 C12        63.4720 -137.6690   42.7050 C.3       1 GT8         0.0884
     17 O13        62.1130 -138.1520   42.6960 O.3       1 GT8        -0.3865
     18 N22        62.4350 -135.0870   41.2940 N.am      1 GT8        -0.2793
     19 C23        62.5060 -135.3160   39.9730 C.2       1 GT8         0.2038
     20 O49        63.5400 -135.5370   39.3380 O.2       1 GT8        -0.3944
     21 C40        60.4990 -136.6900   39.6390 C.3       1 GT8         0.0163
     22 C41        59.1480 -136.6770   39.3530 C.ar      1 GT8        -0.0493
     23 C48        58.7080 -136.8970   38.0570 C.ar      1 GT8        -0.0685
     24 C47        57.3440 -136.8960   37.7760 C.ar      1 GT8        -0.0396
     25 C44        56.3970 -136.6790   38.7800 C.ar      1 GT8         0.0837
     26 O45        55.0740 -136.6930   38.4010 O.3       1 GT8        -0.3257
     27 C46        53.9740 -136.6070   39.3340 C.3       1 GT8         0.0579
     28 C43        56.8560 -136.4570   40.0870 C.ar      1 GT8        -0.0396
     29 C42        58.2180 -136.4580   40.3640 C.ar      1 GT8        -0.0685
     30 N25        61.4020 -135.2520   37.8440 N.am      1 GT8        -0.2621
     31 O39        60.0220 -133.4710   37.4660 O.2       1 GT8        -0.3944
     32 C27        61.2930 -134.3370   35.6180 C.3       1 GT8         0.1283
     33 C38        62.4940 -133.3920   35.4600 C.3       1 GT8        -0.0244
     34 N28        60.1660 -133.9750   34.7330 N.am      1 GT8        -0.2615
     35 C29        59.2030 -134.8730   34.4630 C.2       1 GT8         0.2238
     36 O37        59.1910 -136.0210   34.8980 O.2       1 GT8        -0.3910
     37 C30        58.0760 -134.4230   33.5330 C.3       1 GT8         0.0582
     38 N31        56.9550 -133.7670   34.2470 N.4       1 GT8         0.2552
     39 C36        56.5930 -134.3670   35.5380 C.3       1 GT8        -0.0060
     40 C35        55.3650 -133.5870   36.0790 C.3       1 GT8         0.0878
     41 O34        54.2710 -133.5520   35.1280 O.3       1 GT8        -0.3693
     42 C33        54.6660 -132.8820   33.9090 C.3       1 GT8         0.0878
     43 C32        55.8220 -133.6700   33.3290 C.3       1 GT8        -0.0060
     44 H1         63.4713 -131.5210   44.3529 H         1 GT8         0.0268
     45 H2         65.2061 -131.2002   44.0146 H         1 GT8         0.0268
     46 H3         64.1598 -129.2417   45.1136 H         1 GT8         0.0265
     47 H4         62.9200 -129.1640   43.8161 H         1 GT8         0.0265
     48 H5         65.9477 -128.9785   43.3482 H         1 GT8         0.0265
     49 H6         64.8406 -127.5670   43.4404 H         1 GT8         0.0265
     50 H7         64.2866 -133.6979   43.7173 H         1 GT8         0.0288
     51 H8         62.6294 -133.3624   43.1109 H         1 GT8         0.0288
     52 H9         64.5230 -135.2328   41.6232 H         1 GT8         0.0582
     53 H10        63.9673 -138.8894   40.9645 H         1 GT8         0.0258
     54 H11        64.9950 -137.4292   41.1599 H         1 GT8         0.0258
     55 H12        63.3076 -137.2669   40.5659 H         1 GT8         0.0258
     56 H13        60.5110 -134.5274   39.6147 H         1 GT8         0.0821
     57 H14        65.8833 -130.4794   41.6724 H         1 GT8         0.0268
     58 H15        64.6508 -130.4323   40.3665 H         1 GT8         0.0268
     59 H16        65.1296 -128.1718   41.1180 H         1 GT8         0.0265
     60 H17        63.4680 -128.6289   41.6248 H         1 GT8         0.0265
     61 H18        62.8771 -130.9577   42.0309 H         1 GT8         0.0301
     62 H19        63.7654 -132.8168   40.8445 H         1 GT8         0.0269
     63 H20        65.3061 -132.7813   41.7674 H         1 GT8         0.0269
     64 H21        64.2065 -136.0473   44.0258 H         1 GT8         0.0645
     65 H22        61.9726 -136.5845   44.5157 H         1 GT8         0.2100
     66 H23        64.3769 -139.6624   42.9894 H         1 GT8         0.0258
     67 H24        64.1183 -138.7527   44.5165 H         1 GT8         0.0258
     68 H25        65.4645 -138.2984   43.4174 H         1 GT8         0.0258
     69 H26        61.7644 -138.1298   43.5794 H         1 GT8         0.2102
     70 H27        61.5317 -134.9308   41.6937 H         1 GT8         0.1856
     71 H28        60.6367 -136.8794   40.7138 H         1 GT8         0.0453
     72 H29        60.9808 -137.4921   39.0606 H         1 GT8         0.0453
     73 H30        59.4252 -137.0697   37.2627 H         1 GT8         0.0530
     74 H31        57.0107 -137.0669   36.7588 H         1 GT8         0.0525
     75 H32        53.0225 -136.6389   38.7830 H         1 GT8         0.0575
     76 H33        54.0416 -135.6630   39.8946 H         1 GT8         0.0575
     77 H34        54.0204 -137.4537   40.0347 H         1 GT8         0.0575
     78 H35        56.1440 -136.2836   40.8858 H         1 GT8         0.0525
     79 H36        58.5591 -136.2863   41.3785 H         1 GT8         0.0530
     80 H37        62.0216 -135.9098   37.4158 H         1 GT8         0.1885
     81 H38        61.6164 -135.3571   35.3636 H         1 GT8         0.0797
     82 H39        62.8335 -133.4023   34.4137 H         1 GT8         0.0277
     83 H40        63.3125 -133.7266   36.1143 H         1 GT8         0.0277
     84 H41        62.1960 -132.3705   35.7387 H         1 GT8         0.0277
     85 H42        60.1198 -133.0593   34.3339 H         1 GT8         0.1884
     86 H43        57.6853 -135.3054   33.0051 H         1 GT8         0.1063
     87 H44        58.4888 -133.7117   32.8025 H         1 GT8         0.1063
     88 H45        57.2533 -132.8267   34.4542 H         1 GT8         0.2054
     89 H46        57.4337 -134.2815   36.2422 H         1 GT8         0.0837
     90 H47        56.3353 -135.4276   35.4015 H         1 GT8         0.0837
     91 H48        55.6723 -132.5547   36.3023 H         1 GT8         0.0613
     92 H49        55.0158 -134.0734   37.0017 H         1 GT8         0.0613
     93 H50        54.9830 -131.8519   34.1291 H         1 GT8         0.0613
     94 H51        53.8265 -132.8634   33.1984 H         1 GT8         0.0613
     95 H52        55.4722 -134.6858   33.0930 H         1 GT8         0.0837
     96 H53        56.1580 -133.1743   32.4063 H         1 GT8         0.0837
@<TRIPOS>BOND
     1    1    2 1  
     2   11    1 1  
     3    2    3 1  
     4   10    3 1  
     5    5    4 1  
     6    4   12 1  
     7    5   13 1  
     8   18    5 1  
     9   16    6 1  
    10   19    7 1  
    11    7   21 1  
    12    7   30 1  
    13   30    8 am 
    14    8   31 2  
    15    8   32 1  
    16    9   10 1  
    17   11    9 1  
    18   12   11 1  
    19   13   14 1  
    20   13   16 1  
    21   16   15 1  
    22   16   17 1  
    23   18   19 am 
    24   19   20 2  
    25   21   22 1  
    26   22   23 ar 
    27   22   29 ar 
    28   23   24 ar 
    29   24   25 ar 
    30   25   26 1  
    31   25   28 ar 
    32   26   27 1  
    33   28   29 ar 
    34   32   33 1  
    35   32   34 1  
    36   34   35 am 
    37   35   36 2  
    38   35   37 1  
    39   37   38 1  
    40   38   39 1  
    41   38   43 1  
    42   39   40 1  
    43   40   41 1  
    44   41   42 1  
    45   42   43 1  
    46    1   44 1  
    47    1   45 1  
    48    2   46 1  
    49    2   47 1  
    50    3   48 1  
    51    3   49 1  
    52    4   50 1  
    53    4   51 1  
    54    5   52 1  
    55    6   53 1  
    56    6   54 1  
    57    6   55 1  
    58    7   56 1  
    59    9   57 1  
    60    9   58 1  
    61   10   59 1  
    62   10   60 1  
    63   11   61 1  
    64   12   62 1  
    65   12   63 1  
    66   13   64 1  
    67   14   65 1  
    68   15   66 1  
    69   15   67 1  
    70   15   68 1  
    71   17   69 1  
    72   18   70 1  
    73   21   71 1  
    74   21   72 1  
    75   23   73 1  
    76   24   74 1  
    77   27   75 1  
    78   27   76 1  
    79   27   77 1  
    80   28   78 1  
    81   29   79 1  
    82   30   80 1  
    83   32   81 1  
    84   33   82 1  
    85   33   83 1  
    86   33   84 1  
    87   34   85 1  
    88   37   86 1  
    89   37   87 1  
    90   38   88 1  
    91   39   89 1  
    92   39   90 1  
    93   40   91 1  
    94   40   92 1  
    95   42   93 1  
    96   42   94 1  
    97   43   95 1  
    98   43   96 1  
@<TRIPOS>SUBSTRUCTURE
     1 GT8         1

