### 
### Created by X-TOOL on Mon Aug  2 16:10:14 2021
### 

@<TRIPOS>MOLECULE
6hvw_ligand
  103   106     1     0     0
SMALL
GAST_HUCK


@<TRIPOS>ATOM
      1 C4         64.8600 -131.2160   40.7140 C.3       1 GVW        -0.0380
      2 C5         64.6830 -132.5690   41.3920 C.3       1 GVW        -0.0470
      3 C6         63.2950 -132.6280   41.9860 C.3       1 GVW        -0.0386
      4 C7         63.0530 -133.9510   42.7100 C.3       1 GVW        -0.0245
      5 C8         63.2060 -135.1940   41.8280 C.3       1 GVW         0.0709
      6 C10        63.6630 -137.6980   42.0570 C.3       1 GVW         0.0884
      7 C24        60.8460 -135.5380   38.8680 C.3       1 GVW         0.1389
      8 C26        60.8880 -134.2930   36.7580 C.2       1 GVW         0.2037
      9 C53        66.2250 -131.1330   40.0700 C.3       1 GVW        -0.0499
     10 C52        66.3480 -129.8010   39.3600 C.3       1 GVW        -0.0528
     11 C51        66.2300 -128.6840   40.3730 C.3       1 GVW        -0.0528
     12 C50        64.8870 -128.7620   41.0600 C.3       1 GVW        -0.0500
     13 C3         64.7300 -130.1050   41.7390 C.3       1 GVW        -0.0382
     14 C2         63.3590 -130.1720   42.3630 C.3       1 GVW        -0.0497
     15 C1         63.1670 -131.5230   43.0160 C.3       1 GVW        -0.0499
     16 C9         63.2840 -136.3800   42.7880 C.3       1 GVW         0.1061
     17 O21        61.9990 -136.5020   43.4370 O.3       1 GVW        -0.3867
     18 C11        64.7390 -138.4950   42.8170 C.3       1 GVW        -0.0338
     19 C12        64.2140 -137.3460   40.6800 C.3       1 GVW        -0.0338
     20 O13        62.5200 -138.5520   41.8730 O.3       1 GVW        -0.3865
     21 N22        62.0360 -135.3200   40.9570 N.am      1 GVW        -0.2793
     22 C23        62.1590 -135.4230   39.6330 C.2       1 GVW         0.2038
     23 O49        63.2350 -135.4280   39.0450 O.2       1 GVW        -0.3944
     24 C40        60.2160 -136.8950   39.1680 C.3       1 GVW         0.0163
     25 C41        58.8580 -136.8660   38.8870 C.ar      1 GVW        -0.0493
     26 C42        57.9370 -136.7620   39.9170 C.ar      1 GVW        -0.0685
     27 C43        56.5790 -136.7360   39.6320 C.ar      1 GVW        -0.0396
     28 C44        56.1390 -136.8170   38.3180 C.ar      1 GVW         0.0837
     29 O45        54.8120 -136.7920   38.0200 O.3       1 GVW        -0.3257
     30 C46        54.0130 -137.1160   39.1580 C.3       1 GVW         0.0579
     31 C47        57.0640 -136.9230   37.2900 C.ar      1 GVW        -0.0396
     32 C48        58.4210 -136.9490   37.5740 C.ar      1 GVW        -0.0685
     33 N25        61.1290 -135.4200   37.4340 N.am      1 GVW        -0.2621
     34 O39        60.4140 -133.2810   37.2630 O.2       1 GVW        -0.3944
     35 C27        61.2480 -134.3330   35.2770 C.3       1 GVW         0.1283
     36 C38        62.4320 -133.4050   35.0240 C.3       1 GVW        -0.0244
     37 N28        60.1020 -133.8840   34.4780 N.am      1 GVW        -0.2615
     38 C29        59.1730 -134.7370   34.0390 C.2       1 GVW         0.2238
     39 O37        59.1960 -135.9430   34.2600 O.2       1 GVW        -0.3910
     40 C30        58.0490 -134.1150   33.2160 C.3       1 GVW         0.0582
     41 N31        56.9660 -133.6840   34.1050 N.4       1 GVW         0.2552
     42 C32        55.7600 -133.4220   33.3150 C.3       1 GVW        -0.0060
     43 C33        54.6120 -133.0340   34.2190 C.3       1 GVW         0.0878
     44 O34        54.3370 -134.1050   35.1170 O.3       1 GVW        -0.3693
     45 C35        55.4830 -134.3460   35.9370 C.3       1 GVW         0.0878
     46 C36        56.6640 -134.7390   35.0720 C.3       1 GVW        -0.0060
     47 H1         64.0851 -131.0941   39.9429 H         1 GVW         0.0304
     48 H2         65.4329 -132.6863   42.1882 H         1 GVW         0.0271
     49 H3         64.8047 -133.3738   40.6522 H         1 GVW         0.0271
     50 H4         62.5480 -132.4976   41.1892 H         1 GVW         0.0302
     51 H5         62.0298 -133.9398   43.1136 H         1 GVW         0.0291
     52 H6         63.7731 -134.0264   43.5381 H         1 GVW         0.0291
     53 H7         64.1197 -135.1295   41.2189 H         1 GVW         0.0582
     54 H8         60.1601 -134.7357   39.1776 H         1 GVW         0.0821
     55 H9         66.3420 -131.9512   39.3442 H         1 GVW         0.0268
     56 H10        67.0040 -131.2138   40.8424 H         1 GVW         0.0268
     57 H11        65.5457 -129.7067   38.6134 H         1 GVW         0.0265
     58 H12        67.3249 -129.7406   38.8581 H         1 GVW         0.0265
     59 H13        66.3236 -127.7147   39.8615 H         1 GVW         0.0265
     60 H14        67.0301 -128.7826   41.1214 H         1 GVW         0.0265
     61 H15        64.0884 -128.6354   40.3142 H         1 GVW         0.0268
     62 H16        64.8159 -127.9629   41.8126 H         1 GVW         0.0268
     63 H17        65.5014 -130.2229   42.5143 H         1 GVW         0.0303
     64 H18        62.5947 -130.0291   41.5849 H         1 GVW         0.0268
     65 H19        63.2624 -129.3813   43.1215 H         1 GVW         0.0268
     66 H20        63.9319 -131.6619   43.7942 H         1 GVW         0.0268
     67 H21        62.1672 -131.5665   43.4726 H         1 GVW         0.0268
     68 H22        64.0529 -136.1738   43.5471 H         1 GVW         0.0645
     69 H23        61.3338 -136.6933   42.7864 H         1 GVW         0.2100
     70 H24        64.9731 -139.4158   42.2627 H         1 GVW         0.0258
     71 H25        64.3642 -138.7549   43.8180 H         1 GVW         0.0258
     72 H26        65.6485 -137.8838   42.9132 H         1 GVW         0.0258
     73 H27        63.4600 -136.7750   40.1184 H         1 GVW         0.0258
     74 H28        64.4554 -138.2701   40.1344 H         1 GVW         0.0258
     75 H29        65.1242 -136.7388   40.7935 H         1 GVW         0.0258
     76 H30        62.1889 -138.8232   42.7211 H         1 GVW         0.2102
     77 H31        61.1228 -135.3290   41.3645 H         1 GVW         0.1856
     78 H32        60.3618 -137.1361   40.2313 H         1 GVW         0.0453
     79 H33        60.6988 -137.6647   38.5480 H         1 GVW         0.0453
     80 H34        58.2769 -136.7010   40.9445 H         1 GVW         0.0530
     81 H35        55.8594 -136.6521   40.4384 H         1 GVW         0.0525
     82 H36        52.9492 -137.0858   38.8797 H         1 GVW         0.0575
     83 H37        54.2032 -136.3867   39.9592 H         1 GVW         0.0575
     84 H38        54.2709 -138.1251   39.5118 H         1 GVW         0.0575
     85 H39        56.7253 -136.9857   36.2622 H         1 GVW         0.0525
     86 H40        59.1411 -137.0343   36.7682 H         1 GVW         0.0530
     87 H41        61.5132 -136.2052   36.9483 H         1 GVW         0.1885
     88 H42        61.5160 -135.3607   34.9908 H         1 GVW         0.0797
     89 H43        62.6959 -133.4301   33.9564 H         1 GVW         0.0277
     90 H44        63.2930 -133.7375   35.6225 H         1 GVW         0.0277
     91 H45        62.1609 -132.3782   35.3106 H         1 GVW         0.0277
     92 H46        60.0143 -132.9129   34.2562 H         1 GVW         0.1884
     93 H47        57.6629 -134.8587   32.5034 H         1 GVW         0.1063
     94 H48        58.4372 -133.2459   32.6647 H         1 GVW         0.1063
     95 H49        57.2439 -132.8463   34.5918 H         1 GVW         0.2054
     96 H50        55.4895 -134.3291   32.7547 H         1 GVW         0.0837
     97 H51        55.9596 -132.6015   32.6101 H         1 GVW         0.0837
     98 H52        53.7194 -132.8262   33.6107 H         1 GVW         0.0613
     99 H53        54.8830 -132.1348   34.7917 H         1 GVW         0.0613
    100 H54        55.2615 -135.1599   36.6430 H         1 GVW         0.0613
    101 H55        55.7295 -133.4318   36.4969 H         1 GVW         0.0613
    102 H56        57.5425 -134.9046   35.7129 H         1 GVW         0.0837
    103 H57        56.4240 -135.6668   34.5320 H         1 GVW         0.0837
@<TRIPOS>BOND
     1    2    1 1  
     2    1    9 1  
     3    1   13 1  
     4    3    2 1  
     5    4    3 1  
     6    3   15 1  
     7    5    4 1  
     8    5   16 1  
     9   21    5 1  
    10   16    6 1  
    11    6   18 1  
    12    6   19 1  
    13    6   20 1  
    14   22    7 1  
    15    7   24 1  
    16    7   33 1  
    17   33    8 am 
    18    8   34 2  
    19    8   35 1  
    20    9   10 1  
    21   10   11 1  
    22   12   11 1  
    23   13   12 1  
    24   14   13 1  
    25   15   14 1  
    26   16   17 1  
    27   21   22 am 
    28   22   23 2  
    29   24   25 1  
    30   25   26 ar 
    31   25   32 ar 
    32   26   27 ar 
    33   27   28 ar 
    34   28   29 1  
    35   28   31 ar 
    36   29   30 1  
    37   31   32 ar 
    38   35   36 1  
    39   35   37 1  
    40   37   38 am 
    41   38   39 2  
    42   38   40 1  
    43   40   41 1  
    44   41   42 1  
    45   41   46 1  
    46   42   43 1  
    47   43   44 1  
    48   44   45 1  
    49   45   46 1  
    50    1   47 1  
    51    2   48 1  
    52    2   49 1  
    53    3   50 1  
    54    4   51 1  
    55    4   52 1  
    56    5   53 1  
    57    7   54 1  
    58    9   55 1  
    59    9   56 1  
    60   10   57 1  
    61   10   58 1  
    62   11   59 1  
    63   11   60 1  
    64   12   61 1  
    65   12   62 1  
    66   13   63 1  
    67   14   64 1  
    68   14   65 1  
    69   15   66 1  
    70   15   67 1  
    71   16   68 1  
    72   17   69 1  
    73   18   70 1  
    74   18   71 1  
    75   18   72 1  
    76   19   73 1  
    77   19   74 1  
    78   19   75 1  
    79   20   76 1  
    80   21   77 1  
    81   24   78 1  
    82   24   79 1  
    83   26   80 1  
    84   27   81 1  
    85   30   82 1  
    86   30   83 1  
    87   30   84 1  
    88   31   85 1  
    89   32   86 1  
    90   33   87 1  
    91   35   88 1  
    92   36   89 1  
    93   36   90 1  
    94   36   91 1  
    95   37   92 1  
    96   40   93 1  
    97   40   94 1  
    98   41   95 1  
    99   42   96 1  
   100   42   97 1  
   101   43   98 1  
   102   43   99 1  
   103   45  100 1  
   104   45  101 1  
   105   46  102 1  
   106   46  103 1  
@<TRIPOS>SUBSTRUCTURE
     1 GVW         1

