### 
### Created by X-TOOL on Mon Aug  2 16:13:59 2021
### 

@<TRIPOS>MOLECULE
6hwu_ligand
   69    73     1     0     0
SMALL
GAST_HUCK


@<TRIPOS>ATOM
      1 C10        -5.5000    1.7480  -28.1010 C.3       1 GE5        -0.0058
      2 C15        -4.3420    1.1630  -23.7130 C.ar      1 GE5         0.1298
      3 C17        -4.4000   -0.5040  -21.9280 C.ar      1 GE5        -0.0149
      4 C21        -4.4070   -1.7930  -21.5410 C.2       1 GE5         0.0566
      5 C22        -4.7570   -2.3840  -20.3670 C.2       1 GE5         0.0209
      6 C24        -4.0410   -4.1820  -21.5040 C.2       1 GE5         0.2089
      7 C28        -2.4590   -6.6790  -23.1960 C.ar      1 GE5         0.0622
      8 C01        -2.2680    2.7020  -33.0460 C.3       1 GE5         0.0568
      9 C03        -3.7550    2.3540  -31.2860 C.ar      1 GE5         0.0728
     10 C04        -4.5930    3.2920  -31.8830 C.ar      1 GE5        -0.0486
     11 C05        -5.7430    3.7250  -31.2270 C.ar      1 GE5        -0.0480
     12 C06        -6.0540    3.2160  -29.9700 C.ar      1 GE5         0.0812
     13 C08        -8.2940    3.7550  -30.1550 C.3       1 GE5         0.0553
     14 C09        -5.2240    2.2760  -29.3640 C.ar      1 GE5        -0.0197
     15 C11        -4.1560    1.5510  -27.3890 C.3       1 GE5         0.0518
     16 C12        -4.2660    0.7770  -26.0740 C.2       1 GE5         0.2090
     17 C16        -4.3860   -0.1730  -23.2860 C.ar      1 GE5        -0.0153
     18 C18        -4.3040    0.5330  -21.0100 C.ar      1 GE5        -0.0505
     19 C19        -4.2600    1.8470  -21.4360 C.ar      1 GE5        -0.0146
     20 C29        -2.7100   -7.4890  -24.2960 C.ar      1 GE5        -0.0424
     21 C30        -1.8930   -8.5850  -24.5730 C.ar      1 GE5        -0.0736
     22 C31        -0.7940   -8.8660  -23.7560 C.ar      1 GE5        -0.0751
     23 C32        -0.5300   -8.0420  -22.6640 C.ar      1 GE5        -0.0736
     24 C33        -1.3600   -6.9550  -22.3960 C.ar      1 GE5        -0.0424
     25 C34        -5.2720   -1.7910  -19.2810 C.ar      1 GE5        -0.0207
     26 C35        -4.6060   -1.8900  -18.0640 C.ar      1 GE5        -0.0567
     27 C36        -5.1050   -1.2860  -16.9150 C.ar      1 GE5        -0.0281
     28 C37        -6.2950   -0.5750  -16.9760 C.ar      1 GE5         0.1323
     29 C39        -6.9740   -0.4740  -18.1870 C.ar      1 GE5        -0.0281
     30 C40        -6.4720   -1.0830  -19.3340 C.ar      1 GE5        -0.0567
     31 C41        -4.0780    1.8530  -30.0310 C.ar      1 GE5        -0.0398
     32 F38        -6.8140    0.0370  -15.8120 F         1 GE5        -0.1833
     33 N14        -4.3200    1.5830  -24.9910 N.am      1 GE5        -0.2202
     34 N20        -4.2720    2.1380  -22.7960 N.ar      1 GE5        -0.2949
     35 N23        -4.5550   -3.7220  -20.3550 N.2       1 GE5        -0.2993
     36 N26        -3.7180   -5.4480  -21.7970 N.pl3     1 GE5        -0.1817
     37 N27        -3.2480   -5.6350  -22.9490 N.pl3     1 GE5        -0.2183
     38 O02        -2.6200    1.9120  -31.9060 O.3       1 GE5        -0.3301
     39 O07        -7.1670    3.6010  -29.2800 O.3       1 GE5        -0.3321
     40 O13        -4.2630   -0.4520  -26.0850 O.2       1 GE5        -0.3829
     41 S25        -3.8290   -2.9600  -22.5220 S.3       1 GE5         0.0287
     42 H1         -6.0187    0.7831  -28.2009 H         1 GE5         0.0427
     43 H2         -6.1303    2.4458  -27.5302 H         1 GE5         0.0427
     44 H3         -1.3508    2.3002  -33.5014 H         1 GE5         0.0573
     45 H4         -2.0963    3.7423  -32.7324 H         1 GE5         0.0573
     46 H5         -3.0862    2.6707  -33.7806 H         1 GE5         0.0573
     47 H6         -4.3494    3.6871  -32.8626 H         1 GE5         0.0458
     48 H7         -6.3932    4.4558  -31.6941 H         1 GE5         0.0496
     49 H8         -9.1726    4.0649  -29.5702 H         1 GE5         0.0570
     50 H9         -8.5047    2.7974  -30.6536 H         1 GE5         0.0570
     51 H10        -8.0687    4.5207  -30.9119 H         1 GE5         0.0570
     52 H11        -3.7278    2.5413  -27.1746 H         1 GE5         0.0528
     53 H12        -3.4837    0.9987  -28.0621 H         1 GE5         0.0528
     54 H13        -4.4096   -0.9655  -24.0252 H         1 GE5         0.0538
     55 H14        -4.2632    0.3102  -19.9499 H         1 GE5         0.0541
     56 H15        -4.2161    2.6509  -20.7101 H         1 GE5         0.0749
     57 H16        -3.5490   -7.2672  -24.9456 H         1 GE5         0.0515
     58 H17        -2.1108   -9.2204  -25.4238 H         1 GE5         0.0583
     59 H18        -0.1547   -9.7150  -23.9696 H         1 GE5         0.0505
     60 H19         0.3203   -8.2462  -22.0234 H         1 GE5         0.0583
     61 H20        -1.1432   -6.3148  -21.5485 H         1 GE5         0.0515
     62 H21        -3.6790   -2.4494  -18.0100 H         1 GE5         0.0606
     63 H22        -4.5675   -1.3701  -15.9774 H         1 GE5         0.0604
     64 H23        -7.9021    0.0839  -18.2375 H         1 GE5         0.0604
     65 H24        -7.0147   -1.0066  -20.2693 H         1 GE5         0.0606
     66 H25        -3.4278    1.1218  -29.5644 H         1 GE5         0.0453
     67 H26        -4.3456    2.5696  -25.1520 H         1 GE5         0.2304
     68 H27        -3.8458   -6.2174  -21.1242 H         1 GE5         0.2235
     69 H28        -3.4752   -4.9755  -23.7069 H         1 GE5         0.2075
@<TRIPOS>BOND
     1    1   14 1  
     2   15    1 1  
     3   17    2 ar 
     4    2   33 1  
     5    2   34 ar 
     6    4    3 1  
     7    3   17 ar 
     8    3   18 ar 
     9    4    5 2  
    10   41    4 1  
    11    5   25 1  
    12   35    5 1  
    13    6   35 2  
    14   36    6 1  
    15    6   41 1  
    16    7   20 ar 
    17    7   24 ar 
    18   37    7 1  
    19   38    8 1  
    20    9   10 ar 
    21   31    9 ar 
    22    9   38 1  
    23   11   10 ar 
    24   12   11 ar 
    25   14   12 ar 
    26   12   39 1  
    27   39   13 1  
    28   14   31 ar 
    29   16   15 1  
    30   33   16 am 
    31   16   40 2  
    32   18   19 ar 
    33   19   34 ar 
    34   20   21 ar 
    35   21   22 ar 
    36   23   22 ar 
    37   24   23 ar 
    38   25   26 ar 
    39   25   30 ar 
    40   26   27 ar 
    41   27   28 ar 
    42   29   28 ar 
    43   28   32 1  
    44   30   29 ar 
    45   36   37 1  
    46    1   42 1  
    47    1   43 1  
    48    8   44 1  
    49    8   45 1  
    50    8   46 1  
    51   10   47 1  
    52   11   48 1  
    53   13   49 1  
    54   13   50 1  
    55   13   51 1  
    56   15   52 1  
    57   15   53 1  
    58   17   54 1  
    59   18   55 1  
    60   19   56 1  
    61   20   57 1  
    62   21   58 1  
    63   22   59 1  
    64   23   60 1  
    65   24   61 1  
    66   26   62 1  
    67   27   63 1  
    68   29   64 1  
    69   30   65 1  
    70   31   66 1  
    71   33   67 1  
    72   36   68 1  
    73   37   69 1  
@<TRIPOS>SUBSTRUCTURE
     1 GE5         1

