### 
### Created by X-TOOL on Mon Aug  2 16:13:59 2021
### 

@<TRIPOS>MOLECULE
6hwv_ligand
   71    75     1     0     0
SMALL
GAST_HUCK


@<TRIPOS>ATOM
      1 C10       -22.0770    7.5440   23.6210 C.3       1 GEW        -0.0058
      2 C15       -22.6190    2.6650   23.6600 C.ar      1 GEW         0.1352
      3 C17       -22.7170    1.0640   21.7620 C.ar      1 GEW         0.0133
      4 C21       -22.7720    0.7620   20.4230 C.2       1 GEW         0.1071
      5 C22       -23.2110   -0.3700   19.7950 C.2       1 GEW         0.0519
      6 C24       -22.4910    0.9460   18.2780 C.2       1 GEW         0.2438
      7 C28       -21.4820    0.2250   13.8830 C.ar      1 GEW        -0.0326
      8 C01       -17.2960    8.9520   23.9130 C.3       1 GEW         0.0568
      9 C03       -19.1960    9.2280   25.2080 C.ar      1 GEW         0.0728
     10 C04       -19.8310   10.1980   25.9770 C.ar      1 GEW        -0.0486
     11 C05       -21.2180   10.2970   25.9680 C.ar      1 GEW        -0.0480
     12 C06       -21.9650    9.4210   25.1860 C.ar      1 GEW         0.0812
     13 C08       -23.8040   10.4760   24.2330 C.3       1 GEW         0.0553
     14 C09       -21.3430    8.4360   24.4180 C.ar      1 GEW        -0.0197
     15 C11       -22.5660    6.3280   24.4220 C.3       1 GEW         0.0519
     16 C12       -22.6210    5.0750   23.5250 C.2       1 GEW         0.2092
     17 C16       -22.7190    2.3720   22.2890 C.ar      1 GEW        -0.0072
     18 C18       -22.5650    0.0460   22.7070 C.ar      1 GEW        -0.0432
     19 C19       -22.4720    0.3230   24.0680 C.ar      1 GEW        -0.0099
     20 C27       -21.3850    1.0040   15.0320 C.ar      1 GEW         0.0774
     21 C29       -20.7950    0.5960   12.7290 C.ar      1 GEW        -0.0204
     22 C30       -19.9880    1.7290   12.7310 C.ar      1 GEW         0.1389
     23 C32       -19.8700    2.4920   13.8870 C.ar      1 GEW        -0.0204
     24 C33       -20.5570    2.1220   15.0370 C.ar      1 GEW        -0.0326
     25 C35       -21.6560    2.9100   19.3680 C.3       1 GEW         0.0497
     26 C36       -23.7720   -1.5040   20.2590 C.ar      1 GEW        -0.0204
     27 C37       -24.9090   -1.5130   21.0600 C.ar      1 GEW        -0.0589
     28 C38       -25.4640   -2.7100   21.4990 C.ar      1 GEW        -0.0300
     29 C39       -24.8950   -3.9200   21.1300 C.ar      1 GEW         0.1304
     30 C41       -23.7610   -3.9280   20.3240 C.ar      1 GEW        -0.0300
     31 C42       -23.2110   -2.7230   19.8800 C.ar      1 GEW        -0.0589
     32 C43       -19.9520    8.3520   24.4310 C.ar      1 GEW        -0.0398
     33 F31       -19.3070    2.1000   11.5960 F         1 GEW        -0.1782
     34 F40       -25.4580   -5.0960   21.5830 F         1 GEW        -0.1848
     35 N14       -22.6140    3.9060   24.2170 N.am      1 GEW        -0.2191
     36 N20       -22.4940    1.6490   24.5270 N.ar      1 GEW        -0.2897
     37 N23       -23.0230   -0.2520   18.4750 N.2       1 GEW        -0.2802
     38 N25       -22.0860    1.4430   17.1050 N.2       1 GEW        -0.1279
     39 N26       -21.9950    0.6290   16.1550 N.2       1 GEW        -0.1716
     40 N34       -22.2920    1.5580   19.4410 N.pl3     1 GEW        -0.2193
     41 O02       -17.8330    9.1440   25.2270 O.3       1 GEW        -0.3301
     42 O07       -23.3290    9.4750   25.1470 O.3       1 GEW        -0.3321
     43 O13       -22.6960    5.1990   22.3040 O.2       1 GEW        -0.3828
     44 H1        -21.4369    7.1934   22.7980 H         1 GEW         0.0427
     45 H2        -22.9493    8.0716   23.2079 H         1 GEW         0.0427
     46 H3        -22.0923   -0.6709   13.8858 H         1 GEW         0.0669
     47 H4        -16.1993    8.8895   23.9707 H         1 GEW         0.0573
     48 H5        -17.5818    9.7995   23.2726 H         1 GEW         0.0573
     49 H6        -17.6944    8.0196   23.4867 H         1 GEW         0.0573
     50 H7        -19.2438   10.8775   26.5840 H         1 GEW         0.0458
     51 H8        -21.7145   11.0521   26.5666 H         1 GEW         0.0496
     52 H9        -24.9040   10.4824   24.2356 H         1 GEW         0.0570
     53 H10       -23.4411   10.2492   23.2197 H         1 GEW         0.0570
     54 H11       -23.4309   11.4630   24.5438 H         1 GEW         0.0570
     55 H12       -23.5719    6.5351   24.8160 H         1 GEW         0.0528
     56 H13       -21.8753    6.1441   25.2582 H         1 GEW         0.0528
     57 H14       -22.8026    3.2009   21.5954 H         1 GEW         0.0579
     58 H15       -22.5184   -0.9840   22.3723 H         1 GEW         0.0573
     59 H16       -22.3820   -0.4911   24.7781 H         1 GEW         0.0761
     60 H17       -20.8896    0.0007   11.8281 H         1 GEW         0.0621
     61 H18       -19.2421    3.3756   13.8914 H         1 GEW         0.0621
     62 H19       -20.4471    2.7075   15.9426 H         1 GEW         0.0669
     63 H20       -21.5418    3.3168   20.3836 H         1 GEW         0.0582
     64 H21       -22.2914    3.5825   18.7730 H         1 GEW         0.0582
     65 H22       -20.6671    2.8249   18.8938 H         1 GEW         0.0582
     66 H23       -25.3688   -0.5739   21.3460 H         1 GEW         0.0590
     67 H24       -26.3442   -2.6975   22.1316 H         1 GEW         0.0599
     68 H25       -23.3042   -4.8693   20.0405 H         1 GEW         0.0599
     69 H26       -22.3400   -2.7358   19.2348 H         1 GEW         0.0590
     70 H27       -19.4536    7.5988   23.8316 H         1 GEW         0.0453
     71 H28       -22.6044    3.9623   25.2154 H         1 GEW         0.2306
@<TRIPOS>BOND
     1    1   14 1  
     2   15    1 1  
     3   17    2 ar 
     4    2   35 1  
     5    2   36 ar 
     6    4    3 1  
     7    3   17 ar 
     8    3   18 ar 
     9    4    5 2  
    10   40    4 1  
    11    5   26 1  
    12   37    5 1  
    13    6   37 2  
    14   38    6 1  
    15    6   40 1  
    16   20    7 ar 
    17    7   21 ar 
    18   41    8 1  
    19    9   10 ar 
    20   32    9 ar 
    21    9   41 1  
    22   11   10 ar 
    23   12   11 ar 
    24   14   12 ar 
    25   12   42 1  
    26   42   13 1  
    27   14   32 ar 
    28   16   15 1  
    29   35   16 am 
    30   16   43 2  
    31   18   19 ar 
    32   19   36 ar 
    33   20   24 ar 
    34   39   20 1  
    35   21   22 ar 
    36   23   22 ar 
    37   22   33 1  
    38   24   23 ar 
    39   40   25 1  
    40   26   27 ar 
    41   26   31 ar 
    42   27   28 ar 
    43   28   29 ar 
    44   30   29 ar 
    45   29   34 1  
    46   31   30 ar 
    47   38   39 2  
    48    1   44 1  
    49    1   45 1  
    50    7   46 1  
    51    8   47 1  
    52    8   48 1  
    53    8   49 1  
    54   10   50 1  
    55   11   51 1  
    56   13   52 1  
    57   13   53 1  
    58   13   54 1  
    59   15   55 1  
    60   15   56 1  
    61   17   57 1  
    62   18   58 1  
    63   19   59 1  
    64   21   60 1  
    65   23   61 1  
    66   24   62 1  
    67   25   63 1  
    68   25   64 1  
    69   25   65 1  
    70   27   66 1  
    71   28   67 1  
    72   30   68 1  
    73   31   69 1  
    74   32   70 1  
    75   35   71 1  
@<TRIPOS>SUBSTRUCTURE
     1 GEW         1

