### 
### Created by X-TOOL on Mon Aug  2 16:14:00 2021
### 

@<TRIPOS>MOLECULE
6hx1_ligand
   39    43     1     0     0
SMALL
GAST_HUCK


@<TRIPOS>ATOM
      1 C2         -5.8870   -7.6770   28.1670 C.2       1 GXK         0.1304
      2 C3         -5.0680   -7.4220   27.0510 C.2       1 GXK        -0.0012
      3 C4         -4.5000   -8.4760   26.3370 C.2       1 GXK         0.1101
      4 C6         -3.1680   -7.0300   24.7420 C.3       1 GXK         0.0305
      5 C7         -4.2540   -6.2610   23.9870 C.3       1 GXK        -0.0208
      6 C8         -3.9630   -5.8010   22.5550 C.3       1 GXK        -0.0480
      7 C12        -4.9410  -11.9290   27.0780 C.2       1 GXK        -0.0132
      8 C15        -6.7760  -11.3740   30.3210 C.ar      1 GXK        -0.0598
      9 C16        -7.5290  -12.0460   31.3080 C.ar      1 GXK         0.0059
     10 C17        -7.9720  -11.7180   32.5730 C.2       1 GXK         0.0206
     11 C21        -7.6870  -14.0160   29.8010 C.ar      1 GXK        -0.0369
     12 CL1        -6.6130   -6.4010   29.0890 Cl        1 GXK        -0.0459
     13 N5         -3.6820   -8.3240   25.2130 N.pl3     1 GXK        -0.3092
     14 C9         -4.9440   -6.9530   22.8110 C.3       1 GXK        -0.0480
     15 C10        -4.7840   -9.7960   26.7710 C.2       1 GXK         0.1949
     16 N11        -4.4090  -10.9780   26.3190 N.2       1 GXK        -0.3252
     17 C13        -5.7000  -11.3340   28.0640 C.2       1 GXK         0.1070
     18 C14        -6.4850  -12.0150   29.1230 C.ar      1 GXK        -0.0081
     19 N18        -8.6470  -12.7700   33.0490 N.2       1 GXK        -0.2061
     20 N19        -8.6600  -13.8060   32.1130 N.pl3     1 GXK        -0.2141
     21 C20        -8.0000  -13.4170   31.0420 C.ar      1 GXK         0.0855
     22 C22        -6.9570  -13.3290   28.8850 C.ar      1 GXK        -0.0642
     23 N23        -5.5920   -9.9860   27.8620 N.pl3     1 GXK        -0.1389
     24 N24        -6.1340   -8.8970   28.5430 N.2       1 GXK        -0.1583
     25 H1         -4.8769   -6.3950   26.7434 H         1 GXK         0.0495
     26 H2         -2.8391   -6.4354   25.6070 H         1 GXK         0.0524
     27 H3         -2.3144   -7.2032   24.0702 H         1 GXK         0.0524
     28 H4         -4.8234   -5.6219   24.6778 H         1 GXK         0.0320
     29 H5         -2.9822   -6.0040   22.1002 H         1 GXK         0.0269
     30 H6         -4.3363   -4.8281   22.2027 H         1 GXK         0.0269
     31 H7         -4.8012  -13.0007   26.9441 H         1 GXK         0.0532
     32 H8         -6.4266  -10.3630   30.4968 H         1 GXK         0.0552
     33 H9         -7.8028  -10.7744   33.0897 H         1 GXK         0.0713
     34 H10        -8.0286  -15.0209   29.5809 H         1 GXK         0.0557
     35 H11        -3.4243   -9.1692   24.6836 H         1 GXK         0.1825
     36 H12        -6.0209   -6.8062   22.6414 H         1 GXK         0.0269
     37 H13        -4.6668   -7.9821   22.5388 H         1 GXK         0.0269
     38 H14        -9.1114  -14.7232   32.2394 H         1 GXK         0.2451
     39 H15        -6.7273  -13.8032   27.9377 H         1 GXK         0.0561
@<TRIPOS>BOND
     1    2    1 1  
     2    1   12 1  
     3    1   24 2  
     4    3    2 2  
     5    3   13 1  
     6   15    3 1  
     7    4    5 1  
     8   13    4 1  
     9    5    6 1  
    10    5   14 1  
    11   14    6 1  
    12    7   16 1  
    13   17    7 2  
    14    8    9 ar 
    15   18    8 ar 
    16    9   10 1  
    17    9   21 ar 
    18   10   19 2  
    19   21   11 ar 
    20   11   22 ar 
    21   16   15 2  
    22   15   23 1  
    23   17   18 1  
    24   17   23 1  
    25   18   22 ar 
    26   19   20 1  
    27   20   21 1  
    28   23   24 1  
    29    2   25 1  
    30    4   26 1  
    31    4   27 1  
    32    5   28 1  
    33    6   29 1  
    34    6   30 1  
    35    7   31 1  
    36    8   32 1  
    37   10   33 1  
    38   11   34 1  
    39   13   35 1  
    40   14   36 1  
    41   14   37 1  
    42   20   38 1  
    43   22   39 1  
@<TRIPOS>SUBSTRUCTURE
     1 GXK         1

