### 
### Created by X-TOOL on Mon Aug  2 16:10:50 2021
### 

@<TRIPOS>MOLECULE
6hx8_ligand
   53    55     1     0     0
SMALL
GAST_HUCK


@<TRIPOS>ATOM
      1 C10        17.4160   67.5310   40.8860 C.3       1 GXN        -0.0035
      2 C13        14.5880   66.7310   38.5320 C.ar      1 GXN         0.0262
      3 C15        13.6020   67.1500   40.7740 C.ar      1 GXN         0.1163
      4 C17        11.7480   65.2710   38.5670 C.3       1 GXN         0.0563
      5 BR1        14.4130   66.4030   37.1710 Br        1 GXN        -0.0630
      6 C01        17.2630   64.8740   46.4920 C.ar      1 GXN         0.1087
      7 C02        17.8860   65.9290   47.1650 C.ar      1 GXN         0.1397
      8 C03        18.3440   67.0310   46.4490 C.ar      1 GXN        -0.0431
      9 C04        18.1820   67.0860   45.0600 C.ar      1 GXN        -0.0501
     10 C05        17.5640   66.0320   44.3770 C.ar      1 GXN        -0.0157
     11 C06        17.1020   64.9290   45.1030 C.ar      1 GXN        -0.0409
     12 C07        18.6940   68.2870   44.3190 C.3       1 GXN         0.0116
     13 C08        18.7960   68.0040   42.8190 C.3       1 GXN        -0.0225
     14 C09        17.3770   66.0700   42.8750 C.3       1 GXN        -0.0062
     15 C11        16.0340   67.2920   40.3690 C.ar      1 GXN        -0.0156
     16 C12        15.9010   66.9780   39.0550 C.ar      1 GXN        -0.0657
     17 C14        13.4250   66.8190   39.3890 C.ar      1 GXN         0.1226
     18 C16        14.8920   67.3810   41.2390 C.ar      1 GXN        -0.0320
     19 C18        11.5660   68.2710   41.4170 C.3       1 GXN         0.0568
     20 C19        16.7760   62.4850   46.5470 C.3       1 GXN         0.0553
     21 N01        17.5010   67.4550   42.3630 N.4       1 GXN         0.2561
     22 N02        15.5870   66.0600   49.5700 N.am      1 GXN        -0.2385
     23 O01        12.4830   67.2180   41.5940 O.3       1 GXN        -0.3258
     24 O02        12.2820   66.5690   38.7920 O.3       1 GXN        -0.3271
     25 O03        16.7940   63.7630   47.1750 O.3       1 GXN        -0.3309
     26 O04        18.0370   65.8520   48.5410 O.3       1 GXN        -0.1651
     27 O05        17.7160   66.6760   50.8720 O.2       1 GXN        -0.1234
     28 O06        17.0240   68.1260   48.9990 O.2       1 GXN        -0.1234
     29 S01        17.1220   66.7680   49.5430 S.o2      1 GXN         0.1753
     30 H1         17.7417   68.5320   40.5669 H         1 GXN         0.0957
     31 H2         18.0873   66.7728   40.4565 H         1 GXN         0.0957
     32 H3         10.7816   65.3569   38.0487 H         1 GXN         0.0572
     33 H4         11.6029   64.7620   39.5313 H         1 GXN         0.0572
     34 H5         12.4462   64.6897   37.9469 H         1 GXN         0.0572
     35 H6         18.8280   67.8497   46.9691 H         1 GXN         0.0435
     36 H7         16.6153   64.1103   44.5854 H         1 GXN         0.0436
     37 H8         19.6905   68.5493   44.7040 H         1 GXN         0.0442
     38 H9         18.0053   69.1295   44.4800 H         1 GXN         0.0442
     39 H10        19.5967   67.2735   42.6315 H         1 GXN         0.0834
     40 H11        19.0162   68.9363   42.2783 H         1 GXN         0.0834
     41 H12        16.3783   65.6819   42.6262 H         1 GXN         0.0942
     42 H13        18.1439   65.4403   42.4003 H         1 GXN         0.0942
     43 H14        16.7716   66.9150   38.4122 H         1 GXN         0.0462
     44 H15        15.0406   67.6343   42.2825 H         1 GXN         0.0475
     45 H16        10.7474   68.1705   42.1448 H         1 GXN         0.0573
     46 H17        11.1563   68.2329   40.3969 H         1 GXN         0.0573
     47 H18        12.0776   69.2325   41.5711 H         1 GXN         0.0573
     48 H19        16.3721   61.7384   47.2466 H         1 GXN         0.0570
     49 H20        17.7998   62.2028   46.2605 H         1 GXN         0.0570
     50 H21        16.1422   62.5266   45.6490 H         1 GXN         0.0570
     51 H22        16.7528   68.0080   42.7508 H         1 GXN         0.2060
     52 H23        14.8603   66.4628   50.1265 H         1 GXN         0.1657
     53 H24        15.4057   65.2384   49.0294 H         1 GXN         0.1657
@<TRIPOS>BOND
     1    1   15 1  
     2   21    1 1  
     3    2    5 1  
     4   16    2 ar 
     5    2   17 ar 
     6    3   17 ar 
     7   18    3 ar 
     8    3   23 1  
     9   24    4 1  
    10    7    6 ar 
    11    6   11 ar 
    12    6   25 1  
    13    7    8 ar 
    14   26    7 1  
    15    8    9 ar 
    16    9   10 ar 
    17    9   12 1  
    18   11   10 ar 
    19   10   14 1  
    20   12   13 1  
    21   13   21 1  
    22   14   21 1  
    23   15   16 ar 
    24   15   18 ar 
    25   17   24 1  
    26   23   19 1  
    27   25   20 1  
    28   29   22 am 
    29   26   29 1  
    30   29   27 2  
    31   29   28 2  
    32    1   30 1  
    33    1   31 1  
    34    4   32 1  
    35    4   33 1  
    36    4   34 1  
    37    8   35 1  
    38   11   36 1  
    39   12   37 1  
    40   12   38 1  
    41   13   39 1  
    42   13   40 1  
    43   14   41 1  
    44   14   42 1  
    45   16   43 1  
    46   18   44 1  
    47   19   45 1  
    48   19   46 1  
    49   19   47 1  
    50   20   48 1  
    51   20   49 1  
    52   20   50 1  
    53   21   51 1  
    54   22   52 1  
    55   22   53 1  
@<TRIPOS>SUBSTRUCTURE
     1 GXN         1

