### 
### Created by X-TOOL on Mon Aug  2 16:10:51 2021
### 

@<TRIPOS>MOLECULE
6hza_ligand
  127   128     1     0     0
SMALL
GAST_HUCK


@<TRIPOS>ATOM
      1 N          54.5810  -34.2690   -4.9100 N.am      1 ARG        -0.2656
      2 CA         53.7930  -34.1680   -3.6700 C.3       1 ARG         0.1310
      3 C          52.4260  -34.4610   -3.8270 C.2       1 ARG         0.2039
      4 O          51.8630  -35.2040   -3.0180 O.2       1 ARG        -0.3944
      5 CB         54.0030  -32.7620   -3.0970 C.3       1 ARG        -0.0092
      6 CG         53.4980  -32.6870   -1.6420 C.3       1 ARG        -0.0156
      7 CD         53.9740  -31.3560   -1.0610 C.3       1 ARG         0.0627
      8 NE         53.3510  -31.1070    0.2450 N.pl3     1 ARG        -0.2723
      9 CZ         52.1540  -30.5130    0.4040 C.cat     1 ARG         0.2882
     10 NH1        51.4530  -30.1190   -0.6800 N.pl3     1 ARG        -0.2849
     11 NH2        51.6710  -30.3080    1.6540 N.pl3     1 ARG        -0.2849
     12 N          51.6950  -33.9440   -4.9170 N.am      1 ARG        -0.2637
     13 CA         50.2440  -34.2410   -5.1040 C.3       1 ARG         0.1311
     14 C          50.0270  -34.6860   -6.4200 C.2       1 ARG         0.2039
     15 O          50.7000  -34.2450   -7.3530 O.2       1 ARG        -0.3944
     16 CB         49.3610  -33.0260   -4.7660 C.3       1 ARG        -0.0092
     17 CG         49.6580  -32.5380   -3.3270 C.3       1 ARG        -0.0156
     18 CD         49.0170  -33.4940   -2.2980 C.3       1 ARG         0.0627
     19 NE         49.2360  -33.0440   -0.9000 N.pl3     1 ARG        -0.2723
     20 CZ         50.0590  -33.6360   -0.0030 C.cat     1 ARG         0.2882
     21 NH1        50.1390  -33.1690    1.2630 N.pl3     1 ARG        -0.2849
     22 NH2        50.8010  -34.6990   -0.3530 N.pl3     1 ARG        -0.2849
     23 N          49.0340  -35.6520   -6.6620 N.am      1 ARG        -0.2637
     24 CA         48.7640  -36.2520   -7.9900 C.3       1 ARG         0.1310
     25 C          47.4180  -36.1640   -8.3500 C.2       1 ARG         0.2039
     26 O          46.5390  -36.2310   -7.4950 O.2       1 ARG        -0.3944
     27 CB         49.0170  -37.7580   -7.8630 C.3       1 ARG        -0.0123
     28 CG         50.4400  -38.0820   -7.4720 C.3       1 ARG        -0.0470
     29 CD         51.2950  -38.1470   -8.7140 C.3       1 ARG        -0.0325
     30 CE         52.5410  -38.9690   -8.3910 C.3       1 ARG         0.0309
     31 NZ         53.4740  -38.2080   -7.5310 N.am      1 ARG        -0.2870
     32 N          47.1680  -36.0740   -9.6700 N.am      1 ARG        -0.2637
     33 CA         45.8040  -36.1070  -10.2320 C.3       1 ARG         0.1311
     34 C          45.2090  -37.4780   -9.8470 C.2       1 ARG         0.2035
     35 O          45.9070  -38.4750   -9.9890 O.2       1 ARG        -0.3944
     36 CB         45.8100  -35.9620  -11.7600 C.3       1 ARG        -0.0092
     37 CG         46.2200  -34.5580  -12.2300 C.3       1 ARG        -0.0156
     38 CD         46.4670  -34.6540  -13.7510 C.3       1 ARG         0.0627
     39 NE         46.9050  -33.3640  -14.3070 N.pl3     1 ARG        -0.2723
     40 CZ         48.1680  -32.9220  -14.2150 C.cat     1 ARG         0.2882
     41 NH1        49.0820  -33.6670  -13.5850 N.pl3     1 ARG        -0.2849
     42 NH2        48.5180  -31.7330  -14.7390 N.pl3     1 ARG        -0.2849
     43 N23        43.9560  -37.5200   -9.3490 N.am      1 ARG        -0.2737
     44 C16        43.3470  -38.7960   -8.8930 C.3       1 ARG         0.0645
     45 C17        43.4530  -38.8750   -7.4660 C.ar      1 ARG        -0.0210
     46 C22        42.3620  -38.6160   -6.6360 C.ar      1 ARG        -0.0584
     47 C21        42.4790  -38.6780   -5.2420 C.ar      1 ARG        -0.0633
     48 C24        43.6890  -38.9950   -4.6270 C.ar      1 ARG         0.0188
     49 C27        43.7990  -39.0580   -3.2150 C.cat     1 ARG         0.2318
     50 N35        44.9710  -39.3830   -2.6580 N.pl3     1 ARG        -0.2729
     51 N34        42.7420  -38.7440   -2.4660 N.pl3     1 ARG        -0.2729
     52 C19        44.7740  -39.2530   -5.4530 C.ar      1 ARG        -0.0633
     53 C18        44.6620  -39.1850   -6.8510 C.ar      1 ARG        -0.0584
     54 C1         54.8200  -38.5980   -7.5000 C.2       1 ARG         0.1761
     55 C2         55.7390  -37.8660   -6.7490 C.3       1 ARG         0.0393
     56 C3         55.9620  -36.5640   -7.5280 C.3       1 ARG        -0.0191
     57 C4         55.3860  -35.2600   -6.9100 C.3       1 ARG         0.0394
     58 C5         54.5370  -35.3520   -5.7820 C.2       1 ARG         0.1784
     59 O1         55.1790  -39.5510   -8.1930 O.2       1 ARG        -0.3971
     60 O5         53.7460  -36.2780   -5.5620 O.2       1 ARG        -0.3969
     61 H1         55.1881  -33.5085   -5.1405 H         1 ARG         0.1883
     62 H2         54.1989  -34.8977   -2.9540 H         1 ARG         0.0800
     63 H3         53.4489  -32.0356   -3.7097 H         1 ARG         0.0313
     64 H4         55.0755  -32.5188   -3.1202 H         1 ARG         0.0313
     65 H5         53.9114  -33.5218   -1.0570 H         1 ARG         0.0301
     66 H6         52.3992  -32.7342   -1.6225 H         1 ARG         0.0301
     67 H7         53.7030  -30.5433   -1.7510 H         1 ARG         0.0689
     68 H8         55.0669  -31.3851   -0.9399 H         1 ARG         0.0689
     69 H9         53.8602  -31.4046    1.0894 H         1 ARG         0.2642
     70 H10        50.5364  -29.6640   -0.5631 H         1 ARG         0.2615
     71 H11        51.8346  -30.2734   -1.6242 H         1 ARG         0.2615
     72 H12        52.2157  -30.6134    2.4731 H         1 ARG         0.2615
     73 H13        50.7593  -29.8469    1.7846 H         1 ARG         0.2615
     74 H14        52.1618  -33.3623   -5.5831 H         1 ARG         0.1883
     75 H15        49.9699  -35.0548   -4.4165 H         1 ARG         0.0800
     76 H16        48.3019  -33.3133   -4.8416 H         1 ARG         0.0313
     77 H17        49.5722  -32.2135   -5.4768 H         1 ARG         0.0313
     78 H18        49.2431  -31.5282   -3.1927 H         1 ARG         0.0301
     79 H19        50.7463  -32.5112   -3.1695 H         1 ARG         0.0301
     80 H20        49.4582  -34.4941   -2.4211 H         1 ARG         0.0689
     81 H21        47.9347  -33.5447   -2.4881 H         1 ARG         0.0689
     82 H22        48.7179  -32.2109   -0.5863 H         1 ARG         0.2642
     83 H23        50.7671  -33.6237    1.9409 H         1 ARG         0.2615
     84 H24        49.5719  -32.3584    1.5497 H         1 ARG         0.2615
     85 H25        50.7519  -35.0675   -1.3136 H         1 ARG         0.2615
     86 H26        51.4192  -35.1459    0.3391 H         1 ARG         0.2615
     87 H27        48.4749  -35.9530   -5.8894 H         1 ARG         0.1883
     88 H28        49.4053  -35.7897   -8.7548 H         1 ARG         0.0800
     89 H29        48.8018  -38.2334   -8.8313 H         1 ARG         0.0312
     90 H30        48.3408  -38.1645   -7.0966 H         1 ARG         0.0312
     91 H31        50.4674  -39.0529   -6.9556 H         1 ARG         0.0268
     92 H32        50.8244  -37.2992   -6.8017 H         1 ARG         0.0268
     93 H33        51.5873  -37.1313   -9.0188 H         1 ARG         0.0285
     94 H34        50.7329  -38.6268   -9.5287 H         1 ARG         0.0285
     95 H35        53.0510  -39.2319   -9.3295 H         1 ARG         0.0520
     96 H36        52.2391  -39.8883   -7.8678 H         1 ARG         0.0520
     97 H37        53.1522  -37.4343   -6.9852 H         1 ARG         0.1850
     98 H38        47.9411  -35.9806  -10.2974 H         1 ARG         0.1883
     99 H39        45.2029  -35.2956   -9.7958 H         1 ARG         0.0800
    100 H40        44.7986  -36.1756  -12.1360 H         1 ARG         0.0313
    101 H41        46.5185  -36.6921  -12.1783 H         1 ARG         0.0313
    102 H42        47.1389  -34.2394  -11.7161 H         1 ARG         0.0301
    103 H43        45.4148  -33.8382  -12.0214 H         1 ARG         0.0301
    104 H44        45.5334  -34.9586  -14.2465 H         1 ARG         0.0689
    105 H45        47.2454  -35.4078  -13.9402 H         1 ARG         0.0689
    106 H46        46.2110  -32.7743  -14.7882 H         1 ARG         0.2642
    107 H47        50.0541  -33.3350  -13.5099 H         1 ARG         0.2615
    108 H48        48.8141  -34.5730  -13.1748 H         1 ARG         0.2615
    109 H49        47.8154  -31.1574  -15.2248 H         1 ARG         0.2615
    110 H50        49.4885  -31.3985  -14.6543 H         1 ARG         0.2615
    111 H51        43.4259  -36.6744   -9.2854 H         1 ARG         0.1878
    112 H52        43.8785  -39.6435   -9.3505 H         1 ARG         0.0683
    113 H53        42.2875  -38.8257   -9.1871 H         1 ARG         0.0683
    114 H54        41.4056  -38.3620   -7.0786 H         1 ARG         0.0557
    115 H55        41.6093  -38.4750   -4.6276 H         1 ARG         0.0599
    116 H56        45.0584  -39.4307   -1.6328 H         1 ARG         0.3180
    117 H57        45.7861  -39.5855   -3.2543 H         1 ARG         0.3180
    118 H58        41.8483  -38.4966   -2.9144 H         1 ARG         0.3180
    119 H59        42.8189  -38.7488   -1.4389 H         1 ARG         0.3180
    120 H60        45.7284  -39.5126   -5.0094 H         1 ARG         0.0599
    121 H61        45.5352  -39.3779   -7.4636 H         1 ARG         0.0557
    122 H62        56.6835  -38.4211   -6.6502 H         1 ARG         0.0504
    123 H63        55.3337  -37.6509   -5.7493 H         1 ARG         0.0504
    124 H64        55.5051  -36.6897   -8.5207 H         1 ARG         0.0314
    125 H65        57.0477  -36.4263   -7.6388 H         1 ARG         0.0314
    126 H66        54.8157  -34.7525   -7.7020 H         1 ARG         0.0504
    127 H67        56.2433  -34.6357   -6.6180 H         1 ARG         0.0504
@<TRIPOS>BOND
     1    1    2 1  
     2    1   58 am 
     3    2    3 1  
     4    2    5 1  
     5    3    4 2  
     6    3   12 am 
     7    5    6 1  
     8    6    7 1  
     9    7    8 1  
    10    8    9 ar 
    11    9   10 ar 
    12    9   11 ar 
    13   12   13 1  
    14   13   14 1  
    15   13   16 1  
    16   14   15 2  
    17   14   23 am 
    18   16   17 1  
    19   17   18 1  
    20   18   19 1  
    21   19   20 ar 
    22   20   21 ar 
    23   20   22 ar 
    24   23   24 1  
    25   24   25 1  
    26   24   27 1  
    27   25   26 2  
    28   25   32 am 
    29   27   28 1  
    30   28   29 1  
    31   29   30 1  
    32   30   31 1  
    33   31   54 am 
    34   32   33 1  
    35   33   34 1  
    36   33   36 1  
    37   34   35 2  
    38   34   43 am 
    39   36   37 1  
    40   37   38 1  
    41   38   39 1  
    42   39   40 ar 
    43   40   41 ar 
    44   40   42 ar 
    45   43   44 1  
    46   44   45 1  
    47   45   46 ar 
    48   45   53 ar 
    49   46   47 ar 
    50   47   48 ar 
    51   48   49 1  
    52   48   52 ar 
    53   49   50 ar 
    54   49   51 ar 
    55   52   53 ar 
    56   54   55 1  
    57   54   59 2  
    58   55   56 1  
    59   56   57 1  
    60   57   58 1  
    61   58   60 2  
    62    1   61 1  
    63    2   62 1  
    64    5   63 1  
    65    5   64 1  
    66    6   65 1  
    67    6   66 1  
    68    7   67 1  
    69    7   68 1  
    70    8   69 1  
    71   10   70 1  
    72   10   71 1  
    73   11   72 1  
    74   11   73 1  
    75   12   74 1  
    76   13   75 1  
    77   16   76 1  
    78   16   77 1  
    79   17   78 1  
    80   17   79 1  
    81   18   80 1  
    82   18   81 1  
    83   19   82 1  
    84   21   83 1  
    85   21   84 1  
    86   22   85 1  
    87   22   86 1  
    88   23   87 1  
    89   24   88 1  
    90   27   89 1  
    91   27   90 1  
    92   28   91 1  
    93   28   92 1  
    94   29   93 1  
    95   29   94 1  
    96   30   95 1  
    97   30   96 1  
    98   31   97 1  
    99   32   98 1  
   100   33   99 1  
   101   36  100 1  
   102   36  101 1  
   103   37  102 1  
   104   37  103 1  
   105   38  104 1  
   106   38  105 1  
   107   39  106 1  
   108   41  107 1  
   109   41  108 1  
   110   42  109 1  
   111   42  110 1  
   112   43  111 1  
   113   44  112 1  
   114   44  113 1  
   115   46  114 1  
   116   47  115 1  
   117   50  116 1  
   118   50  117 1  
   119   51  118 1  
   120   51  119 1  
   121   52  120 1  
   122   53  121 1  
   123   55  122 1  
   124   55  123 1  
   125   56  124 1  
   126   56  125 1  
   127   57  126 1  
   128   57  127 1  
@<TRIPOS>SUBSTRUCTURE
     1 ARG         1

