### 
### Created by X-TOOL on Mon Aug  2 16:10:51 2021
### 

@<TRIPOS>MOLECULE
6hzb_ligand
  125   126     1     0     0
SMALL
GAST_HUCK


@<TRIPOS>ATOM
      1 N          54.7160  -34.3430   -4.9760 N.am      1 ARG        -0.2656
      2 CA         54.0590  -34.2550   -3.6420 C.3       1 ARG         0.1310
      3 C          52.6820  -34.5430   -3.7330 C.2       1 ARG         0.2039
      4 O          52.1160  -35.2050   -2.8630 O.2       1 ARG        -0.3944
      5 CB         54.2800  -32.8550   -3.0580 C.3       1 ARG        -0.0092
      6 CG         53.7110  -32.7510   -1.6220 C.3       1 ARG        -0.0156
      7 CD         54.1090  -31.3910   -1.0460 C.3       1 ARG         0.0627
      8 NE         53.4960  -31.1580    0.2730 N.pl3     1 ARG        -0.2723
      9 CZ         52.3010  -30.5630    0.4480 C.cat     1 ARG         0.2882
     10 NH1        51.8190  -30.3620    1.6970 N.pl3     1 ARG        -0.2849
     11 NH2        51.6020  -30.1590   -0.6310 N.pl3     1 ARG        -0.2849
     12 N          51.9380  -34.1140   -4.8450 N.am      1 ARG        -0.2637
     13 CA         50.4830  -34.4050   -4.9840 C.3       1 ARG         0.1311
     14 C          50.2580  -34.8890   -6.2840 C.2       1 ARG         0.2039
     15 O          50.9460  -34.4970   -7.2280 O.2       1 ARG        -0.3944
     16 CB         49.6310  -33.1630   -4.6760 C.3       1 ARG        -0.0092
     17 CG         49.8940  -32.6930   -3.2270 C.3       1 ARG        -0.0156
     18 CD         49.1600  -33.6090   -2.2240 C.3       1 ARG         0.0627
     19 NE         49.3670  -33.1500   -0.8340 N.pl3     1 ARG        -0.2723
     20 CZ         50.2000  -33.7360    0.0610 C.cat     1 ARG         0.2882
     21 NH1        50.9280  -34.8070   -0.2780 N.pl3     1 ARG        -0.2849
     22 NH2        50.2890  -33.2660    1.3120 N.pl3     1 ARG        -0.2849
     23 N          49.2550  -35.8420   -6.5170 N.am      1 ARG        -0.2637
     24 CA         48.9940  -36.4600   -7.8450 C.3       1 ARG         0.1310
     25 C          47.6580  -36.3690   -8.2320 C.2       1 ARG         0.2039
     26 O          46.7740  -36.4670   -7.3910 O.2       1 ARG        -0.3944
     27 CB         49.1870  -37.9530   -7.6910 C.3       1 ARG        -0.0123
     28 CG         50.5980  -38.3250   -7.3370 C.3       1 ARG        -0.0470
     29 CD         51.4330  -38.1880   -8.5770 C.3       1 ARG        -0.0325
     30 CE         52.7070  -38.9880   -8.3880 C.3       1 ARG         0.0309
     31 NZ         53.6140  -38.3480   -7.4120 N.am      1 ARG        -0.2870
     32 N          47.4160  -36.2790   -9.5600 N.am      1 ARG        -0.2637
     33 CA         46.0520  -36.2860  -10.1200 C.3       1 ARG         0.1310
     34 C          45.4520  -37.6450   -9.7670 C.2       1 ARG         0.2035
     35 O          46.1520  -38.6390   -9.8790 O.2       1 ARG        -0.3944
     36 CB         46.0450  -36.0940  -11.6490 C.3       1 ARG        -0.0122
     37 CG         46.4740  -34.6890  -12.0310 C.3       1 ARG        -0.0440
     38 CD         46.5740  -34.5670  -13.5640 C.3       1 ARG        -0.0124
     39 CE         47.4430  -33.3410  -13.8930 C.3       1 ARG        -0.0354
     40 NZ         47.2080  -32.8350  -15.2560 N.4       1 ARG         0.2185
     41 N23        44.1850  -37.6820   -9.3160 N.am      1 ARG        -0.2737
     42 C16        43.5720  -38.9530   -8.8810 C.3       1 ARG         0.0645
     43 C17        43.6340  -39.0040   -7.4550 C.ar      1 ARG        -0.0210
     44 C22        42.5340  -38.6970   -6.6570 C.ar      1 ARG        -0.0584
     45 C21        42.6220  -38.7340   -5.2550 C.ar      1 ARG        -0.0633
     46 C24        43.8040  -39.0850   -4.6030 C.ar      1 ARG         0.0188
     47 C27        43.9090  -39.1310   -3.1880 C.cat     1 ARG         0.2318
     48 N35        45.0940  -39.3940   -2.6240 N.pl3     1 ARG        -0.2729
     49 N34        42.8330  -38.8790   -2.4420 N.pl3     1 ARG        -0.2729
     50 C19        44.8970  -39.3870   -5.4060 C.ar      1 ARG        -0.0633
     51 C18        44.8170  -39.3400   -6.8050 C.ar      1 ARG        -0.0584
     52 C1         54.7220  -35.5720   -5.6620 C.2       1 ARG         0.1784
     53 C2         55.3110  -35.6920   -6.9400 C.3       1 ARG         0.0394
     54 C3         56.4010  -36.7920   -7.0080 C.3       1 ARG        -0.0191
     55 C4         55.9130  -38.2050   -6.5870 C.3       1 ARG         0.0393
     56 C5         54.9590  -38.7380   -7.4610 C.2       1 ARG         0.1761
     57 O1         54.1260  -36.5150   -5.1380 O.2       1 ARG        -0.3969
     58 O5         55.2700  -39.6090   -8.2740 O.2       1 ARG        -0.3971
     59 H1         55.1485  -33.5370   -5.3801 H         1 ARG         0.1883
     60 H2         54.5238  -34.9938   -2.9726 H         1 ARG         0.0800
     61 H3         53.7761  -32.1157   -3.6979 H         1 ARG         0.0313
     62 H4         55.3591  -32.6431   -3.0325 H         1 ARG         0.0313
     63 H5         54.1269  -33.5556   -0.9978 H         1 ARG         0.0301
     64 H6         52.6147  -32.8372   -1.6490 H         1 ARG         0.0301
     65 H7         53.7796  -30.6009   -1.7368 H         1 ARG         0.0689
     66 H8         55.2034  -31.3543   -0.9420 H         1 ARG         0.0689
     67 H9         54.0111  -31.4680    1.1093 H         1 ARG         0.2642
     68 H10        50.9046  -29.9067    1.8291 H         1 ARG         0.2615
     69 H11        52.3667  -30.6644    2.5152 H         1 ARG         0.2615
     70 H12        51.9779  -30.3169   -1.5769 H         1 ARG         0.2615
     71 H13        50.6918  -29.6923   -0.5098 H         1 ARG         0.2615
     72 H14        52.3994  -33.5970   -5.5660 H         1 ARG         0.1883
     73 H15        50.2094  -35.1908   -4.2645 H         1 ARG         0.0800
     74 H16        48.5660  -33.4132   -4.7910 H         1 ARG         0.0313
     75 H17        49.8957  -32.3561   -5.3752 H         1 ARG         0.0313
     76 H18        49.5310  -31.6614   -3.1088 H         1 ARG         0.0301
     77 H19        50.9748  -32.7268   -3.0252 H         1 ARG         0.0301
     78 H20        49.5457  -34.6342   -2.3249 H         1 ARG         0.0689
     79 H21        48.0834  -33.5984   -2.4492 H         1 ARG         0.0689
     80 H22        48.8386  -32.3227   -0.5220 H         1 ARG         0.2642
     81 H23        51.5567  -35.2419    0.4123 H         1 ARG         0.2615
     82 H24        50.8595  -35.1962   -1.2292 H         1 ARG         0.2615
     83 H25        49.7373  -32.4430    1.5934 H         1 ARG         0.2615
     84 H26        50.9091  -33.7276    1.9927 H         1 ARG         0.2615
     85 H27        48.6827  -36.1219   -5.7462 H         1 ARG         0.1883
     86 H28        49.6601  -36.0266   -8.6056 H         1 ARG         0.0800
     87 H29        48.9229  -38.4411   -8.6407 H         1 ARG         0.0312
     88 H30        48.5186  -38.3133   -6.8951 H         1 ARG         0.0312
     89 H31        50.6319  -39.3634   -6.9758 H         1 ARG         0.0268
     90 H32        50.9774  -37.6519   -6.5541 H         1 ARG         0.0268
     91 H33        51.6806  -37.1292   -8.7428 H         1 ARG         0.0285
     92 H34        50.8769  -38.5747   -9.4437 H         1 ARG         0.0285
     93 H35        53.2241  -39.0689   -9.3555 H         1 ARG         0.0520
     94 H36        52.4463  -39.9936   -8.0263 H         1 ARG         0.0520
     95 H37        53.2853  -37.6726   -6.7518 H         1 ARG         0.1850
     96 H38        48.1922  -36.2049  -10.1861 H         1 ARG         0.1883
     97 H39        45.4609  -35.4813   -9.6584 H         1 ARG         0.0800
     98 H40        45.0280  -36.2734  -12.0279 H         1 ARG         0.0312
     99 H41        46.7386  -36.8164  -12.1039 H         1 ARG         0.0312
    100 H42        47.4555  -34.4735  -11.5837 H         1 ARG         0.0269
    101 H43        45.7335  -33.9673  -11.6557 H         1 ARG         0.0269
    102 H44        45.5697  -34.4375  -13.9936 H         1 ARG         0.0317
    103 H45        47.0368  -35.4739  -13.9803 H         1 ARG         0.0317
    104 H46        48.5020  -33.6232  -13.7988 H         1 ARG         0.0813
    105 H47        47.2114  -32.5409  -13.1745 H         1 ARG         0.0813
    106 H48        47.7978  -32.0350  -15.4237 H         1 ARG         0.1994
    107 H49        46.2414  -32.5659  -15.3525 H         1 ARG         0.1994
    108 H50        47.4240  -33.5577  -15.9246 H         1 ARG         0.1994
    109 H51        43.6512  -36.8374   -9.2748 H         1 ARG         0.1878
    110 H52        44.1257  -39.8012   -9.3098 H         1 ARG         0.0683
    111 H53        42.5236  -38.9948   -9.2113 H         1 ARG         0.0683
    112 H54        41.5949  -38.4252   -7.1253 H         1 ARG         0.0557
    113 H55        41.7482  -38.4831   -4.6646 H         1 ARG         0.0599
    114 H56        45.1796  -39.4294   -1.5982 H         1 ARG         0.3180
    115 H57        45.9203  -39.5610   -3.2158 H         1 ARG         0.3180
    116 H58        41.9290  -38.6786   -2.8931 H         1 ARG         0.3180
    117 H59        42.9058  -38.8847   -1.4146 H         1 ARG         0.3180
    118 H60        45.8348  -39.6659   -4.9393 H         1 ARG         0.0599
    119 H61        45.6974  -39.5709   -7.3937 H         1 ARG         0.0557
    120 H62        55.7697  -34.7282   -7.2057 H         1 ARG         0.0504
    121 H63        54.5224  -35.9356   -7.6672 H         1 ARG         0.0504
    122 H64        57.2263  -36.5004   -6.3418 H         1 ARG         0.0314
    123 H65        56.7682  -36.8491   -8.0433 H         1 ARG         0.0314
    124 H66        55.4691  -38.1376   -5.5828 H         1 ARG         0.0504
    125 H67        56.7800  -38.8815   -6.5600 H         1 ARG         0.0504
@<TRIPOS>BOND
     1    1    2 1  
     2    1   52 am 
     3    2    3 1  
     4    2    5 1  
     5    3    4 2  
     6    3   12 am 
     7    5    6 1  
     8    6    7 1  
     9    7    8 1  
    10    8    9 ar 
    11    9   10 ar 
    12    9   11 ar 
    13   12   13 1  
    14   13   14 1  
    15   13   16 1  
    16   14   15 2  
    17   14   23 am 
    18   16   17 1  
    19   17   18 1  
    20   18   19 1  
    21   19   20 ar 
    22   20   21 ar 
    23   20   22 ar 
    24   23   24 1  
    25   24   25 1  
    26   24   27 1  
    27   25   26 2  
    28   25   32 am 
    29   27   28 1  
    30   28   29 1  
    31   29   30 1  
    32   30   31 1  
    33   31   56 am 
    34   32   33 1  
    35   33   34 1  
    36   33   36 1  
    37   34   35 2  
    38   34   41 am 
    39   36   37 1  
    40   37   38 1  
    41   38   39 1  
    42   39   40 1  
    43   41   42 1  
    44   42   43 1  
    45   43   44 ar 
    46   43   51 ar 
    47   44   45 ar 
    48   45   46 ar 
    49   46   47 1  
    50   46   50 ar 
    51   47   48 ar 
    52   47   49 ar 
    53   50   51 ar 
    54   52   53 1  
    55   52   57 2  
    56   53   54 1  
    57   54   55 1  
    58   55   56 1  
    59   56   58 2  
    60    1   59 1  
    61    2   60 1  
    62    5   61 1  
    63    5   62 1  
    64    6   63 1  
    65    6   64 1  
    66    7   65 1  
    67    7   66 1  
    68    8   67 1  
    69   10   68 1  
    70   10   69 1  
    71   11   70 1  
    72   11   71 1  
    73   12   72 1  
    74   13   73 1  
    75   16   74 1  
    76   16   75 1  
    77   17   76 1  
    78   17   77 1  
    79   18   78 1  
    80   18   79 1  
    81   19   80 1  
    82   21   81 1  
    83   21   82 1  
    84   22   83 1  
    85   22   84 1  
    86   23   85 1  
    87   24   86 1  
    88   27   87 1  
    89   27   88 1  
    90   28   89 1  
    91   28   90 1  
    92   29   91 1  
    93   29   92 1  
    94   30   93 1  
    95   30   94 1  
    96   31   95 1  
    97   32   96 1  
    98   33   97 1  
    99   36   98 1  
   100   36   99 1  
   101   37  100 1  
   102   37  101 1  
   103   38  102 1  
   104   38  103 1  
   105   39  104 1  
   106   39  105 1  
   107   40  106 1  
   108   40  107 1  
   109   40  108 1  
   110   41  109 1  
   111   42  110 1  
   112   42  111 1  
   113   44  112 1  
   114   45  113 1  
   115   48  114 1  
   116   48  115 1  
   117   49  116 1  
   118   49  117 1  
   119   50  118 1  
   120   51  119 1  
   121   53  120 1  
   122   53  121 1  
   123   54  122 1  
   124   54  123 1  
   125   55  124 1  
   126   55  125 1  
@<TRIPOS>SUBSTRUCTURE
     1 ARG         1

