### 
### Created by X-TOOL on Mon Aug  2 16:14:01 2021
### 

@<TRIPOS>MOLECULE
6hzp_ligand
   18    17     1     0     0
SMALL
GAST_HUCK


@<TRIPOS>ATOM
      1 C1         21.5100    2.5650   32.6240 C.3       1 FVT         0.0162
      2 C3         19.0110    2.6910   32.7520 C.2       1 FVT         0.1508
      3 O2         18.6430    3.7950   32.4080 O.2       1 FVT        -0.3858
      4 C4         18.2050    1.4490   32.4240 C.3       1 FVT         0.0381
      5 N          16.7910    1.6870   32.1890 N.4       1 FVT         0.2351
      6 C          20.2900    2.5030   33.5260 C.3       1 FVT         0.0379
      7 C2         22.7620    2.9960   33.3330 C.2       1 FVT         0.0371
      8 O          23.2970    4.0710   33.1350 O.co2     1 FVT        -0.5688
      9 O1         23.2330    2.0990   34.1640 O.co2     1 FVT        -0.5688
     10 H1         21.3065    3.2795   31.8128 H         1 FVT         0.0456
     11 H2         21.6786    1.5649   32.1981 H         1 FVT         0.0456
     12 H3         18.2990    0.7474   33.2659 H         1 FVT         0.1053
     13 H4         18.6309    0.9936   31.5178 H         1 FVT         0.1053
     14 H5         16.3336    0.8136   31.9791 H         1 FVT         0.2012
     15 H6         16.6813    2.3190   31.4115 H         1 FVT         0.2012
     16 H7         16.3771    2.0934   33.0134 H         1 FVT         0.2012
     17 H8         20.3671    3.2963   34.2841 H         1 FVT         0.0514
     18 H9         20.2643    1.5221   34.0230 H         1 FVT         0.0514
@<TRIPOS>BOND
     1    6    1 1  
     2    1    7 1  
     3    2    3 2  
     4    2    4 1  
     5    2    6 1  
     6    4    5 1  
     7    7    8 ar 
     8    7    9 ar 
     9    1   10 1  
    10    1   11 1  
    11    4   12 1  
    12    4   13 1  
    13    5   14 1  
    14    5   15 1  
    15    5   16 1  
    16    6   17 1  
    17    6   18 1  
@<TRIPOS>SUBSTRUCTURE
     1 FVT         1

