### 
### Created by X-TOOL on Mon Aug  2 16:14:01 2021
### 

@<TRIPOS>MOLECULE
6hzu_ligand
   46    49     1     0     0
SMALL
GAST_HUCK


@<TRIPOS>ATOM
      1 C2          5.5080   60.8060    0.5120 C.2       1 GYQ         0.2330
      2 C4          3.6060   59.9260    1.5820 C.2       1 GYQ         0.0424
      3 C5          4.1440   58.6860    1.5930 C.2       1 GYQ        -0.0636
      4 C6          5.4200   58.4720    1.0460 C.2       1 GYQ        -0.0585
      5 C7          6.1150   59.5310    0.5030 C.2       1 GYQ         0.1204
      6 N10         9.4910   58.7940   -0.6580 N.ar      1 GYQ        -0.2900
      7 C11        10.4970   57.9420   -0.7700 C.ar      1 GYQ         0.0183
      8 C12        10.3190   56.6450   -0.3140 C.ar      1 GYQ         0.1294
      9 N13        11.1290   55.5210   -0.2870 N.am      1 GYQ        -0.2138
     10 C17         9.0680   56.2750    0.2370 C.ar      1 GYQ         0.1715
     11 C19         8.1600   54.0500    1.1180 C.3       1 GYQ         0.0721
     12 C21         6.9790   54.0080    0.1460 C.3       1 GYQ        -0.0231
     13 C23         5.5330   53.0280    1.9360 C.3       1 GYQ        -0.0172
     14 O1          6.0930   61.7700    0.0360 O.2       1 GYQ        -0.4142
     15 N3          4.2840   60.9730    1.0500 N.am      1 GYQ        -0.2312
     16 N8          7.3890   59.4730   -0.0920 N.pl3     1 GYQ        -0.2575
     17 C9          8.3150   58.4410   -0.1230 C.ar      1 GYQ         0.1730
     18 C14        10.4220   54.5100    0.2330 C.2       1 GYQ         0.3187
     19 O15        10.8570   53.3860    0.3800 O.2       1 GYQ        -0.3906
     20 N16         9.1840   54.9340    0.5710 N.am      1 GYQ        -0.1813
     21 N18         8.0960   57.1960    0.3090 N.ar      1 GYQ        -0.2533
     22 C22         6.1100   52.8080    0.5270 C.3       1 GYQ        -0.0456
     23 C25         4.7900   51.7470    2.3970 C.3       1 GYQ         0.0755
     24 C26         3.6900   51.4480    1.4790 C.1       1 GYQ         0.0900
     25 N27         2.8040   51.1790    0.8020 N.1       1 GYQ        -0.3036
     26 C28         6.6960   53.2170    2.9480 C.3       1 GYQ        -0.0456
     27 C29         7.6350   54.3940    2.5140 C.3       1 GYQ        -0.0231
     28 H1          2.6157   60.0862    2.0057 H         1 GYQ         0.1045
     29 H2          3.5892   57.8545    2.0251 H         1 GYQ         0.0304
     30 H3          5.8576   57.4748    1.0510 H         1 GYQ         0.0441
     31 H4         11.4390   58.2511   -1.2084 H         1 GYQ         0.0708
     32 H5         12.0771   55.4733   -0.6014 H         1 GYQ         0.2251
     33 H6          8.6011   53.0441    1.1784 H         1 GYQ         0.0636
     34 H7          7.3453   53.8937   -0.8849 H         1 GYQ         0.0293
     35 H8          6.3936   54.9358    0.2264 H         1 GYQ         0.0293
     36 H9          4.8602   53.8982    1.9401 H         1 GYQ         0.0321
     37 H10         3.8692   61.8829    1.0571 H         1 GYQ         0.2494
     38 H11         7.6793   60.3317   -0.5812 H         1 GYQ         0.2112
     39 H12         6.7214   51.8936    0.5186 H         1 GYQ         0.0269
     40 H13         5.2870   52.7056   -0.1956 H         1 GYQ         0.0269
     41 H14         4.3876   51.9035    3.4087 H         1 GYQ         0.0559
     42 H15         5.4941   50.9020    2.4091 H         1 GYQ         0.0559
     43 H16         7.2835   52.2884    2.9979 H         1 GYQ         0.0269
     44 H17         6.2764   53.4392    3.9402 H         1 GYQ         0.0269
     45 H18         7.0703   55.3375    2.4842 H         1 GYQ         0.0293
     46 H19         8.4727   54.4901    3.2204 H         1 GYQ         0.0293
@<TRIPOS>BOND
     1    5    1 1  
     2    1   14 2  
     3    1   15 am 
     4    3    2 2  
     5   15    2 1  
     6    4    3 1  
     7    5    4 2  
     8   16    5 1  
     9    6    7 ar 
    10   17    6 ar 
    11    7    8 ar 
    12    8    9 1  
    13    8   10 ar 
    14    9   18 am 
    15   10   20 1  
    16   10   21 ar 
    17   11   12 1  
    18   20   11 1  
    19   11   27 1  
    20   12   22 1  
    21   22   13 1  
    22   13   23 1  
    23   13   26 1  
    24   16   17 1  
    25   17   21 ar 
    26   18   19 2  
    27   18   20 am 
    28   23   24 1  
    29   24   25 3  
    30   26   27 1  
    31    2   28 1  
    32    3   29 1  
    33    4   30 1  
    34    7   31 1  
    35    9   32 1  
    36   11   33 1  
    37   12   34 1  
    38   12   35 1  
    39   13   36 1  
    40   15   37 1  
    41   16   38 1  
    42   22   39 1  
    43   22   40 1  
    44   23   41 1  
    45   23   42 1  
    46   26   43 1  
    47   26   44 1  
    48   27   45 1  
    49   27   46 1  
@<TRIPOS>SUBSTRUCTURE
     1 GYQ         1

