### 
### Created by X-TOOL on Mon Aug  2 16:14:01 2021
### 

@<TRIPOS>MOLECULE
6hzv_ligand
   49    53     1     0     0
SMALL
GAST_HUCK


@<TRIPOS>ATOM
      1 C2         10.2120   26.0660    0.0010 C.2       1 GYW         0.1490
      2 C3          8.7700   26.7400    1.7400 C.2       1 GYW         0.1293
      3 C4          9.7250   27.0260   -0.8580 C.2       1 GYW        -0.0076
      4 C5          8.2500   27.7230    0.9070 C.2       1 GYW         0.1363
      5 C6          8.7290   27.8680   -0.3880 C.2       1 GYW        -0.0258
      6 C7         10.4050   24.9290    1.8140 C.2       1 GYW         0.1275
      7 C8         11.3050   24.4470    0.8860 C.2       1 GYW        -0.0078
      8 C12        10.2850   24.3870    3.1810 C.ar      1 GYW         0.1030
      9 C15        10.0810   23.3980    5.7610 C.ar      1 GYW         0.1410
     10 C16         9.4690   24.5720    5.4060 C.ar      1 GYW         0.1777
     11 C19         9.0400   24.1870    7.5160 C.2       1 GYW         0.3244
     12 C23        11.7100   21.5170    7.8050 C.3       1 GYW         0.0699
     13 C27         5.9750   27.5940    5.7900 C.3       1 GYW         0.0503
     14 O28         6.8520   28.6840    5.4930 O.3       1 GYW        -0.3796
     15 C30         8.8070   27.5580    6.3640 C.3       1 GYW         0.0001
     16 O21         8.6010   24.3120    8.6390 O.2       1 GYW        -0.3889
     17 N18         9.8340   23.1150    7.1230 N.am      1 GYW        -0.1924
     18 C22        10.2520   21.9760    7.9700 C.3       1 GYW         0.0805
     19 O24        12.6090   22.6180    7.7380 O.3       1 GYW        -0.3925
     20 C13        10.8210   22.6920    4.8260 C.ar      1 GYW         0.0250
     21 N14        10.9200   23.2000    3.5390 N.ar      1 GYW        -0.3074
     22 N20         8.7860   25.1130    6.5100 N.am      1 GYW        -0.1790
     23 C25         7.9650   26.3270    6.6920 C.3       1 GYW         0.0764
     24 C29         7.9060   28.7950    6.4500 C.3       1 GYW         0.0503
     25 C26         6.7390   26.2580    5.7630 C.3       1 GYW         0.0001
     26 N17         9.5570   25.0870    4.1320 N.ar      1 GYW        -0.2735
     27 N1          9.7430   25.9420    1.2480 N.pl3     1 GYW        -0.1771
     28 N9         11.1710   25.1660   -0.2440 N.2       1 GYW        -0.3267
     29 C10         7.2220   28.5990    1.3620 C.1       1 GYW         0.0892
     30 N11         6.3850   29.3140    1.7260 N.1       1 GYW        -0.3455
     31 H1          8.4045   26.6165    2.7584 H         1 GYW         0.1459
     32 H2         10.1094   27.1205   -1.8725 H         1 GYW         0.0602
     33 H3          8.3221   28.6437   -1.0350 H         1 GYW         0.0713
     34 H4         12.0036   23.6261    1.0411 H         1 GYW         0.0602
     35 H5         11.7956   20.9312    6.8779 H         1 GYW         0.0583
     36 H6         11.9836   20.8864    8.6638 H         1 GYW         0.0583
     37 H7          5.1694   27.5644    5.0416 H         1 GYW         0.0561
     38 H8          5.5412   27.7417    6.7900 H         1 GYW         0.0561
     39 H9          9.2180   27.4674    5.3477 H         1 GYW         0.0316
     40 H10         9.6316   27.6477    7.0864 H         1 GYW         0.0316
     41 H11        10.1068   22.2663    9.0210 H         1 GYW         0.0613
     42 H12         9.6007   21.1221    7.7321 H         1 GYW         0.0613
     43 H13        12.5455   23.1264    8.5380 H         1 GYW         0.2095
     44 H14        11.3116   21.7634    5.0944 H         1 GYW         0.0734
     45 H15         7.6257   26.3867    7.7367 H         1 GYW         0.0637
     46 H16         7.4776   28.8669    7.4606 H         1 GYW         0.0561
     47 H17         8.4998   29.6964    6.2385 H         1 GYW         0.0561
     48 H18         7.0730   26.0513    4.7356 H         1 GYW         0.0316
     49 H19         6.0721   25.4512    6.1011 H         1 GYW         0.0316
@<TRIPOS>BOND
     1    1    3 1  
     2   27    1 1  
     3    1   28 2  
     4    2    4 2  
     5   27    2 1  
     6    3    5 2  
     7    4    5 1  
     8    4   29 1  
     9    6    7 2  
    10    8    6 1  
    11    6   27 1  
    12    7   28 1  
    13    8   21 ar 
    14   26    8 ar 
    15   10    9 ar 
    16   17    9 1  
    17    9   20 ar 
    18   22   10 1  
    19   10   26 ar 
    20   11   16 2  
    21   11   17 am 
    22   22   11 am 
    23   18   12 1  
    24   12   19 1  
    25   14   13 1  
    26   13   25 1  
    27   24   14 1  
    28   23   15 1  
    29   15   24 1  
    30   17   18 1  
    31   20   21 ar 
    32   22   23 1  
    33   23   25 1  
    34   29   30 3  
    35    2   31 1  
    36    3   32 1  
    37    5   33 1  
    38    7   34 1  
    39   12   35 1  
    40   12   36 1  
    41   13   37 1  
    42   13   38 1  
    43   15   39 1  
    44   15   40 1  
    45   18   41 1  
    46   18   42 1  
    47   19   43 1  
    48   20   44 1  
    49   23   45 1  
    50   24   46 1  
    51   24   47 1  
    52   25   48 1  
    53   25   49 1  
@<TRIPOS>SUBSTRUCTURE
     1 GYW         1

