### 
### Created by X-TOOL on Mon Aug  2 16:14:02 2021
### 

@<TRIPOS>MOLECULE
6hzy_ligand
   37    38     1     0     0
SMALL
GAST_HUCK


@<TRIPOS>ATOM
      1 C2        -33.0370  -38.5740  -31.9000 C.3       1 GYZ         0.1615
      2 C1        -33.4440  -39.2130  -30.5980 C.2       1 GYZ         0.1926
      3 C10       -30.9460  -41.9350  -30.4440 C.3       1 GYZ        -0.0310
      4 C5        -31.1850  -40.4400  -30.4190 C.3       1 GYZ         0.1119
      5 C4        -30.7830  -39.6170  -31.6590 C.3       1 GYZ         0.1166
      6 C3        -31.5430  -38.2830  -31.7590 C.3       1 GYZ         0.1252
      7 O6        -33.8320  -37.4520  -32.2270 O.3       1 GYZ        -0.3699
      8 O8        -31.2110  -37.4940  -32.8960 O.3       1 GYZ        -0.3839
      9 O9        -31.0210  -40.4650  -32.7700 O.3       1 GYZ        -0.3859
     10 O11       -32.5140  -40.1390  -29.9750 O.3       1 GYZ        -0.2894
     11 N12       -34.5830  -38.9530  -30.0690 N.2       1 GYZ        -0.1538
     12 O14       -34.9620  -39.4710  -28.9610 O.3       1 GYZ        -0.1506
     13 C15       -35.6450  -38.7280  -27.8630 C.2       1 GYZ         0.3788
     14 O16       -36.1690  -37.6470  -28.1000 O.2       1 GYZ        -0.3643
     15 N17       -35.6620  -39.2970  -26.6360 N.am      1 GYZ        -0.2057
     16 C18       -36.2530  -38.8430  -25.4750 C.ar      1 GYZ         0.0683
     17 C19       -36.8740  -37.5890  -25.3160 C.ar      1 GYZ        -0.0414
     18 C20       -37.4770  -37.2400  -24.1050 C.ar      1 GYZ        -0.0756
     19 C21       -37.4830  -38.1240  -23.0280 C.ar      1 GYZ        -0.0773
     20 C22       -36.8780  -39.3660  -23.1650 C.ar      1 GYZ        -0.0756
     21 C23       -36.2690  -39.7190  -24.3730 C.ar      1 GYZ        -0.0414
     22 H1        -33.1706  -39.3065  -32.7096 H         1 GYZ         0.0859
     23 H2        -31.2828  -42.3761  -29.4943 H         1 GYZ         0.0260
     24 H3        -29.8724  -42.1325  -30.5796 H         1 GYZ         0.0260
     25 H4        -31.5092  -42.3825  -31.2762 H         1 GYZ         0.0260
     26 H5        -30.5191  -40.0710  -29.6251 H         1 GYZ         0.0682
     27 H6        -29.7087  -39.3867  -31.6053 H         1 GYZ         0.0652
     28 H7        -31.3495  -37.7016  -30.8455 H         1 GYZ         0.0675
     29 H8        -33.5433  -37.0919  -33.0574 H         1 GYZ         0.2139
     30 H9        -30.2851  -37.2825  -32.8739 H         1 GYZ         0.2103
     31 H10       -30.7412  -40.0283  -33.5659 H         1 GYZ         0.2100
     32 H11       -35.1784  -40.1690  -26.5597 H         1 GYZ         0.2276
     33 H12       -36.8842  -36.8871  -26.1420 H         1 GYZ         0.0501
     34 H13       -37.9465  -36.2684  -24.0019 H         1 GYZ         0.0577
     35 H14       -37.9551  -37.8449  -22.0930 H         1 GYZ         0.0487
     36 H15       -36.8778  -40.0628  -22.3346 H         1 GYZ         0.0577
     37 H16       -35.7976  -40.6910  -24.4633 H         1 GYZ         0.0501
@<TRIPOS>BOND
     1    2    1 1  
     2    1    6 1  
     3    1    7 1  
     4   10    2 1  
     5    2   11 2  
     6    4    3 1  
     7    4    5 1  
     8    4   10 1  
     9    5    6 1  
    10    5    9 1  
    11    6    8 1  
    12   11   12 1  
    13   12   13 1  
    14   13   14 2  
    15   13   15 am 
    16   15   16 1  
    17   16   17 ar 
    18   16   21 ar 
    19   17   18 ar 
    20   18   19 ar 
    21   19   20 ar 
    22   20   21 ar 
    23    1   22 1  
    24    3   23 1  
    25    3   24 1  
    26    3   25 1  
    27    4   26 1  
    28    5   27 1  
    29    6   28 1  
    30    7   29 1  
    31    8   30 1  
    32    9   31 1  
    33   15   32 1  
    34   17   33 1  
    35   18   34 1  
    36   19   35 1  
    37   20   36 1  
    38   21   37 1  
@<TRIPOS>SUBSTRUCTURE
     1 GYZ         1

