### 
### Created by X-TOOL on Mon Aug  2 16:14:03 2021
### 

@<TRIPOS>MOLECULE
6i0b_ligand
   74    78     1     0     0
SMALL
GAST_HUCK


@<TRIPOS>ATOM
      1 CAT       132.7870  117.7180   41.3160 C.3       1 MOL        -0.0081
      2 CAP       133.7840  117.9310   40.1580 C.3       1 MOL        -0.0400
      3 CAQ       133.4640  117.0600   38.9220 C.3       1 MOL        -0.0439
      4 CAU       133.1290  115.5850   39.2710 C.3       1 MOL        -0.0210
      5 CBE       132.3810  115.2770   40.5440 C.ar      1 MOL         0.0054
      6 CBD       132.2050  116.3150   41.5390 C.ar      1 MOL         0.0105
      7 NAW       131.5420  116.0650   42.6820 N.ar      1 MOL        -0.3281
      8 CBG       130.9850  114.7930   42.9380 C.ar      1 MOL         0.0183
      9 CAK       130.2850  114.5510   44.1440 C.ar      1 MOL        -0.0382
     10 CBB       129.7380  113.3540   44.4360 C.ar      1 MOL         0.0385
     11 CL        128.8870  113.1810   45.8990 Cl        1 MOL        -0.0699
     12 CAF       129.8270  112.2450   43.5810 C.ar      1 MOL        -0.0494
     13 CAI       130.5000  112.4520   42.3960 C.ar      1 MOL        -0.0525
     14 CBJ       131.0950  113.7150   42.0240 C.ar      1 MOL         0.0197
     15 CBF       131.8370  113.9770   40.7950 C.ar      1 MOL         0.0689
     16 NAY       131.9840  112.9380   39.8400 N.pl3     1 MOL        -0.3142
     17 CAS       133.1600  112.2220   39.4690 C.3       1 MOL         0.0270
     18 CAO       133.2690  110.8380   40.0470 C.3       1 MOL        -0.0328
     19 CAM       133.9040  110.7700   41.4300 C.3       1 MOL        -0.0512
     20 CAL       135.3320  110.1320   41.4500 C.3       1 MOL        -0.0512
     21 CAN       135.4090  108.6370   41.7920 C.3       1 MOL        -0.0327
     22 CAR       136.3780  107.8100   40.8880 C.3       1 MOL         0.0311
     23 NAX       137.7160  108.4690   40.7220 N.am      1 MOL        -0.2822
     24 C         138.3710  108.6360   39.4520 C.2       1 MOL         0.2257
     25 O         137.8360  108.2550   38.4290 O.2       1 MOL        -0.3907
     26 CA        139.7740  109.3470   39.3560 C.3       1 MOL         0.0689
     27 N         140.7650  108.3950   38.8580 N.4       1 MOL         0.2388
     28 CB        139.6290  110.4920   38.3280 C.3       1 MOL         0.0245
     29 CG        138.4760  111.4140   38.6320 C.2       1 MOL        -0.0386
     30 CD2       138.4370  112.4170   39.6790 C.ar      1 MOL        -0.0213
     31 CE3       139.3530  112.8340   40.6530 C.ar      1 MOL        -0.0747
     32 CZ3       139.0340  113.8370   41.5380 C.ar      1 MOL        -0.0792
     33 CH2       137.7610  114.4900   41.4830 C.ar      1 MOL        -0.0768
     34 CZ2       136.8180  114.1270   40.5350 C.ar      1 MOL        -0.0443
     35 CE2       137.1590  113.0920   39.6340 C.ar      1 MOL         0.0603
     36 NE1       136.4210  112.5100   38.5680 N.pl3     1 MOL        -0.2890
     37 CD1       137.2490  111.4850   37.9850 C.2       1 MOL         0.0168
     38 H1        131.9388  118.3964   41.1419 H         1 MOL         0.0453
     39 H2        133.3024  118.0059   42.2441 H         1 MOL         0.0453
     40 H3        134.7940  117.6787   40.5133 H         1 MOL         0.0292
     41 H4        133.7541  118.9892   39.8591 H         1 MOL         0.0292
     42 H5        134.3380  117.0694   38.2542 H         1 MOL         0.0284
     43 H6        132.6001  117.4990   38.4015 H         1 MOL         0.0284
     44 H7        134.0847  115.0427   39.3217 H         1 MOL         0.0386
     45 H8        132.5259  115.1883   38.4410 H         1 MOL         0.0386
     46 H9        130.1849  115.3587   44.8600 H         1 MOL         0.0596
     47 H10       129.3934  111.2849   43.8365 H         1 MOL         0.0590
     48 H11       130.5877  111.6214   41.7050 H         1 MOL         0.0636
     49 H12       131.1226  112.6631   39.3468 H         1 MOL         0.1815
     50 H13       134.0327  112.8017   39.8042 H         1 MOL         0.0520
     51 H14       133.1759  112.1363   38.3725 H         1 MOL         0.0520
     52 H15       133.8760  110.2281   39.3618 H         1 MOL         0.0285
     53 H16       132.2559  110.4150   40.1148 H         1 MOL         0.0285
     54 H17       133.2498  110.1713   42.0808 H         1 MOL         0.0266
     55 H18       133.9781  111.7935   41.8262 H         1 MOL         0.0266
     56 H19       135.9311  110.6766   42.1947 H         1 MOL         0.0266
     57 H20       135.7738  110.2698   40.4521 H         1 MOL         0.0266
     58 H21       134.4000  108.2103   41.6928 H         1 MOL         0.0285
     59 H22       135.7470  108.5408   42.8343 H         1 MOL         0.0285
     60 H23       135.9185  107.6908   39.8957 H         1 MOL         0.0520
     61 H24       136.5270  106.8203   41.3444 H         1 MOL         0.0520
     62 H25       138.1783  108.8113   41.5400 H         1 MOL         0.1852
     63 H26       140.0793  109.7388   40.3375 H         1 MOL         0.1114
     64 H27       141.6637  108.8473   38.7956 H         1 MOL         0.2016
     65 H28       140.4888  108.0691   37.9450 H         1 MOL         0.2016
     66 H29       140.8261  107.6121   39.4900 H         1 MOL         0.2016
     67 H30       139.4723  110.0514   37.3323 H         1 MOL         0.0430
     68 H31       140.5579  111.0812   38.3262 H         1 MOL         0.0430
     69 H32       140.3262  112.3599   40.7100 H         1 MOL         0.0540
     70 H33       139.7567  114.1376   42.2880 H         1 MOL         0.0510
     71 H34       137.5322  115.2778   42.1915 H         1 MOL         0.0530
     72 H35       135.8533  114.6189   40.4858 H         1 MOL         0.0541
     73 H36       135.4711  112.7721   38.2680 H         1 MOL         0.2216
     74 H37       136.9528  110.8517   37.1501 H         1 MOL         0.0795
@<TRIPOS>BOND
     1    1    2 1  
     2    1    6 1  
     3    2    3 1  
     4    3    4 1  
     5    4    5 1  
     6    5    6 ar 
     7    5   15 ar 
     8    6    7 ar 
     9    7    8 ar 
    10    8    9 ar 
    11    8   14 ar 
    12    9   10 ar 
    13   10   11 1  
    14   10   12 ar 
    15   12   13 ar 
    16   13   14 ar 
    17   14   15 ar 
    18   15   16 1  
    19   16   17 1  
    20   17   18 1  
    21   18   19 1  
    22   19   20 1  
    23   20   21 1  
    24   21   22 1  
    25   22   23 1  
    26   23   24 am 
    27   24   25 2  
    28   24   26 1  
    29   26   27 1  
    30   26   28 1  
    31   28   29 1  
    32   29   30 1  
    33   29   37 2  
    34   30   31 ar 
    35   30   35 ar 
    36   31   32 ar 
    37   32   33 ar 
    38   33   34 ar 
    39   34   35 ar 
    40   35   36 1  
    41   36   37 1  
    42    1   38 1  
    43    1   39 1  
    44    2   40 1  
    45    2   41 1  
    46    3   42 1  
    47    3   43 1  
    48    4   44 1  
    49    4   45 1  
    50    9   46 1  
    51   12   47 1  
    52   13   48 1  
    53   16   49 1  
    54   17   50 1  
    55   17   51 1  
    56   18   52 1  
    57   18   53 1  
    58   19   54 1  
    59   19   55 1  
    60   20   56 1  
    61   20   57 1  
    62   21   58 1  
    63   21   59 1  
    64   22   60 1  
    65   22   61 1  
    66   23   62 1  
    67   26   63 1  
    68   27   64 1  
    69   27   65 1  
    70   27   66 1  
    71   28   67 1  
    72   28   68 1  
    73   31   69 1  
    74   32   70 1  
    75   33   71 1  
    76   34   72 1  
    77   36   73 1  
    78   37   74 1  
@<TRIPOS>SUBSTRUCTURE
     1 MOL         1

