### 
### Created by X-TOOL on Mon Aug  2 16:14:03 2021
### 

@<TRIPOS>MOLECULE
6i0c_ligand
   70    74     1     0     0
SMALL
GAST_HUCK


@<TRIPOS>ATOM
      1 C02       130.0620  113.5790   44.3570 C.ar      1 GZ5         0.0415
      2 C03       130.1330  112.5110   43.4590 C.ar      1 GZ5        -0.0459
      3 C04       130.7680  112.7060   42.2680 C.ar      1 GZ5        -0.0465
      4 C05       131.3640  113.9260   41.9290 C.ar      1 GZ5         0.0376
      5 C06       131.2910  114.9850   42.8700 C.ar      1 GZ5         0.0175
      6 C08       132.4690  116.4500   41.4840 C.ar      1 GZ5         0.0172
      7 C09       133.0510  117.8280   41.3430 C.ar      1 GZ5        -0.0497
      8 C10       133.9170  118.0790   40.1250 C.ar      1 GZ5        -0.0615
      9 C11       133.3970  117.3000   38.9170 C.ar      1 GZ5        -0.0598
     10 C12       133.3250  115.7910   39.2130 C.ar      1 GZ5        -0.0468
     11 C13       132.6040  115.4360   40.4620 C.ar      1 GZ5         0.0376
     12 C14       132.0570  114.1660   40.6830 C.ar      1 GZ5         0.0975
     13 C16       133.3090  112.3440   39.4120 C.3       1 GZ5         0.0343
     14 C17       133.4250  111.0180   40.1780 C.3       1 GZ5        -0.0313
     15 C18       134.7020  110.8560   41.0690 C.3       1 GZ5        -0.0510
     16 C19       135.0450  109.3980   41.4500 C.3       1 GZ5        -0.0512
     17 C20       136.5220  109.1000   41.6500 C.3       1 GZ5        -0.0327
     18 C21       137.2040  108.1920   40.5760 C.3       1 GZ5         0.0311
     19 C23       138.1010  109.4100   38.3920 C.2       1 GZ5         0.2257
     20 C24       139.6850  109.4820   38.8020 C.3       1 GZ5         0.0689
     21 C26       140.3000  110.8470   38.4340 C.3       1 GZ5         0.0245
     22 C27       139.9060  111.9130   39.4400 C.2       1 GZ5        -0.0386
     23 C28       140.7090  112.3730   40.4760 C.2       1 GZ5         0.0168
     24 C30       138.7890  113.5370   40.7000 C.ar      1 GZ5         0.0603
     25 C31       138.6620  112.6480   39.5690 C.ar      1 GZ5        -0.0213
     26 C32       137.4540  112.6730   38.8630 C.ar      1 GZ5        -0.0747
     27 C33       136.4570  113.5450   39.2640 C.ar      1 GZ5        -0.0792
     28 C34       136.6000  114.4090   40.3870 C.ar      1 GZ5        -0.0768
     29 C35       137.7690  114.4180   41.1210 C.ar      1 GZ5        -0.0443
     30 C37       130.6140  114.7760   44.1030 C.ar      1 GZ5        -0.0358
     31 N07       131.8450  116.2380   42.6340 N.ar      1 GZ5        -0.3396
     32 N15       132.1440  113.1210   39.7250 N.pl3     1 GZ5        -0.2965
     33 N22       137.0910  108.8210   39.2380 N.am      1 GZ5        -0.2822
     34 N25       139.9490  109.3110   40.2330 N.4       1 GZ5         0.2388
     35 N29       140.0530  113.3460   41.2370 N.pl3     1 GZ5        -0.2890
     36 O36       137.7650  109.8770   37.3150 O.2       1 GZ5        -0.3907
     37 CL        129.2430  113.3230   45.8220 Cl        1 GZ5        -0.0657
     38 H1        129.6939  111.5505   43.7031 H         1 GZ5         0.0587
     39 H2        130.8127  111.8873   41.5590 H         1 GZ5         0.0674
     40 H3        132.8609  118.6038   42.0758 H         1 GZ5         0.0582
     41 H4        134.7880  118.7242   40.1121 H         1 GZ5         0.0657
     42 H5        133.1151  117.7521   37.9730 H         1 GZ5         0.0582
     43 H6        133.7660  115.0458   38.5609 H         1 GZ5         0.0675
     44 H7        133.2895  112.1168   38.3359 H         1 GZ5         0.0539
     45 H8        134.1969  112.9510   39.6426 H         1 GZ5         0.0539
     46 H9        133.4215  110.2011   39.4413 H         1 GZ5         0.0286
     47 H10       132.5443  110.9270   40.8307 H         1 GZ5         0.0286
     48 H11       134.5460  111.4247   41.9975 H         1 GZ5         0.0266
     49 H12       135.5577  111.2768   40.5206 H         1 GZ5         0.0266
     50 H13       134.6734  108.7427   40.6485 H         1 GZ5         0.0266
     51 H14       134.5223  109.1619   42.3886 H         1 GZ5         0.0266
     52 H15       136.6334  108.6043   42.6256 H         1 GZ5         0.0285
     53 H16       137.0575  110.0607   41.6636 H         1 GZ5         0.0285
     54 H17       136.7083  107.2102   40.5604 H         1 GZ5         0.0520
     55 H18       138.2665  108.0624   40.8295 H         1 GZ5         0.0520
     56 H19       140.2068  108.6867   38.2496 H         1 GZ5         0.1114
     57 H20       139.9433  111.1447   37.4369 H         1 GZ5         0.0430
     58 H21       141.3960  110.7549   38.4189 H         1 GZ5         0.0430
     59 H22       141.7209  112.0207   40.6709 H         1 GZ5         0.0795
     60 H23       137.3012  112.0178   38.0130 H         1 GZ5         0.0540
     61 H24       135.5309  113.5714   38.7012 H         1 GZ5         0.0510
     62 H25       135.7840  115.0651   40.6677 H         1 GZ5         0.0530
     63 H26       137.8976  115.0691   41.9781 H         1 GZ5         0.0541
     64 H27       130.5443  115.5760   44.8311 H         1 GZ5         0.0587
     65 H28       131.2846  112.8986   39.2026 H         1 GZ5         0.1941
     66 H29       136.1651  108.8402   38.8608 H         1 GZ5         0.1852
     67 H30       139.5694  108.4297   40.5417 H         1 GZ5         0.2016
     68 H31       139.5153  110.0620   40.7468 H         1 GZ5         0.2016
     69 H32       140.9438  109.3236   40.3950 H         1 GZ5         0.2016
     70 H33       140.4418  113.8361   42.0552 H         1 GZ5         0.2216
@<TRIPOS>BOND
     1    2    1 ar 
     2   30    1 ar 
     3    1   37 1  
     4    3    2 ar 
     5    4    3 ar 
     6    4    5 ar 
     7   12    4 ar 
     8    5   30 ar 
     9    5   31 ar 
    10    6    7 ar 
    11   11    6 ar 
    12    6   31 ar 
    13    7    8 ar 
    14    9    8 ar 
    15   10    9 ar 
    16   11   10 ar 
    17   12   11 ar 
    18   32   12 1  
    19   14   13 1  
    20   13   32 1  
    21   15   14 1  
    22   16   15 1  
    23   17   16 1  
    24   18   17 1  
    25   33   18 1  
    26   19   20 1  
    27   19   33 am 
    28   19   36 2  
    29   20   21 1  
    30   20   34 1  
    31   21   22 1  
    32   22   23 2  
    33   22   25 1  
    34   23   35 1  
    35   25   24 ar 
    36   24   29 ar 
    37   24   35 1  
    38   25   26 ar 
    39   26   27 ar 
    40   27   28 ar 
    41   28   29 ar 
    42    2   38 1  
    43    3   39 1  
    44    7   40 1  
    45    8   41 1  
    46    9   42 1  
    47   10   43 1  
    48   13   44 1  
    49   13   45 1  
    50   14   46 1  
    51   14   47 1  
    52   15   48 1  
    53   15   49 1  
    54   16   50 1  
    55   16   51 1  
    56   17   52 1  
    57   17   53 1  
    58   18   54 1  
    59   18   55 1  
    60   20   56 1  
    61   21   57 1  
    62   21   58 1  
    63   23   59 1  
    64   26   60 1  
    65   27   61 1  
    66   28   62 1  
    67   29   63 1  
    68   30   64 1  
    69   32   65 1  
    70   33   66 1  
    71   34   67 1  
    72   34   68 1  
    73   34   69 1  
    74   35   70 1  
@<TRIPOS>SUBSTRUCTURE
     1 GZ5         1

