### 
### Created by X-TOOL on Mon Aug  2 16:14:03 2021
### 

@<TRIPOS>MOLECULE
6i0k_ligand
   17    17     1     0     0
SMALL
GAST_HUCK


@<TRIPOS>ATOM
      1 O3          9.3470    3.0550   10.6770 O.co2     1 GZ8        -0.5618
      2 C8         10.3740    2.5610   10.1690 C.2       1 GZ8         0.0609
      3 O4         10.5910    2.8970    9.0060 O.co2     1 GZ8        -0.5618
      4 C3         11.0200    1.4200   10.8980 C.ar      1 GZ8         0.0171
      5 C2         10.9010    1.2850   12.2930 C.ar      1 GZ8         0.0183
      6 C7         10.3150    2.3190   13.1960 C.2       1 GZ8         0.0638
      7 O2          9.4750    2.0120   14.0170 O.co2     1 GZ8        -0.5600
      8 O1         10.7400    3.5050   13.1530 O.co2     1 GZ8        -0.5600
      9 C4         11.6150    0.3780   10.1960 C.ar      1 GZ8        -0.0500
     10 C5         12.0980   -0.7450   10.8420 C.ar      1 GZ8        -0.0438
     11 C6         11.9630   -0.8470   12.2120 C.ar      1 GZ8         0.0186
     12 C1         11.3780    0.1710   12.9240 C.ar      1 GZ8        -0.0323
     13 S          12.4120   -2.2080   13.1100 S.3       1 GZ8        -0.1161
     14 H1         11.7023    0.4475    9.1178 H         1 GZ8         0.0641
     15 H2         12.5777   -1.5371   10.2785 H         1 GZ8         0.0593
     16 H3         11.2935    0.0897   14.0016 H         1 GZ8         0.0606
     17 H4         12.8289   -2.8910   12.4970 H         1 GZ8         0.1230
@<TRIPOS>BOND
     1    1    2 ar 
     2    2    3 ar 
     3    2    4 1  
     4    4    5 ar 
     5    4    9 ar 
     6    5    6 1  
     7    5   12 ar 
     8    6    7 ar 
     9    6    8 ar 
    10    9   10 ar 
    11   10   11 ar 
    12   11   12 ar 
    13   11   13 1  
    14    9   14 1  
    15   10   15 1  
    16   12   16 1  
    17   13   17 1  
@<TRIPOS>SUBSTRUCTURE
     1 GZ8         1

