### 
### Created by X-TOOL on Mon Aug  2 16:14:03 2021
### 

@<TRIPOS>MOLECULE
6i0p_ligand
   16    16     1     0     0
SMALL
GAST_HUCK


@<TRIPOS>ATOM
      1 O1         10.8210    3.1310   13.1540 O.co2     1 QAS        -0.5453
      2 C7         10.3500    1.9740   13.3460 C.2       1 QAS         0.1207
      3 O2          9.5240    1.6720   14.2190 O.co2     1 QAS        -0.5453
      4 C2         10.9440    0.9680   12.4690 C.2       1 QAS         0.1291
      5 N1         11.4280   -0.1090   13.0420 N.2       1 QAS        -0.2533
      6 C6         12.0470   -1.0690   12.3590 C.2       1 QAS         0.0418
      7 S          12.4740   -2.3950   13.3410 S.2       1 QAS        -0.2578
      8 C5         12.2540   -0.9950   10.9860 C.2       1 QAS        -0.0219
      9 C4         11.7450    0.1290   10.3150 C.2       1 QAS        -0.0134
     10 C3         11.1010    1.1410   11.0290 C.3       1 QAS         0.1288
     11 C8         10.4300    2.3190   10.3880 C.2       1 QAS         0.0822
     12 O4         10.6890    2.6730    9.2310 O.co2     1 QAS        -0.5602
     13 O3          9.3470    2.7240   10.9660 O.co2     1 QAS        -0.5602
     14 H1         12.7899   -1.7781   10.4517 H         1 QAS         0.0547
     15 H2         11.8531    0.2113    9.2345 H         1 QAS         0.0969
     16 H3         12.0413    1.7001   11.1442 H         1 QAS         0.1031
@<TRIPOS>BOND
     1    1    2 ar 
     2    2    3 ar 
     3    2    4 1  
     4    4    5 2  
     5    4   10 1  
     6    5    6 1  
     7    6    7 2  
     8    6    8 1  
     9    8    9 2  
    10    9   10 1  
    11   10   11 1  
    12   11   12 ar 
    13   11   13 ar 
    14    8   14 1  
    15    9   15 1  
    16   10   16 1  
@<TRIPOS>SUBSTRUCTURE
     1 QAS         1

