### 
### Created by X-TOOL on Mon Aug  2 16:14:04 2021
### 

@<TRIPOS>MOLECULE
6i0r_ligand
   16    16     1     0     0
SMALL
GAST_HUCK


@<TRIPOS>ATOM
      1 O1         10.4020    2.1370    9.2160 O.co2     1 QAT        -0.5583
      2 C7         10.2180    1.9780   10.4360 C.2       1 QAT         0.0789
      3 O2          9.2560    2.4860   11.0280 O.co2     1 QAT        -0.5583
      4 C2         11.1910    1.1280   11.1790 C.ar      1 QAT         0.0893
      5 N1         11.9530    0.2890   10.4690 N.ar      1 QAT        -0.2849
      6 C6         12.8390   -0.5090   11.0580 C.ar      1 QAT         0.0290
      7 C5         13.0150   -0.4910   12.4360 C.ar      1 QAT         0.0463
      8 S          14.1910   -1.5170   13.1450 S.3       1 QAT        -0.1076
      9 C4         12.2590    0.3570   13.2420 C.ar      1 QAT        -0.0129
     10 C3         11.3360    1.1840   12.6480 C.ar      1 QAT         0.0460
     11 C8         10.5280    2.1050   13.4760 C.2       1 QAT         0.0712
     12 O4          9.6420    1.6890   14.2410 O.co2     1 QAT        -0.5580
     13 O3         10.7940    3.3070   13.3730 O.co2     1 QAT        -0.5580
     14 H1         13.4334   -1.1843   10.4532 H         1 QAT         0.0802
     15 H2         14.1928   -1.3839   14.1442 H         1 QAT         0.1247
     16 H3         12.3961    0.3645   14.3173 H         1 QAT         0.0724
@<TRIPOS>BOND
     1    1    2 ar 
     2    2    3 ar 
     3    2    4 1  
     4    4    5 ar 
     5    4   10 ar 
     6    5    6 ar 
     7    6    7 ar 
     8    7    8 1  
     9    7    9 ar 
    10    9   10 ar 
    11   10   11 1  
    12   11   12 ar 
    13   11   13 ar 
    14    6   14 1  
    15    8   15 1  
    16    9   16 1  
@<TRIPOS>SUBSTRUCTURE
     1 QAT         1

