### 
### Created by X-TOOL on Mon Aug  2 16:10:15 2021
### 

@<TRIPOS>MOLECULE
6i0x_ligand
   41    41     1     0     0
SMALL
GAST_HUCK


@<TRIPOS>ATOM
      1 OAE       -38.6980  -31.5320   51.8240 O.2       1 BFB        -0.3947
      2 CAU       -37.9650  -32.4910   52.1020 C.2       1 BFB         0.1991
      3 NAA       -37.8010  -33.5530   51.3260 N.am      1 BFB        -0.2990
      4 CAZ       -37.1360  -32.4850   53.3740 C.3       1 BFB         0.1303
      5 CAO       -35.6490  -32.2540   53.1000 C.3       1 BFB        -0.0085
      6 CAM       -35.4220  -31.0160   52.2290 C.3       1 BFB        -0.0072
      7 CAN       -33.9300  -30.9260   51.9380 C.3       1 BFB         0.0868
      8 NAR       -33.7040  -29.8020   51.0110 N.pl3     1 BFB        -0.2638
      9 CAV       -32.5570  -29.5310   50.3710 C.cat     1 BFB         0.2031
     10 CAP       -31.3620  -30.4790   50.5170 C.3       1 BFB         0.0072
     11 NAC       -32.3720  -28.4180   49.6240 N.pl3     1 BFB        -0.2763
     12 NAS       -37.3080  -33.7080   54.1900 N.am      1 BFB        -0.2649
     13 CAW       -38.5160  -34.1910   54.5350 C.2       1 BFB         0.2072
     14 OAF       -39.5620  -33.7290   54.0870 O.2       1 BFB        -0.3845
     15 CAX       -38.5230  -35.3030   55.4130 C.ar      1 BFB         0.0500
     16 CAK       -39.5300  -35.3870   56.3860 C.ar      1 BFB        -0.0419
     17 CAL       -37.5080  -36.2930   55.3920 C.ar      1 BFB        -0.0419
     18 CAJ       -37.5090  -37.3460   56.3220 C.ar      1 BFB        -0.0562
     19 CAH       -38.5210  -37.4110   57.2870 C.ar      1 BFB        -0.0575
     20 CAI       -39.5400  -36.4310   57.3270 C.ar      1 BFB        -0.0562
     21 H1        -37.1923  -34.2927   51.6129 H         1 BFB         0.1815
     22 H2        -38.2860  -33.6145   50.4536 H         1 BFB         0.1815
     23 H3        -37.4933  -31.6384   53.9787 H         1 BFB         0.0799
     24 H4        -35.2405  -33.1344   52.5823 H         1 BFB         0.0314
     25 H5        -35.1266  -32.1169   54.0582 H         1 BFB         0.0314
     26 H6        -35.7549  -30.1145   52.7642 H         1 BFB         0.0310
     27 H7        -35.9828  -31.1116   51.2875 H         1 BFB         0.0310
     28 H8        -33.5841  -31.8630   51.4771 H         1 BFB         0.0797
     29 H9        -33.3787  -30.7523   52.8739 H         1 BFB         0.0797
     30 H10       -34.4978  -29.1684   50.8396 H         1 BFB         0.3202
     31 H11       -30.5169  -30.0974   49.9253 H         1 BFB         0.0245
     32 H12       -31.6412  -31.4794   50.1547 H         1 BFB         0.0245
     33 H13       -31.0701  -30.5407   51.5757 H         1 BFB         0.0245
     34 H14       -31.4702  -28.2580   49.1528 H         1 BFB         0.3177
     35 H15       -33.1330  -27.7308   49.5266 H         1 BFB         0.3177
     36 H16       -36.4916  -34.1964   54.4982 H         1 BFB         0.1876
     37 H17       -40.3114  -34.6362   56.4125 H         1 BFB         0.0669
     38 H18       -36.7210  -36.2366   54.6487 H         1 BFB         0.0669
     39 H19       -36.7326  -38.1019   56.2926 H         1 BFB         0.0629
     40 H20       -38.5237  -38.2191   58.0095 H         1 BFB         0.0653
     41 H21       -40.3214  -36.4846   58.0764 H         1 BFB         0.0629
@<TRIPOS>BOND
     1    1    2 2  
     2    2    3 am 
     3    2    4 1  
     4    4    5 1  
     5    4   12 1  
     6    5    6 1  
     7    6    7 1  
     8    7    8 1  
     9    8    9 ar 
    10    9   10 1  
    11    9   11 ar 
    12   12   13 am 
    13   13   14 2  
    14   13   15 1  
    15   15   16 ar 
    16   15   17 ar 
    17   16   20 ar 
    18   17   18 ar 
    19   18   19 ar 
    20   19   20 ar 
    21    3   21 1  
    22    3   22 1  
    23    4   23 1  
    24    5   24 1  
    25    5   25 1  
    26    6   26 1  
    27    6   27 1  
    28    7   28 1  
    29    7   29 1  
    30    8   30 1  
    31   10   31 1  
    32   10   32 1  
    33   10   33 1  
    34   11   34 1  
    35   11   35 1  
    36   12   36 1  
    37   16   37 1  
    38   17   38 1  
    39   18   39 1  
    40   19   40 1  
    41   20   41 1  
@<TRIPOS>SUBSTRUCTURE
     1 BFB         1

