### 
### Created by X-TOOL on Wed Jan  1 15:39:36 2020
### 

@<TRIPOS>MOLECULE
6i3s_ligand
   52    57     1     0     0
SMALL
GAST_HUCK


@<TRIPOS>ATOM
      1 C4         -3.9840    8.8740   -1.3030 C.ar      1 H28        -0.0720
      2 C5         -5.2840    9.3060   -1.0290 C.ar      1 H28        -0.0624
      3 C6         -5.7080   10.5720   -1.4750 C.ar      1 H28        -0.0093
      4 C7         -7.1050   11.1570   -1.2430 C.3       1 H28         0.0388
      5 C15        -9.2460   10.7270   -0.1350 C.3       1 H28         0.0147
      6 C20       -10.7850   14.3010    2.4670 C.3       1 H28        -0.0449
      7 C21       -10.5410   14.6330    0.9830 C.3       1 H28        -0.0449
      8 C22        -7.2240   11.9200    0.0990 C.3       1 H28         0.0738
      9 C26        -5.6220   13.2190    1.1890 C.ar      1 H28         0.0991
     10 C28        -4.9590   15.4780    0.6910 C.ar      1 H28         0.0579
     11 CL1        -2.4450   11.9830   -3.3720 Cl        1 H28        -0.0741
     12 C2         -3.5080   10.9180   -2.4780 C.ar      1 H28         0.0668
     13 C3         -3.1120    9.6700   -2.0240 C.ar      1 H28        -0.0566
     14 C9         -8.2590   10.1380   -1.1850 C.3       1 H28         0.0996
     15 C11        -9.0340   10.0350   -2.4980 C.2       1 H28         0.1860
     16 O12        -8.5920    9.6260   -3.5640 O.2       1 H28        -0.3964
     17 N13       -10.3110   10.4190   -2.3360 N.am      1 H28        -0.2809
     18 C14       -10.5670   10.8630   -0.9610 C.3       1 H28         0.0763
     19 N17        -8.6940   12.0540    0.2330 N.4       1 H28         0.1851
     20 C18        -9.1600   12.5300    1.5690 C.3       1 H28        -0.0343
     21 C19       -10.5370   13.1900    1.4620 C.3       1 H28        -0.0006
     22 C23        -6.6020   11.1670    1.2760 C.2       1 H28         0.2570
     23 O24        -6.8780   10.0460    1.6330 O.2       1 H28        -0.3145
     24 N25        -5.6860   11.9790    1.8380 N.am      1 H28        -0.2158
     25 C27        -4.8360   14.3390    1.4770 C.ar      1 H28         0.0044
     26 CL9        -4.0220   16.8850    0.9960 Cl        1 H28        -0.0481
     27 C30        -5.8690   15.5150   -0.3520 C.ar      1 H28        -0.0341
     28 C31        -6.6730   14.4250   -0.6450 C.ar      1 H28        -0.0498
     29 C32        -6.5370   13.2620    0.1260 C.ar      1 H28         0.0203
     30 C33        -4.7980   11.3630   -2.1930 C.ar      1 H28         0.1466
     31 F34        -5.1410   12.5820   -2.6570 F         1 H28        -0.1883
     32 H1         -3.6550    7.9045   -0.9468 H         1 H28         0.0565
     33 H2         -5.9637    8.6687   -0.4750 H         1 H28         0.0547
     34 H3         -7.2973   11.8545   -2.0716 H         1 H28         0.0399
     35 H4         -9.3752   10.0861    0.7496 H         1 H28         0.0903
     36 H5        -11.7853   14.4351    2.9045 H         1 H28         0.0270
     37 H6        -10.0202   14.5445    3.2191 H         1 H28         0.0270
     38 H7         -9.6014   15.1136    0.6727 H         1 H28         0.0270
     39 H8        -11.3666   15.0042    0.3580 H         1 H28         0.0270
     40 H9         -2.1101    9.3144   -2.2357 H         1 H28         0.0555
     41 H10        -7.8849    9.1475   -0.8868 H         1 H28         0.0610
     42 H11       -11.0000   10.4042   -3.0607 H         1 H28         0.1853
     43 H12       -10.8937   11.9134   -0.9662 H         1 H28         0.0578
     44 H13       -11.3513   10.2373   -0.5102 H         1 H28         0.0578
     45 H14        -9.0109   12.7315   -0.4427 H         1 H28         0.1985
     46 H15        -8.4392   13.2618    1.9625 H         1 H28         0.0819
     47 H16        -9.2236   11.6726    2.2551 H         1 H28         0.0819
     48 H17       -11.3208   12.4763    1.1683 H         1 H28         0.0353
     49 H18        -5.1202   11.7273    2.6232 H         1 H28         0.2404
     50 H19        -4.1374   14.3188    2.3056 H         1 H28         0.0594
     51 H20        -5.9542   16.4144   -0.9511 H         1 H28         0.0595
     52 H21        -7.3928   14.4707   -1.4543 H         1 H28         0.0772
@<TRIPOS>BOND
     1    2    1 ar 
     2    1   13 ar 
     3    3    2 ar 
     4    4    3 1  
     5    3   30 ar 
     6    8    4 1  
     7    4   14 1  
     8    5   14 1  
     9    5   18 1  
    10   19    5 1  
    11    7    6 1  
    12   21    6 1  
    13   21    7 1  
    14   19    8 1  
    15    8   22 1  
    16    8   29 1  
    17    9   24 1  
    18    9   25 ar 
    19   29    9 ar 
    20   25   10 ar 
    21   10   26 1  
    22   10   27 ar 
    23   12   11 1  
    24   12   13 ar 
    25   30   12 ar 
    26   14   15 1  
    27   15   16 2  
    28   17   15 am 
    29   18   17 1  
    30   20   19 1  
    31   20   21 1  
    32   22   23 2  
    33   22   24 am 
    34   27   28 ar 
    35   28   29 ar 
    36   30   31 1  
    37    1   32 1  
    38    2   33 1  
    39    4   34 1  
    40    5   35 1  
    41    6   36 1  
    42    6   37 1  
    43    7   38 1  
    44    7   39 1  
    45   13   40 1  
    46   14   41 1  
    47   17   42 1  
    48   18   43 1  
    49   18   44 1  
    50   19   45 1  
    51   20   46 1  
    52   20   47 1  
    53   21   48 1  
    54   24   49 1  
    55   25   50 1  
    56   27   51 1  
    57   28   52 1  
@<TRIPOS>SUBSTRUCTURE
     1 H28         1

