### 
### Created by X-TOOL on Mon Aug  2 16:14:08 2021
### 

@<TRIPOS>MOLECULE
6i3u_ligand
   70    75     1     0     0
SMALL
GAST_HUCK


@<TRIPOS>ATOM
      1 C1         17.0190   11.5670   77.3240 C.ar      1 H2E        -0.0130
      2 C2         18.3410   11.9490   77.5870 C.ar      1 H2E         0.0496
      3 C3         18.3200    9.7740   79.2990 C.ar      1 H2E         0.0232
      4 C4         17.0020    9.5690   78.8920 C.ar      1 H2E        -0.0260
      5 C5         16.2370   10.7060   78.2790 C.3       1 H2E         0.0101
      6 C10        15.2960    5.7370   79.4630 C.3       1 H2E         0.1164
      7 C11        15.1890    4.2310   79.2590 C.3       1 H2E        -0.0009
      8 C12        16.0390    4.4130   76.9860 C.3       1 H2E        -0.0077
      9 C13        17.0190    3.8320   76.0030 C.3       1 H2E         0.0878
     10 C14        16.9300    1.7600   77.0570 C.3       1 H2E         0.0878
     11 C24        23.1530   13.5040   77.3030 C.2       1 H2E         0.0032
     12 C25        22.5420   12.2740   77.4980 C.2       1 H2E         0.2173
     13 C6         16.4120    8.3200   79.0800 C.ar      1 H2E        -0.0348
     14 C16        14.3250    6.2790   80.5210 C.3       1 H2E        -0.0294
     15 C15        15.9430    2.2830   78.0670 C.3       1 H2E        -0.0077
     16 S1         19.0990   11.3280   79.0600 S.3       1 H2E        -0.0539
     17 C7         17.1580    7.2850   79.6400 C.ar      1 H2E         0.0788
     18 C8         18.4810    7.4990   80.0380 C.ar      1 H2E        -0.0453
     19 C9         19.0480    8.7360   79.8710 C.ar      1 H2E        -0.0620
     20 O1         16.6700    6.0260   79.8590 O.3       1 H2E        -0.3156
     21 N1         16.1480    3.7220   78.2810 N.4       1 H2E         0.2406
     22 O2         16.8130    2.4380   75.8130 O.3       1 H2E        -0.3693
     23 C17        19.0200   12.8170   76.7050 C.ar      1 H2E         0.0402
     24 C18        18.3820   13.2260   75.5420 C.ar      1 H2E        -0.0570
     25 C19        17.0750   12.8480   75.2860 C.ar      1 H2E        -0.0703
     26 C20        16.3970   12.0400   76.1710 C.ar      1 H2E        -0.0601
     27 C21        20.4510   13.1830   76.9020 C.2       1 H2E         0.1491
     28 C22        21.0260   14.4310   76.7170 C.2       1 H2E        -0.0032
     29 C23        22.3850   14.6220   76.9320 C.2       1 H2E         0.0530
     30 O3         21.2270   12.1100   77.2350 O.3       1 H2E        -0.2002
     31 N2         23.2480   11.1380   77.7820 N.pl3     1 H2E        -0.2585
     32 C26        24.7140   11.1120   77.8730 C.3       1 H2E         0.0604
     33 C27        25.1620   10.0420   78.8460 C.3       1 H2E         0.0688
     34 O4         24.5940    8.7750   78.5360 O.3       1 H2E        -0.3756
     35 C28        23.1890    8.8520   78.6370 C.3       1 H2E         0.0688
     36 C29        22.6160    9.8180   77.6350 C.3       1 H2E         0.0604
     37 O5         22.9100   15.7530   76.8110 O.2       1 H2E        -0.4601
     38 H1         15.3807   10.2838   77.7326 H         1 H2E         0.0551
     39 H2         15.8715   11.3480   79.0940 H         1 H2E         0.0551
     40 H3         15.0781    6.2379   78.5082 H         1 H2E         0.0699
     41 H4         14.1728    3.9950   78.9103 H         1 H2E         0.0844
     42 H5         15.3713    3.7321   80.2223 H         1 H2E         0.0844
     43 H6         15.0178    4.2931   76.5951 H         1 H2E         0.0837
     44 H7         16.2551    5.4825   77.1255 H         1 H2E         0.0837
     45 H8         18.0396    3.9928   76.3804 H         1 H2E         0.0613
     46 H9         16.9003    4.3443   75.0369 H         1 H2E         0.0613
     47 H10        16.7441    0.6875   76.8981 H         1 H2E         0.0613
     48 H11        17.9489    1.9018   77.4466 H         1 H2E         0.0613
     49 H12        24.2290   13.6040   77.4374 H         1 H2E         0.0144
     50 H13        15.3799    8.1552   78.7925 H         1 H2E         0.0467
     51 H14        14.4561    7.3670   80.6159 H         1 H2E         0.0260
     52 H15        14.5320    5.7990   81.4889 H         1 H2E         0.0260
     53 H16        13.2910    6.0595   80.2165 H         1 H2E         0.0260
     54 H17        16.0819    1.7509   79.0197 H         1 H2E         0.0837
     55 H18        14.9209    2.1129   77.6976 H         1 H2E         0.0837
     56 H19        19.0555    6.6910   80.4764 H         1 H2E         0.0470
     57 H20        20.0709    8.9063   80.1870 H         1 H2E         0.0523
     58 H21        17.0766    3.8685   78.6448 H         1 H2E         0.2036
     59 H22        18.9116   13.8466   74.8282 H         1 H2E         0.0583
     60 H23        16.5823   13.1903   74.3831 H         1 H2E         0.0555
     61 H24        15.3673   11.7689   75.9681 H         1 H2E         0.0569
     62 H25        20.4067   15.2689   76.4003 H         1 H2E         0.0397
     63 H26        25.0733   12.0918   78.2207 H         1 H2E         0.0554
     64 H27        25.1354   10.8983   76.8796 H         1 H2E         0.0554
     65 H28        24.8531   10.3319   79.8612 H         1 H2E         0.0581
     66 H29        26.2582    9.9603   78.8055 H         1 H2E         0.0581
     67 H30        22.9213    9.1870   79.6499 H         1 H2E         0.0581
     68 H31        22.7624    7.8544   78.4560 H         1 H2E         0.0581
     69 H32        22.7993    9.4386   76.6189 H         1 H2E         0.0554
     70 H33        21.5328    9.9134   77.8009 H         1 H2E         0.0554
@<TRIPOS>BOND
     1    2    1 ar 
     2    1    5 1  
     3    1   26 ar 
     4    2   16 1  
     5   23    2 ar 
     6    3    4 ar 
     7   16    3 1  
     8    3   19 ar 
     9    5    4 1  
    10    4   13 ar 
    11    6    7 1  
    12    6   14 1  
    13   20    6 1  
    14    7   21 1  
    15    8    9 1  
    16   21    8 1  
    17    9   22 1  
    18   15   10 1  
    19   10   22 1  
    20   12   11 2  
    21   11   29 1  
    22   30   12 1  
    23   12   31 1  
    24   13   17 ar 
    25   21   15 1  
    26   18   17 ar 
    27   17   20 1  
    28   19   18 ar 
    29   23   24 ar 
    30   27   23 1  
    31   24   25 ar 
    32   25   26 ar 
    33   27   28 2  
    34   27   30 1  
    35   28   29 1  
    36   29   37 2  
    37   31   32 1  
    38   31   36 1  
    39   32   33 1  
    40   33   34 1  
    41   34   35 1  
    42   35   36 1  
    43    5   38 1  
    44    5   39 1  
    45    6   40 1  
    46    7   41 1  
    47    7   42 1  
    48    8   43 1  
    49    8   44 1  
    50    9   45 1  
    51    9   46 1  
    52   10   47 1  
    53   10   48 1  
    54   11   49 1  
    55   13   50 1  
    56   14   51 1  
    57   14   52 1  
    58   14   53 1  
    59   15   54 1  
    60   15   55 1  
    61   18   56 1  
    62   19   57 1  
    63   21   58 1  
    64   24   59 1  
    65   25   60 1  
    66   26   61 1  
    67   28   62 1  
    68   32   63 1  
    69   32   64 1  
    70   33   65 1  
    71   33   66 1  
    72   35   67 1  
    73   35   68 1  
    74   36   69 1  
    75   36   70 1  
@<TRIPOS>SUBSTRUCTURE
     1 H2E         1

