### 
### Created by X-TOOL on Mon Aug  2 16:17:05 2021
### 

@<TRIPOS>MOLECULE
6i41_ligand
   91    91     1     0     0
SMALL
GAST_HUCK


@<TRIPOS>ATOM
      1 N         -21.7350   10.0470    2.5920 N.4       1 LYS         0.2377
      2 CA        -21.7460    8.9070    3.5020 C.3       1 LYS         0.0621
      3 C         -21.6410    7.6030    2.7200 C.2       1 LYS         0.2264
      4 O         -22.2400    7.4620    1.6550 O.2       1 LYS        -0.3907
      5 CB        -23.0140    8.9120    4.3640 C.3       1 LYS        -0.0040
      6 N         -20.8660    6.6580    3.2430 N.am      1 LYS        -0.2613
      7 CA        -20.7430    5.3570    2.6120 C.3       1 LYS         0.1283
      8 C         -21.9160    4.4670    2.9960 C.2       1 LYS         0.2037
      9 O         -22.5240    4.6280    4.0580 O.2       1 LYS        -0.3944
     10 CB        -19.4360    4.6810    3.0210 C.3       1 LYS        -0.0244
     11 N         -22.2290    3.5180    2.1200 N.am      1 LYS        -0.2622
     12 CA        -23.2480    2.5150    2.3910 C.3       1 LYS         0.1423
     13 C         -22.6410    1.1200    2.2830 C.2       1 LYS         0.2057
     14 O         -21.5910    0.9210    1.6650 O.2       1 LYS        -0.3943
     15 CB        -24.4350    2.6460    1.4350 C.3       1 LYS         0.0406
     16 CG        -24.0420    2.4370   -0.0090 C.2       1 LYS         0.0393
     17 OD1       -23.4270    3.3500   -0.6120 O.co2     1 LYS        -0.5688
     18 OD2       -24.3160    1.3400   -0.5290 O.co2     1 LYS        -0.5688
     19 N         -23.3250    0.1560    2.8940 N.am      1 LYS        -0.2612
     20 CA        -22.9160   -1.2400    2.9070 C.3       1 LYS         0.1565
     21 C         -24.0400   -2.0950    2.3420 C.2       1 LYS         0.2065
     22 O         -25.2210   -1.7640    2.4810 O.2       1 LYS        -0.3943
     23 CB        -22.5700   -1.7070    4.3280 C.3       1 LYS         0.0924
     24 OG1       -22.1100   -3.0620    4.2930 O.3       1 LYS        -0.3874
     25 CG2       -23.8040   -1.6260    5.2490 C.3       1 LYS        -0.0346
     26 N         -23.6690   -3.2020    1.7010 N.am      1 LYS        -0.2613
     27 CA        -24.6490   -4.1020    1.1050 C.3       1 LYS         0.1565
     28 C         -24.8680   -5.3740    1.9140 C.2       1 LYS         0.2065
     29 O         -25.5920   -6.2600    1.4570 O.2       1 LYS        -0.3943
     30 CB        -24.2390   -4.4720   -0.3260 C.3       1 LYS         0.0924
     31 OG1       -23.1180   -5.3670   -0.2900 O.3       1 LYS        -0.3874
     32 CG2       -23.8590   -3.2290   -1.1090 C.3       1 LYS        -0.0346
     33 N         -24.2640   -5.4910    3.0960 N.am      1 LYS        -0.2613
     34 CA        -24.3440   -6.7000    3.9000 C.3       1 LYS         0.1566
     35 C         -24.8010   -6.3610    5.3150 C.2       1 LYS         0.2084
     36 O         -24.3120   -5.3940    5.9100 O.2       1 LYS        -0.3941
     37 CB        -22.9820   -7.4130    3.9460 C.3       1 LYS         0.0924
     38 OG1       -21.9520   -6.4690    4.2690 O.3       1 LYS        -0.3874
     39 CG2       -22.6650   -8.0420    2.6010 C.3       1 LYS        -0.0346
     40 N         -25.7420   -7.1360    5.8800 N.am      1 LYS        -0.2555
     41 CA        -26.2460   -6.8710    7.2340 C.3       1 LYS         0.0972
     42 C         -25.2180   -7.1760    8.3210 C.2       1 LYS         0.0603
     43 O         -25.1540   -6.4420    9.3090 O.co2     1 LYS        -0.5666
     44 CB        -27.4530   -7.8080    7.3470 C.3       1 LYS        -0.0159
     45 CG        -27.1360   -8.9280    6.4230 C.3       1 LYS        -0.0288
     46 CD        -26.4020   -8.3020    5.2660 C.3       1 LYS         0.0362
     47 OXT       -24.4740   -8.1500    8.1870 O.co2     1 LYS        -0.5666
     48 H1        -21.8050   10.9012    3.1226 H         1 LYS         0.2015
     49 H2        -22.5168    9.9795    1.9594 H         1 LYS         0.2015
     50 H3        -20.8756   10.0482    2.0652 H         1 LYS         0.2015
     51 H4        -20.8737    8.9855    4.1675 H         1 LYS         0.1095
     52 H5        -23.0005    8.0451    5.0410 H         1 LYS         0.0310
     53 H6        -23.8996    8.8557    3.7139 H         1 LYS         0.0310
     54 H7        -23.0516    9.8386    4.9555 H         1 LYS         0.0310
     55 H8        -20.3598    6.8466    4.0845 H         1 LYS         0.1884
     56 H9        -20.7442    5.4949    1.5207 H         1 LYS         0.0797
     57 H10       -19.3631    3.6981    2.5325 H         1 LYS         0.0277
     58 H11       -19.4170    4.5499    4.1130 H         1 LYS         0.0277
     59 H12       -18.5866    5.3079    2.7121 H         1 LYS         0.0277
     60 H13       -21.7475    3.4922    1.2439 H         1 LYS         0.1884
     61 H14       -23.6138    2.6613    3.4180 H         1 LYS         0.0819
     62 H15       -24.8639    3.6533    1.5414 H         1 LYS         0.0478
     63 H16       -25.1912    1.8949    1.7068 H         1 LYS         0.0478
     64 H17       -24.1677    0.4052    3.3712 H         1 LYS         0.1884
     65 H18       -22.0245   -1.3536    2.2728 H         1 LYS         0.0826
     66 H19       -21.7756   -1.0624    4.7322 H         1 LYS         0.0639
     67 H20       -21.3357   -3.1183    3.7455 H         1 LYS         0.2101
     68 H21       -23.5305   -1.9652    6.2590 H         1 LYS         0.0257
     69 H22       -24.6023   -2.2690    4.8499 H         1 LYS         0.0257
     70 H23       -24.1595   -0.5861    5.2952 H         1 LYS         0.0257
     71 H24       -22.6961   -3.4208    1.6268 H         1 LYS         0.1884
     72 H25       -25.6077   -3.5644    1.0607 H         1 LYS         0.0826
     73 H26       -25.0847   -4.9679   -0.8249 H         1 LYS         0.0639
     74 H27       -22.3894   -4.9427    0.1478 H         1 LYS         0.2101
     75 H28       -23.5684   -3.5140   -2.1309 H         1 LYS         0.0257
     76 H29       -23.0142   -2.7278   -0.6140 H         1 LYS         0.0257
     77 H30       -24.7189   -2.5442   -1.1498 H         1 LYS         0.0257
     78 H31       -23.7349   -4.7170    3.4438 H         1 LYS         0.1884
     79 H32       -25.0805   -7.3774    3.4431 H         1 LYS         0.0826
     80 H33       -23.0130   -8.1983    4.7156 H         1 LYS         0.0639
     81 H34       -22.1337   -6.0816    5.1171 H         1 LYS         0.2101
     82 H35       -21.6889   -8.5465    2.6531 H         1 LYS         0.0257
     83 H36       -22.6325   -7.2594    1.8287 H         1 LYS         0.0257
     84 H37       -23.4439   -8.7759    2.3467 H         1 LYS         0.0257
     85 H38       -26.5586   -5.8204    7.3261 H         1 LYS         0.0728
     86 H39       -28.3750   -7.2951    7.0357 H         1 LYS         0.0306
     87 H40       -27.5671   -8.1739    8.3781 H         1 LYS         0.0306
     88 H41       -28.0603   -9.4121    6.0748 H         1 LYS         0.0286
     89 H42       -26.4993   -9.6715    6.9248 H         1 LYS         0.0286
     90 H43       -25.6619   -8.9983    4.8448 H         1 LYS         0.0524
     91 H44       -27.1019   -7.9895    4.4771 H         1 LYS         0.0524
@<TRIPOS>BOND
     1    1    2 1  
     2    2    3 1  
     3    2    5 1  
     4    3    4 2  
     5    3    6 am 
     6    6    7 1  
     7    7    8 1  
     8    7   10 1  
     9    8    9 2  
    10    8   11 am 
    11   11   12 1  
    12   12   13 1  
    13   12   15 1  
    14   13   14 2  
    15   13   19 am 
    16   15   16 1  
    17   16   17 ar 
    18   16   18 ar 
    19   19   20 1  
    20   20   21 1  
    21   20   23 1  
    22   21   22 2  
    23   21   26 am 
    24   23   24 1  
    25   23   25 1  
    26   26   27 1  
    27   27   28 1  
    28   27   30 1  
    29   28   29 2  
    30   28   33 am 
    31   30   31 1  
    32   30   32 1  
    33   33   34 1  
    34   34   35 1  
    35   34   37 1  
    36   35   36 2  
    37   35   40 am 
    38   37   38 1  
    39   37   39 1  
    40   40   41 1  
    41   40   46 1  
    42   41   42 1  
    43   41   44 1  
    44   42   43 ar 
    45   42   47 ar 
    46   44   45 1  
    47   45   46 1  
    48    1   48 1  
    49    1   49 1  
    50    1   50 1  
    51    2   51 1  
    52    5   52 1  
    53    5   53 1  
    54    5   54 1  
    55    6   55 1  
    56    7   56 1  
    57   10   57 1  
    58   10   58 1  
    59   10   59 1  
    60   11   60 1  
    61   12   61 1  
    62   15   62 1  
    63   15   63 1  
    64   19   64 1  
    65   20   65 1  
    66   23   66 1  
    67   24   67 1  
    68   25   68 1  
    69   25   69 1  
    70   25   70 1  
    71   26   71 1  
    72   27   72 1  
    73   30   73 1  
    74   31   74 1  
    75   32   75 1  
    76   32   76 1  
    77   32   77 1  
    78   33   78 1  
    79   34   79 1  
    80   37   80 1  
    81   38   81 1  
    82   39   82 1  
    83   39   83 1  
    84   39   84 1  
    85   41   85 1  
    86   44   86 1  
    87   44   87 1  
    88   45   88 1  
    89   45   89 1  
    90   46   90 1  
    91   46   91 1  
@<TRIPOS>SUBSTRUCTURE
     1 LYS         1

