### 
### Created by X-TOOL on Mon Aug  2 16:14:08 2021
### 

@<TRIPOS>MOLECULE
6i5g_ligand
   52    52     1     0     0
SMALL
GAST_HUCK


@<TRIPOS>ATOM
      1 C1        -20.9180   19.8460  -10.0490 C.3       1 PTG        -0.0653
      2 C2        -19.9560   19.2060  -10.9720 C.3       1 PTG        -0.0558
      3 C3        -20.3150   19.6960  -12.3550 C.3       1 PTG        -0.0518
      4 C4        -19.6810   18.6920  -13.2960 C.3       1 PTG        -0.0464
      5 C5        -20.7120   18.1810  -14.2520 C.3       1 PTG        -0.0365
      6 C6        -20.6560   16.6620  -14.3560 C.2       1 PTG        -0.0985
      7 C7        -20.7320   16.2880  -15.6030 C.2       1 PTG        -0.0961
      8 C8        -20.7740   15.1550  -16.2570 C.3       1 PTG        -0.0160
      9 C10       -20.6950   13.7100  -15.9990 C.3       1 PTG         0.0520
     10 C11       -20.6830   12.9100  -17.0980 C.2       1 PTG         0.1119
     11 O12       -20.7100   13.4130  -18.2650 O.2       1 PTG        -0.3957
     12 C13       -20.6030   11.5730  -16.7420 C.2       1 PTG        -0.0186
     13 C14       -20.5700   11.5840  -15.3330 C.2       1 PTG        -0.0526
     14 C15       -20.6860   12.9840  -14.7440 C.3       1 PTG         0.0228
     15 C16       -22.0380   13.1450  -14.0660 C.3       1 PTG        -0.0176
     16 C17       -23.1870   12.4800  -14.8070 C.2       1 PTG        -0.0955
     17 C18       -23.6790   11.3590  -14.2720 C.2       1 PTG        -0.0983
     18 C19       -24.8170   10.5830  -14.8820 C.3       1 PTG        -0.0349
     19 C20       -24.9420    9.2550  -14.1350 C.3       1 PTG        -0.0348
     20 C21       -23.7350    8.3210  -14.3780 C.3       1 PTG         0.0017
     21 C22       -24.0530    7.2470  -15.4130 C.2       1 PTG         0.0349
     22 O23       -23.4510    7.1910  -16.4820 O.co2     1 PTG        -0.5690
     23 O24       -24.9990    6.3330  -15.1780 O.co2     1 PTG        -0.5690
     24 H1        -20.7059   19.5255   -9.0183 H         1 PTG         0.0230
     25 H2        -21.9413   19.5490  -10.3221 H         1 PTG         0.0230
     26 H3        -20.8223   20.9395  -10.1199 H         1 PTG         0.0230
     27 H4        -20.0466   18.1110  -10.9193 H         1 PTG         0.0263
     28 H5        -18.9276   19.5015  -10.7171 H         1 PTG         0.0263
     29 H6        -19.9056   20.7021  -12.5284 H         1 PTG         0.0267
     30 H7        -21.4067   19.7164  -12.4880 H         1 PTG         0.0267
     31 H8        -19.2726   17.8523  -12.7146 H         1 PTG         0.0285
     32 H9        -18.8697   19.1781  -13.8577 H         1 PTG         0.0285
     33 H10       -20.5285   18.6164  -15.2453 H         1 PTG         0.0388
     34 H11       -21.7097   18.4807  -13.8989 H         1 PTG         0.0388
     35 H12       -20.5653   15.9842  -13.5085 H         1 PTG         0.0450
     36 H13       -20.7707   17.1425  -16.2770 H         1 PTG         0.0452
     37 H14       -19.9618   15.2923  -16.9860 H         1 PTG         0.0416
     38 H15       -21.7440   15.2335  -16.7697 H         1 PTG         0.0416
     39 H16       -19.5978   13.7816  -15.9671 H         1 PTG         0.0568
     40 H17       -20.5725   10.7079  -17.4028 H         1 PTG         0.0460
     41 H18       -20.4717   10.6841  -14.7276 H         1 PTG         0.0863
     42 H19       -19.8594   13.2571  -14.0716 H         1 PTG         0.0574
     43 H20       -22.2568   14.2198  -13.9825 H         1 PTG         0.0424
     44 H21       -21.9747   12.7044  -13.0601 H         1 PTG         0.0424
     45 H22       -23.5894   12.8971  -15.7290 H         1 PTG         0.0452
     46 H23       -23.2354   10.9879  -13.3493 H         1 PTG         0.0450
     47 H24       -24.6112   10.3941  -15.9459 H         1 PTG         0.0389
     48 H25       -25.7519   11.1544  -14.7851 H         1 PTG         0.0389
     49 H26       -25.8559    8.7450  -14.4735 H         1 PTG         0.0302
     50 H27       -25.0156    9.4625  -13.0573 H         1 PTG         0.0302
     51 H28       -23.4648    7.8334  -13.4297 H         1 PTG         0.0432
     52 H29       -22.8860    8.9214  -14.7366 H         1 PTG         0.0432
@<TRIPOS>BOND
     1    1    2 1  
     2    2    3 1  
     3    3    4 1  
     4    4    5 1  
     5    5    6 1  
     6    6    7 2  
     7    7    8 1  
     8    8    9 1  
     9    9   10 1  
    10    9   14 1  
    11   10   11 2  
    12   10   12 1  
    13   12   13 2  
    14   13   14 1  
    15   14   15 1  
    16   15   16 1  
    17   16   17 2  
    18   17   18 1  
    19   18   19 1  
    20   19   20 1  
    21   20   21 1  
    22   21   22 ar 
    23   21   23 ar 
    24    1   24 1  
    25    1   25 1  
    26    1   26 1  
    27    2   27 1  
    28    2   28 1  
    29    3   29 1  
    30    3   30 1  
    31    4   31 1  
    32    4   32 1  
    33    5   33 1  
    34    5   34 1  
    35    6   35 1  
    36    7   36 1  
    37    8   37 1  
    38    8   38 1  
    39    9   39 1  
    40   12   40 1  
    41   13   41 1  
    42   14   42 1  
    43   15   43 1  
    44   15   44 1  
    45   16   45 1  
    46   17   46 1  
    47   18   47 1  
    48   18   48 1  
    49   19   49 1  
    50   19   50 1  
    51   20   51 1  
    52   20   52 1  
@<TRIPOS>SUBSTRUCTURE
     1 PTG         1

