### 
### Created by X-TOOL on Mon Aug  2 16:14:08 2021
### 

@<TRIPOS>MOLECULE
6i5i_ligand
   44    48     1     0     0
SMALL
GAST_HUCK


@<TRIPOS>ATOM
      1 C4         20.5790   42.8130   10.7670 C.ar      1 H3E         0.0165
      2 C5         20.9250   42.0530    9.6520 C.ar      1 H3E        -0.0454
      3 C6         20.5540   42.4990    8.3920 C.ar      1 H3E        -0.0153
      4 N1         21.7350   41.2180   13.8820 N.2       1 H3E        -0.2124
      5 C7         19.8640   43.6930    8.2890 C.ar      1 H3E         0.1453
      6 C8         19.5480   44.3850    9.4610 C.ar      1 H3E         0.0526
      7 N2         16.6850   47.8560   11.0290 N.2       1 H3E        -0.2157
      8 C9         18.7400   45.5060    9.0920 C.2       1 H3E        -0.0013
      9 C10        18.6860   45.4300    7.7400 C.2       1 H3E         0.0925
     10 C11        18.1610   46.4670   10.0220 C.2       1 H3E        -0.0165
     11 C12        16.9690   47.2160    9.9130 C.2       1 H3E        -0.0005
     12 N3         17.7050   47.5410   11.8670 N.pl3     1 H3E        -0.1981
     13 C13        17.7610   48.1070   13.2120 C.3       1 H3E         0.1037
     14 C14        18.0020   47.0710   14.2870 C.ar      1 H3E        -0.0108
     15 C15        17.3340   45.8540   14.2810 C.ar      1 H3E        -0.0575
     16 N4         19.9010   43.9710   10.6810 N.ar      1 H3E        -0.3214
     17 C          20.7080   42.4420   15.7170 C.3       1 H3E         0.0620
     18 N          20.9490   42.2410   14.3000 N.pl3     1 H3E        -0.2040
     19 C3         21.7040   41.3110   12.5720 C.2       1 H3E         0.0080
     20 C2         20.9170   42.3930   12.1340 C.2       1 H3E         0.0131
     21 C1         20.4580   42.9630   13.2860 C.2       1 H3E         0.0670
     22 O          19.3610   44.3620    7.2110 O.3       1 H3E        -0.2523
     23 C20        18.5910   46.7080   11.3090 C.2       1 H3E         0.0545
     24 C19        18.8350   47.3530   15.3550 C.ar      1 H3E        -0.0575
     25 C18        18.9470   46.4680   16.4220 C.ar      1 H3E        -0.0685
     26 C17        18.2600   45.2810   16.4090 C.ar      1 H3E        -0.0687
     27 C16        17.4810   44.9600   15.3240 C.ar      1 H3E        -0.0685
     28 H1         21.4761   41.1267    9.7673 H         1 H3E         0.0595
     29 H2         20.7998   41.9237    7.5067 H         1 H3E         0.0682
     30 H3         18.1523   46.1551    7.1274 H         1 H3E         0.1068
     31 H4         16.3571   47.2595    9.0132 H         1 H3E         0.0650
     32 H5         16.8048   48.6096   13.4195 H         1 H3E         0.0805
     33 H6         18.5775   48.8433   13.2473 H         1 H3E         0.0805
     34 H7         16.6888   45.6020   13.4472 H         1 H3E         0.0558
     35 H8         20.0521   43.3139   15.8573 H         1 H3E         0.0608
     36 H9         21.6649   42.6167   16.2306 H         1 H3E         0.0608
     37 H10        20.2242   41.5479   16.1371 H         1 H3E         0.0608
     38 H11        22.2267   40.6298   11.9022 H         1 H3E         0.0681
     39 H12        19.8149   43.8383   13.3649 H         1 H3E         0.1061
     40 H13        19.4824   46.2984   11.7819 H         1 H3E         0.0948
     41 H14        19.4067   48.2740   15.3602 H         1 H3E         0.0558
     42 H15        19.5792   46.7171   17.2666 H         1 H3E         0.0599
     43 H16        18.3313   44.6004   17.2497 H         1 H3E         0.0559
     44 H17        16.9789   44.0000   15.2860 H         1 H3E         0.0599
@<TRIPOS>BOND
     1    1    2 ar 
     2    1   16 ar 
     3   20    1 1  
     4    2    3 ar 
     5    3    5 ar 
     6    4   18 1  
     7   19    4 2  
     8    6    5 ar 
     9    5   22 1  
    10    6    8 1  
    11   16    6 ar 
    12   11    7 2  
    13   12    7 1  
    14    8    9 2  
    15    8   10 1  
    16    9   22 1  
    17   10   11 1  
    18   10   23 2  
    19   12   13 1  
    20   23   12 1  
    21   13   14 1  
    22   14   15 ar 
    23   14   24 ar 
    24   15   27 ar 
    25   18   17 1  
    26   18   21 1  
    27   19   20 1  
    28   20   21 2  
    29   24   25 ar 
    30   25   26 ar 
    31   26   27 ar 
    32    2   28 1  
    33    3   29 1  
    34    9   30 1  
    35   11   31 1  
    36   13   32 1  
    37   13   33 1  
    38   15   34 1  
    39   17   35 1  
    40   17   36 1  
    41   17   37 1  
    42   19   38 1  
    43   21   39 1  
    44   23   40 1  
    45   24   41 1  
    46   25   42 1  
    47   26   43 1  
    48   27   44 1  
@<TRIPOS>SUBSTRUCTURE
     1 H3E         1

