### 
### Created by X-TOOL on Mon Aug  2 16:17:05 2021
### 

@<TRIPOS>MOLECULE
6i5p_ligand
   94    94     1     0     0
SMALL
GAST_HUCK


@<TRIPOS>ATOM
      1 N           6.2760    4.3170   24.8050 N.4       1 LYS         0.2379
      2 CA          7.5740    4.9420   24.5740 C.3       1 LYS         0.0647
      3 C           8.3370    4.2200   23.4490 C.2       1 LYS         0.2267
      4 O           8.6180    3.0190   23.5560 O.2       1 LYS        -0.3907
      5 CB          8.3890    4.9270   25.8620 C.3       1 LYS         0.0050
      6 CG          9.6130    5.7840   25.8500 C.3       1 LYS        -0.0580
      7 N           8.6440    4.9530   22.3760 N.am      1 LYS        -0.2613
      8 CA          9.4240    4.4110   21.2710 C.3       1 LYS         0.1283
      9 C          10.8500    4.1790   21.7230 C.2       1 LYS         0.2037
     10 O          11.3310    4.8270   22.6560 O.2       1 LYS        -0.3944
     11 CB          9.4370    5.3710   20.0770 C.3       1 LYS        -0.0244
     12 N          11.5270    3.2430   21.0560 N.am      1 LYS        -0.2622
     13 CA         12.9380    2.9890   21.3000 C.3       1 LYS         0.1423
     14 C          13.7140    2.9530   19.9900 C.2       1 LYS         0.2057
     15 O          13.1480    2.8530   18.9000 O.2       1 LYS        -0.3943
     16 CB         13.1580    1.6700   22.0490 C.3       1 LYS         0.0406
     17 CG         12.7880    0.4520   21.2110 C.2       1 LYS         0.0393
     18 OD1        11.5770    0.1390   21.1720 O.co2     1 LYS        -0.5688
     19 OD2        13.6990   -0.1800   20.6080 O.co2     1 LYS        -0.5688
     20 N          15.0370    3.0380   20.1160 N.am      1 LYS        -0.2612
     21 CA         15.9520    2.9870   18.9870 C.3       1 LYS         0.1565
     22 C          16.9990    1.9140   19.2360 C.2       1 LYS         0.2065
     23 O          17.2830    1.5600   20.3850 O.2       1 LYS        -0.3943
     24 CB         16.6430    4.3270   18.7390 C.3       1 LYS         0.0924
     25 OG1        17.5980    4.1740   17.6840 O.3       1 LYS        -0.3874
     26 CG2        17.3410    4.8140   20.0060 C.3       1 LYS        -0.0346
     27 N          17.5350    1.3730   18.1450 N.am      1 LYS        -0.2613
     28 CA         18.5940    0.3730   18.1820 C.3       1 LYS         0.1565
     29 C          19.9290    0.9950   17.7790 C.2       1 LYS         0.2065
     30 O          20.6850    0.4090   17.0020 O.2       1 LYS        -0.3943
     31 CB         18.2830   -0.8120   17.2610 C.3       1 LYS         0.0924
     32 OG1        18.6130   -0.4650   15.9110 O.3       1 LYS        -0.3874
     33 CG2        16.8090   -1.2190   17.3190 C.3       1 LYS        -0.0346
     34 N          20.2350    2.1990   18.3040 N.am      1 LYS        -0.2613
     35 CA         21.3190    3.0350   17.7790 C.3       1 LYS         0.1566
     36 C          21.6990    4.1500   18.7510 C.2       1 LYS         0.2084
     37 O          20.8490    4.6310   19.5070 O.2       1 LYS        -0.3941
     38 CB         20.8840    3.6480   16.4410 C.3       1 LYS         0.0924
     39 OG1        20.7400    2.6190   15.4520 O.3       1 LYS        -0.3874
     40 CG2        21.8430    4.7120   15.9230 C.3       1 LYS        -0.0346
     41 N          22.9710    4.5870   18.7780 N.am      1 LYS        -0.2555
     42 CA         23.2900    5.8730   19.4090 C.3       1 LYS         0.0972
     43 C          22.8340    7.0610   18.5500 C.2       1 LYS         0.0603
     44 O          22.3670    8.0770   19.0730 O.co2     1 LYS        -0.5666
     45 CB         24.8150    5.8370   19.5230 C.3       1 LYS        -0.0159
     46 CG         25.2470    4.8990   18.4420 C.3       1 LYS        -0.0288
     47 CD         24.1830    3.8460   18.3890 C.3       1 LYS         0.0362
     48 OXT        22.9250    7.0230   17.3200 O.co2     1 LYS        -0.5666
     49 H1          5.7949    4.8051   25.5442 H         1 LYS         0.2015
     50 H2          6.4093    3.3536   25.0698 H         1 LYS         0.2015
     51 H3          5.7270    4.3606   23.9607 H         1 LYS         0.2015
     52 H4          7.4119    5.9869   24.2710 H         1 LYS         0.1098
     53 H5          8.7014    3.8901   26.0551 H         1 LYS         0.0343
     54 H6          7.7396    5.2726   26.6798 H         1 LYS         0.0343
     55 H7         10.1266    5.7033   26.8194 H         1 LYS         0.0233
     56 H8          9.3258    6.8310   25.6733 H         1 LYS         0.0233
     57 H9         10.2877    5.4485   25.0486 H         1 LYS         0.0233
     58 H10         8.3296    5.9011   22.3294 H         1 LYS         0.1884
     59 H11         8.9802    3.4546   20.9576 H         1 LYS         0.0797
     60 H12        10.0324    4.9341   19.2617 H         1 LYS         0.0277
     61 H13         9.8813    6.3299   20.3822 H         1 LYS         0.0277
     62 H14         8.4068    5.5382   19.7297 H         1 LYS         0.0277
     63 H15        11.0492    2.6988   20.3664 H         1 LYS         0.1884
     64 H16        13.3307    3.8094   21.9186 H         1 LYS         0.0819
     65 H17        12.5388    1.6735   22.9581 H         1 LYS         0.0478
     66 H18        14.2193    1.5962   22.3285 H         1 LYS         0.0478
     67 H19        15.4207    3.1422   21.0336 H         1 LYS         0.1884
     68 H20        15.3774    2.7226   18.0871 H         1 LYS         0.0826
     69 H21        15.8891    5.0700   18.4395 H         1 LYS         0.0639
     70 H22        17.1525    3.8926   16.8935 H         1 LYS         0.2101
     71 H23        17.8314    5.7783   19.8069 H         1 LYS         0.0257
     72 H24        18.0956    4.0760   20.3157 H         1 LYS         0.0257
     73 H25        16.5991    4.9388   20.8085 H         1 LYS         0.0257
     74 H26        17.1931    1.6682   17.2528 H         1 LYS         0.1884
     75 H27        18.6777   -0.0012   19.2130 H         1 LYS         0.0826
     76 H28        18.8970   -1.6690   17.5748 H         1 LYS         0.0639
     77 H29        18.0992    0.2882   15.6442 H         1 LYS         0.2101
     78 H30        16.6368   -2.0700   16.6436 H         1 LYS         0.0257
     79 H31        16.1818   -0.3708   17.0073 H         1 LYS         0.0257
     80 H32        16.5488   -1.5089   18.3477 H         1 LYS         0.0257
     81 H33        19.7022    2.5343   19.0810 H         1 LYS         0.1884
     82 H34        22.2018    2.4002   17.6127 H         1 LYS         0.0826
     83 H35        19.9042    4.1239   16.5946 H         1 LYS         0.0639
     84 H36        20.4708    3.0084   14.6284 H         1 LYS         0.2101
     85 H37        21.4711    5.1061   14.9657 H         1 LYS         0.0257
     86 H38        22.8383    4.2677   15.7747 H         1 LYS         0.0257
     87 H39        21.9122    5.5307   16.6544 H         1 LYS         0.0257
     88 H40        22.8235    5.9450   20.4026 H         1 LYS         0.0728
     89 H41        25.1227    5.4614   20.5100 H         1 LYS         0.0306
     90 H42        25.2410    6.8384   19.3625 H         1 LYS         0.0306
     91 H43        26.2215    4.4510   18.6864 H         1 LYS         0.0286
     92 H44        25.3168    5.4259   17.4789 H         1 LYS         0.0286
     93 H45        24.0857    3.4318   17.3746 H         1 LYS         0.0524
     94 H46        24.3949    3.0326   19.0985 H         1 LYS         0.0524
@<TRIPOS>BOND
     1    1    2 1  
     2    2    3 1  
     3    2    5 1  
     4    3    4 2  
     5    3    7 am 
     6    5    6 1  
     7    7    8 1  
     8    8    9 1  
     9    8   11 1  
    10    9   10 2  
    11    9   12 am 
    12   12   13 1  
    13   13   14 1  
    14   13   16 1  
    15   14   15 2  
    16   14   20 am 
    17   16   17 1  
    18   17   18 ar 
    19   17   19 ar 
    20   20   21 1  
    21   21   22 1  
    22   21   24 1  
    23   22   23 2  
    24   22   27 am 
    25   24   25 1  
    26   24   26 1  
    27   27   28 1  
    28   28   29 1  
    29   28   31 1  
    30   29   30 2  
    31   29   34 am 
    32   31   32 1  
    33   31   33 1  
    34   34   35 1  
    35   35   36 1  
    36   35   38 1  
    37   36   37 2  
    38   36   41 am 
    39   38   39 1  
    40   38   40 1  
    41   41   42 1  
    42   41   47 1  
    43   42   43 1  
    44   42   45 1  
    45   43   44 ar 
    46   43   48 ar 
    47   45   46 1  
    48   46   47 1  
    49    1   49 1  
    50    1   50 1  
    51    1   51 1  
    52    2   52 1  
    53    5   53 1  
    54    5   54 1  
    55    6   55 1  
    56    6   56 1  
    57    6   57 1  
    58    7   58 1  
    59    8   59 1  
    60   11   60 1  
    61   11   61 1  
    62   11   62 1  
    63   12   63 1  
    64   13   64 1  
    65   16   65 1  
    66   16   66 1  
    67   20   67 1  
    68   21   68 1  
    69   24   69 1  
    70   25   70 1  
    71   26   71 1  
    72   26   72 1  
    73   26   73 1  
    74   27   74 1  
    75   28   75 1  
    76   31   76 1  
    77   32   77 1  
    78   33   78 1  
    79   33   79 1  
    80   33   80 1  
    81   34   81 1  
    82   35   82 1  
    83   38   83 1  
    84   39   84 1  
    85   40   85 1  
    86   40   86 1  
    87   40   87 1  
    88   42   88 1  
    89   45   89 1  
    90   45   90 1  
    91   46   91 1  
    92   46   92 1  
    93   47   93 1  
    94   47   94 1  
@<TRIPOS>SUBSTRUCTURE
     1 LYS         1

