### 
### Created by X-TOOL on Mon Aug  2 16:14:09 2021
### 

@<TRIPOS>MOLECULE
6i5y_ligand
   59    62     1     0     0
SMALL
GAST_HUCK


@<TRIPOS>ATOM
      1 CD1       -49.7020    1.0290  -44.6500 C.ar      1 YSA        -0.0684
      2 CE1       -48.4710    0.3930  -44.6960 C.ar      1 YSA        -0.0398
      3 CZ        -48.1600   -0.5760  -43.7520 C.ar      1 YSA         0.0805
      4 OH        -46.9300   -1.1530  -43.7310 O.3       1 YSA        -0.3376
      5 CE2       -49.0990   -0.9310  -42.7930 C.ar      1 YSA        -0.0398
      6 CD2       -50.3390   -0.3200  -42.7820 C.ar      1 YSA        -0.0684
      7 CG        -50.6560    0.6740  -43.7000 C.ar      1 YSA        -0.0460
      8 CB        -52.0060    1.3440  -43.6650 C.3       1 YSA         0.0366
      9 CA        -51.9450    2.8590  -43.4680 C.3       1 YSA         0.0745
     10 N         -51.1840    3.2170  -42.2660 N.4       1 YSA         0.2393
     11 C         -53.3800    3.3010  -43.2510 C.2       1 YSA         0.2478
     12 O         -53.8940    3.4270  -42.1400 O.2       1 YSA        -0.3890
     13 NAT       -54.1000    3.5490  -44.3980 N.am      1 YSA        -0.1293
     14 SBI       -55.6830    3.4480  -44.5870 S.o2      1 YSA         0.1859
     15 OAD       -56.2570    4.5210  -43.8580 O.2       1 YSA        -0.1218
     16 OAE       -56.1690    2.1240  -44.4490 O.2       1 YSA        -0.1218
     17 O5'       -55.8370    3.8290  -46.1250 O.3       1 YSA        -0.2161
     18 C5'       -55.2200    2.9230  -47.1010 C.3       1 YSA         0.1073
     19 C4'       -54.5790    3.7850  -48.1630 C.3       1 YSA         0.1161
     20 O4'       -55.5890    4.5720  -48.8370 O.3       1 YSA        -0.3367
     21 C3'       -53.5250    4.7800  -47.6620 C.3       1 YSA         0.1146
     22 O3'       -52.4010    4.7800  -48.5390 O.3       1 YSA        -0.3864
     23 C2'       -54.2760    6.1060  -47.6910 C.3       1 YSA         0.1385
     24 O2'       -53.4450    7.2380  -47.8540 O.3       1 YSA        -0.3836
     25 C1'       -55.1180    5.8990  -48.9390 C.3       1 YSA         0.2010
     26 N9        -56.2540    6.8070  -49.0670 N.pl3     1 YSA        -0.1919
     27 C8        -57.3030    6.9810  -48.1990 C.2       1 YSA         0.1123
     28 N7        -58.1300    7.9400  -48.5440 N.2       1 YSA        -0.2958
     29 C5        -57.5910    8.4300  -49.7240 C.ar      1 YSA         0.1045
     30 C4        -56.4430    7.7290  -50.0680 C.ar      1 YSA         0.1613
     31 N3        -55.6760    7.9280  -51.1470 N.ar      1 YSA        -0.2714
     32 C2        -56.1400    8.9400  -51.8900 C.ar      1 YSA         0.0533
     33 N1        -57.2220    9.7010  -51.6840 N.ar      1 YSA        -0.2698
     34 C6        -57.9810    9.4740  -50.5870 C.ar      1 YSA         0.1298
     35 N6        -59.0140   10.2920  -50.3430 N.pl3     1 YSA        -0.3152
     36 H1        -49.9250    1.8138  -45.3638 H         1 YSA         0.0530
     37 H2        -47.7538    0.6516  -45.4666 H         1 YSA         0.0525
     38 H3        -46.8916   -1.7886  -43.0260 H         1 YSA         0.2458
     39 H4        -48.8600   -1.6867  -42.0535 H         1 YSA         0.0525
     40 H5        -51.0756   -0.6209  -42.0458 H         1 YSA         0.0530
     41 H6        -52.5855    0.9108  -42.8364 H         1 YSA         0.0486
     42 H7        -52.5181    1.1396  -44.6168 H         1 YSA         0.0486
     43 H8        -51.5063    3.3450  -44.3520 H         1 YSA         0.1120
     44 H9        -51.1641    4.2200  -42.1673 H         1 YSA         0.2017
     45 H10       -50.2417    2.8688  -42.3488 H         1 YSA         0.2017
     46 H11       -51.6233    2.8083  -41.4560 H         1 YSA         0.2017
     47 H12       -53.5732    3.8229  -45.2026 H         1 YSA         0.2167
     48 H13       -55.9864    2.2757  -47.5522 H         1 YSA         0.0611
     49 H14       -54.4578    2.3008  -46.6092 H         1 YSA         0.0611
     50 H15       -54.0981    3.1120  -48.8881 H         1 YSA         0.0648
     51 H16       -53.1954    4.5365  -46.6412 H         1 YSA         0.0648
     52 H17       -52.0222    3.9092  -48.5665 H         1 YSA         0.2100
     53 H18       -54.8936    6.2345  -46.7899 H         1 YSA         0.0676
     54 H19       -53.9796    8.0232  -47.8627 H         1 YSA         0.2101
     55 H20       -54.4817    6.0123  -49.8291 H         1 YSA         0.0996
     56 H21       -57.4372    6.3766  -47.3031 H         1 YSA         0.1349
     57 H22       -55.5626    9.1747  -52.7769 H         1 YSA         0.0996
     58 H23       -59.2499   11.0376  -51.0133 H         1 YSA         0.1820
     59 H24       -59.5720   10.1751  -49.4852 H         1 YSA         0.1820
@<TRIPOS>BOND
     1    1    2 ar 
     2    1    7 ar 
     3    2    3 ar 
     4    3    4 1  
     5    3    5 ar 
     6    5    6 ar 
     7    6    7 ar 
     8    7    8 1  
     9    8    9 1  
    10    9   10 1  
    11    9   11 1  
    12   11   12 2  
    13   11   13 am 
    14   13   14 am 
    15   14   15 2  
    16   14   16 2  
    17   14   17 1  
    18   17   18 1  
    19   18   19 1  
    20   19   20 1  
    21   19   21 1  
    22   20   25 1  
    23   21   22 1  
    24   21   23 1  
    25   23   24 1  
    26   23   25 1  
    27   25   26 1  
    28   26   27 1  
    29   26   30 1  
    30   27   28 2  
    31   28   29 1  
    32   29   30 ar 
    33   29   34 ar 
    34   30   31 ar 
    35   31   32 ar 
    36   32   33 ar 
    37   33   34 ar 
    38   34   35 1  
    39    1   36 1  
    40    2   37 1  
    41    4   38 1  
    42    5   39 1  
    43    6   40 1  
    44    8   41 1  
    45    8   42 1  
    46    9   43 1  
    47   10   44 1  
    48   10   45 1  
    49   10   46 1  
    50   13   47 1  
    51   18   48 1  
    52   18   49 1  
    53   19   50 1  
    54   21   51 1  
    55   22   52 1  
    56   23   53 1  
    57   24   54 1  
    58   25   55 1  
    59   27   56 1  
    60   32   57 1  
    61   35   58 1  
    62   35   59 1  
@<TRIPOS>SUBSTRUCTURE
     1 YSA         1

