### 
### Created by X-TOOL on Mon Aug  2 16:14:09 2021
### 

@<TRIPOS>MOLECULE
6i61_ligand
   36    37     1     0     0
SMALL
GAST_HUCK


@<TRIPOS>ATOM
      1 CAA       -16.0310   -0.6490  -26.1010 C.3       1 H3W        -0.0779
      2 CAB       -18.1090   -2.6570  -26.4070 C.3       1 H3W        -0.1040
      3 CAE       -15.5630   -1.9220  -30.3550 C.ar      1 H3W        -0.0082
      4 CAF       -17.7340   -2.9260  -30.4950 C.ar      1 H3W        -0.0082
      5 CAG       -16.8760   -6.4340  -25.3830 C.ar      1 H3W        -0.0082
      6 CAH       -15.0400   -6.3140  -26.9410 C.ar      1 H3W        -0.0082
      7 CAI       -15.5670   -2.1500  -28.9770 C.ar      1 H3W        -0.0588
      8 CAJ       -17.7380   -3.1500  -29.1180 C.ar      1 H3W        -0.0588
      9 CAK       -17.1790   -5.1070  -25.6940 C.ar      1 H3W        -0.0588
     10 CAL       -15.3510   -4.9970  -27.2440 C.ar      1 H3W        -0.0588
     11 CAM       -15.7350   -2.1630  -26.0640 C.3       1 H3W        -0.0949
     12 CAN       -16.6540   -2.3150  -31.1210 C.ar      1 H3W         0.1160
     13 CAO       -15.7980   -7.0480  -26.0240 C.ar      1 H3W         0.1160
     14 CAP       -16.6540   -2.7580  -28.3280 C.ar      1 H3W        -0.0883
     15 CAQ       -16.4240   -4.3690  -26.6190 C.ar      1 H3W        -0.0883
     16 CAR       -16.7010   -3.0150  -26.9210 C.3       1 H3W        -0.0563
     17 OAC       -16.6640   -2.1110  -32.4690 O.3       1 H3W        -0.3144
     18 OAD       -15.4630   -8.3500  -25.7450 O.3       1 H3W        -0.3144
     19 H1        -15.3036   -0.1177  -25.4697 H         1 H3W         0.0217
     20 H2        -17.0476   -0.4648  -25.7235 H         1 H3W         0.0217
     21 H3        -15.9527   -0.2852  -27.1361 H         1 H3W         0.0217
     22 H4        -18.3278   -1.6045  -26.6402 H         1 H3W         0.0064
     23 H5        -18.1512   -2.8077  -25.3182 H         1 H3W         0.0064
     24 H6        -18.8531   -3.3031  -26.8957 H         1 H3W         0.0064
     25 H7        -14.7129   -1.4407  -30.8248 H         1 H3W         0.0623
     26 H8        -18.5882   -3.2339  -31.0871 H         1 H3W         0.0623
     27 H9        -17.4677   -6.9785  -24.6561 H         1 H3W         0.0623
     28 H10       -14.1916   -6.7840  -27.4252 H         1 H3W         0.0623
     29 H11       -14.7060   -1.8489  -28.3914 H         1 H3W         0.0758
     30 H12       -18.5912   -3.6333  -28.6559 H         1 H3W         0.0758
     31 H13       -18.0228   -4.6323  -25.2064 H         1 H3W         0.0758
     32 H14       -14.7562   -4.4549  -27.9702 H         1 H3W         0.0758
     33 H15       -15.8064   -2.5039  -25.0206 H         1 H3W         0.0098
     34 H16       -14.7115   -2.3243  -26.4333 H         1 H3W         0.0098
     35 H17       -16.7414   -2.9467  -32.9140 H         1 H3W         0.2593
     36 H18       -16.0725   -8.7030  -25.1075 H         1 H3W         0.2593
@<TRIPOS>BOND
     1   11    1 1  
     2   16    2 1  
     3    7    3 ar 
     4    3   12 ar 
     5    8    4 ar 
     6    4   12 ar 
     7    9    5 ar 
     8    5   13 ar 
     9   10    6 ar 
    10    6   13 ar 
    11   14    7 ar 
    12   14    8 ar 
    13   15    9 ar 
    14   15   10 ar 
    15   16   11 1  
    16   12   17 1  
    17   13   18 1  
    18   16   14 1  
    19   15   16 1  
    20    1   19 1  
    21    1   20 1  
    22    1   21 1  
    23    2   22 1  
    24    2   23 1  
    25    2   24 1  
    26    3   25 1  
    27    4   26 1  
    28    5   27 1  
    29    6   28 1  
    30    7   29 1  
    31    8   30 1  
    32    9   31 1  
    33   10   32 1  
    34   11   33 1  
    35   11   34 1  
    36   17   35 1  
    37   18   36 1  
@<TRIPOS>SUBSTRUCTURE
     1 H3W         1

