### 
### Created by X-TOOL on Mon Aug  2 16:14:09 2021
### 

@<TRIPOS>MOLECULE
6i62_ligand
   30    31     1     0     0
SMALL
GAST_HUCK


@<TRIPOS>ATOM
      1 CAJ         3.1950  -17.7720    4.9050 C.ar      1 MOL        -0.0666
      2 CAF         3.0980  -18.2200    3.5940 C.ar      1 MOL        -0.0395
      3 CAN         2.8680  -17.3340    2.5480 C.ar      1 MOL         0.0807
      4 OAA         2.7790  -17.8140    1.2760 O.3       1 MOL        -0.3374
      5 CAG         2.7270  -15.9770    2.7950 C.ar      1 MOL        -0.0395
      6 CAK         2.8220  -15.5290    4.1070 C.ar      1 MOL        -0.0666
      7 CAP         3.0550  -16.4190    5.1520 C.ar      1 MOL        -0.0371
      8 CAR         3.1350  -15.8490    6.4210 C.3       1 MOL         0.0625
      9 CAS         2.0520  -16.2480    7.4290 C.3       1 MOL         0.2093
     10 CLD         1.9950  -17.9620    7.9770 Cl        1 MOL        -0.0790
     11 CLE         2.1700  -15.1750    8.7420 Cl        1 MOL        -0.0790
     12 CLC         0.5470  -15.9510    6.6210 Cl        1 MOL        -0.0790
     13 CAQ         4.4300  -15.9020    6.9750 C.ar      1 MOL        -0.0371
     14 CAL         4.9480  -16.9140    7.7920 C.ar      1 MOL        -0.0666
     15 CAH         6.2560  -16.8110    8.2910 C.ar      1 MOL        -0.0395
     16 CAO         7.0140  -15.6810    7.9640 C.ar      1 MOL         0.0807
     17 OAB         8.2970  -15.4910    8.3880 O.3       1 MOL        -0.3374
     18 CAI         6.4780  -14.7000    7.1590 C.ar      1 MOL        -0.0395
     19 CAM         5.2010  -14.8020    6.6750 C.ar      1 MOL        -0.0666
     20 H1          3.3764  -18.4676    5.7164 H         1 MOL         0.0533
     21 H2          3.2034  -19.2780    3.3830 H         1 MOL         0.0526
     22 H3          3.5922  -18.2473    1.0446 H         1 MOL         0.2459
     23 H4          2.5468  -15.2815    1.9833 H         1 MOL         0.0526
     24 H5          2.7132  -14.4717    4.3198 H         1 MOL         0.0533
     25 H6          2.9512  -14.7794    6.2415 H         1 MOL         0.0619
     26 H7          4.3395  -17.7764    8.0391 H         1 MOL         0.0533
     27 H8          6.6711  -17.5920    8.9178 H         1 MOL         0.0526
     28 H9          8.3169  -15.4787    9.3377 H         1 MOL         0.2459
     29 H10         7.0769  -13.8331    6.9045 H         1 MOL         0.0526
     30 H11         4.7954  -14.0126    6.0526 H         1 MOL         0.0533
@<TRIPOS>BOND
     1    1    2 ar 
     2    1    7 ar 
     3    2    3 ar 
     4    3    4 1  
     5    3    5 ar 
     6    5    6 ar 
     7    6    7 ar 
     8    7    8 1  
     9    8    9 1  
    10    8   13 1  
    11    9   10 1  
    12    9   11 1  
    13    9   12 1  
    14   13   14 ar 
    15   13   19 ar 
    16   14   15 ar 
    17   15   16 ar 
    18   16   17 1  
    19   16   18 ar 
    20   18   19 ar 
    21    1   20 1  
    22    2   21 1  
    23    4   22 1  
    24    5   23 1  
    25    6   24 1  
    26    8   25 1  
    27   14   26 1  
    28   15   27 1  
    29   17   28 1  
    30   18   29 1  
    31   19   30 1  
@<TRIPOS>SUBSTRUCTURE
     1 MOL         1

