### 
### Created by X-TOOL on Mon Aug  2 16:14:09 2021
### 

@<TRIPOS>MOLECULE
6i63_ligand
   33    34     1     0     0
SMALL
GAST_HUCK


@<TRIPOS>ATOM
      1 O2         15.9850    3.0040  -33.7550 O.3       1 MOL        -0.3144
      2 C13        15.9860    3.0980  -32.3900 C.ar      1 MOL         0.1160
      3 C12        14.9150    2.5970  -31.6520 C.ar      1 MOL        -0.0082
      4 C11        14.9050    2.6840  -30.2600 C.ar      1 MOL        -0.0588
      5 C14        17.0570    3.6920  -31.7290 C.ar      1 MOL        -0.0082
      6 C15        17.0530    3.7800  -30.3400 C.ar      1 MOL        -0.0588
      7 C4         15.9790    3.2790  -29.6120 C.ar      1 MOL        -0.0886
      8 C2         16.0000    3.3880  -28.0950 C.3       1 MOL        -0.0588
      9 C3         17.3420    2.8710  -27.5600 C.3       1 MOL        -0.1042
     10 C5         14.8460    2.5790  -27.4890 C.3       1 MOL        -0.1042
     11 C1         15.7610    4.8500  -27.7180 C.ar      1 MOL        -0.0886
     12 C10        16.6200    5.5200  -26.8430 C.ar      1 MOL        -0.0588
     13 C9         16.3590    6.8410  -26.4960 C.ar      1 MOL        -0.0082
     14 C6         14.6450    5.4930  -28.2520 C.ar      1 MOL        -0.0588
     15 C7         14.3850    6.8050  -27.9090 C.ar      1 MOL        -0.0082
     16 C8         15.2390    7.4770  -27.0330 C.ar      1 MOL         0.1160
     17 O1         14.9790    8.7720  -26.7020 O.3       1 MOL        -0.3144
     18 H1         16.7818    3.3908  -34.0985 H         1 MOL         0.2593
     19 H2         14.0801    2.1344  -32.1659 H         1 MOL         0.0623
     20 H3         14.0694    2.2921  -29.6914 H         1 MOL         0.0758
     21 H4         17.8933    4.0857  -32.2953 H         1 MOL         0.0623
     22 H5         17.8885    4.2398  -29.8246 H         1 MOL         0.0758
     23 H6         17.4728    1.8189  -27.8532 H         1 MOL         0.0064
     24 H7         17.3544    2.9501  -26.4629 H         1 MOL         0.0064
     25 H8         18.1609    3.4733  -27.9804 H         1 MOL         0.0064
     26 H9         13.8892    2.9570  -27.8784 H         1 MOL         0.0064
     27 H10        14.8621    2.6810  -26.3939 H         1 MOL         0.0064
     28 H11        14.9592    1.5190  -27.7603 H         1 MOL         0.0064
     29 H12        17.4868    5.0118  -26.4361 H         1 MOL         0.0758
     30 H13        17.0175    7.3702  -25.8167 H         1 MOL         0.0623
     31 H14        13.9856    4.9662  -28.9322 H         1 MOL         0.0758
     32 H15        13.5193    7.3122  -28.3193 H         1 MOL         0.0623
     33 H16        15.6462    9.0845  -26.1023 H         1 MOL         0.2593
@<TRIPOS>BOND
     1    1    2 1  
     2    2    3 ar 
     3    2    5 ar 
     4    3    4 ar 
     5    4    7 ar 
     6    5    6 ar 
     7    6    7 ar 
     8    7    8 1  
     9    8    9 1  
    10    8   10 1  
    11    8   11 1  
    12   11   12 ar 
    13   11   14 ar 
    14   12   13 ar 
    15   13   16 ar 
    16   14   15 ar 
    17   15   16 ar 
    18   16   17 1  
    19    1   18 1  
    20    3   19 1  
    21    4   20 1  
    22    5   21 1  
    23    6   22 1  
    24    9   23 1  
    25    9   24 1  
    26    9   25 1  
    27   10   26 1  
    28   10   27 1  
    29   10   28 1  
    30   12   29 1  
    31   13   30 1  
    32   14   31 1  
    33   15   32 1  
    34   17   33 1  
@<TRIPOS>SUBSTRUCTURE
     1 MOL         1

