### 
### Created by X-TOOL on Mon Aug  2 16:14:10 2021
### 

@<TRIPOS>MOLECULE
6i64_ligand
   30    31     1     0     0
SMALL
GAST_HUCK


@<TRIPOS>ATOM
      1 CAA        48.0670  -29.8210  -96.2220 C.3       1 H48        -0.0459
      2 CAD        47.0000  -25.5230  -96.8390 C.ar      1 H48        -0.0395
      3 CAE        48.8170  -25.5190  -95.2410 C.ar      1 H48        -0.0395
      4 CAF        49.6260  -28.8580 -100.5790 C.ar      1 H48        -0.0395
      5 CAG        47.4320  -29.8160 -100.2850 C.ar      1 H48        -0.0395
      6 CAH        47.3520  -26.8260  -97.2330 C.ar      1 H48        -0.0667
      7 CAI        49.1620  -26.8150  -95.6410 C.ar      1 H48        -0.0667
      8 CAJ        49.7310  -28.6450  -99.2150 C.ar      1 H48        -0.0667
      9 CAK        47.5440  -29.6030  -98.9120 C.ar      1 H48        -0.0667
     10 CAL        47.7350  -24.8640  -95.8420 C.ar      1 H48         0.0807
     11 CAM        48.4870  -29.4410 -101.1100 C.ar      1 H48         0.0807
     12 CAN        48.4380  -27.4720  -96.6340 C.ar      1 H48        -0.0415
     13 CAO        48.6890  -29.0050  -98.3750 C.ar      1 H48        -0.0415
     14 CAP        48.8360  -28.7760  -97.0030 C.3       1 H48         0.0128
     15 OAB        47.4010  -23.5900  -95.4450 O.3       1 H48        -0.3374
     16 OAC        48.4190  -29.6300 -102.4390 O.3       1 H48        -0.3374
     17 H1         48.1868  -29.6351  -95.1445 H         1 H48         0.0271
     18 H2         48.4548  -30.8208  -96.4669 H         1 H48         0.0271
     19 H3         47.0009  -29.7661  -96.4872 H         1 H48         0.0271
     20 H4         46.1580  -25.0260  -97.3071 H         1 H48         0.0526
     21 H5         49.3879  -25.0217  -94.4652 H         1 H48         0.0526
     22 H6         50.4389  -28.5672 -101.2345 H         1 H48         0.0526
     23 H7         46.5384  -30.2660 -100.7023 H         1 H48         0.0526
     24 H8         46.7801  -27.3311  -98.0030 H         1 H48         0.0533
     25 H9         50.0027  -27.3139  -95.1726 H         1 H48         0.0533
     26 H10        50.6283  -28.1966  -98.8040 H         1 H48         0.0533
     27 H11        46.7364  -29.9035  -98.2543 H         1 H48         0.0533
     28 H12        49.9027  -28.8812  -96.7558 H         1 H48         0.0575
     29 H13        47.1848  -23.5942  -94.5199 H         1 H48         0.2459
     30 H14        49.2203  -29.3187 -102.8434 H         1 H48         0.2459
@<TRIPOS>BOND
     1   14    1 1  
     2    6    2 ar 
     3    2   10 ar 
     4    7    3 ar 
     5    3   10 ar 
     6    8    4 ar 
     7    4   11 ar 
     8    9    5 ar 
     9    5   11 ar 
    10   12    6 ar 
    11   12    7 ar 
    12   13    8 ar 
    13   13    9 ar 
    14   10   15 1  
    15   11   16 1  
    16   14   12 1  
    17   13   14 1  
    18    1   17 1  
    19    1   18 1  
    20    1   19 1  
    21    2   20 1  
    22    3   21 1  
    23    4   22 1  
    24    5   23 1  
    25    6   24 1  
    26    7   25 1  
    27    8   26 1  
    28    9   27 1  
    29   14   28 1  
    30   15   29 1  
    31   16   30 1  
@<TRIPOS>SUBSTRUCTURE
     1 H48         1

