### 
### Created by X-TOOL on Mon Aug  2 16:14:10 2021
### 

@<TRIPOS>MOLECULE
6i65_ligand
   22    22     1     0     0
SMALL
GAST_HUCK


@<TRIPOS>ATOM
      1 CAA       -16.8220   -2.4730  -26.6090 C.3       1 H3Z        -0.0543
      2 CAB       -17.7000   -3.4840  -28.7350 C.3       1 H3Z        -0.0543
      3 CAD       -14.7600   -6.6160  -27.3120 C.ar      1 H3Z        -0.0398
      4 CAE       -16.7530   -6.6450  -25.9730 C.ar      1 H3Z        -0.0398
      5 CAF       -15.0690   -5.3400  -27.7580 C.ar      1 H3Z        -0.0685
      6 CAG       -17.0660   -5.3620  -26.4190 C.ar      1 H3Z        -0.0685
      7 CAH       -15.5960   -7.2760  -26.4220 C.ar      1 H3Z         0.0805
      8 CAI       -16.2210   -4.7060  -27.3110 C.ar      1 H3Z        -0.0512
      9 CAJ       -16.5100   -3.4200  -27.7740 C.3       1 H3Z        -0.0181
     10 OAC       -15.2750   -8.5340  -26.0020 O.3       1 H3Z        -0.3376
     11 H1        -17.0453   -1.4700  -27.0016 H         1 H3Z         0.0252
     12 H2        -15.9524   -2.4187  -25.9376 H         1 H3Z         0.0252
     13 H3        -17.6921   -2.8509  -26.0522 H         1 H3Z         0.0252
     14 H4        -17.4643   -4.1657  -29.5655 H         1 H3Z         0.0252
     15 H5        -17.9048   -2.4790  -29.1325 H         1 H3Z         0.0252
     16 H6        -18.5859   -3.8534  -28.1976 H         1 H3Z         0.0252
     17 H7        -13.8568   -7.1028  -27.6618 H         1 H3Z         0.0525
     18 H8        -17.4108   -7.1518  -25.2762 H         1 H3Z         0.0525
     19 H9        -14.4105   -4.8366  -28.4566 H         1 H3Z         0.0530
     20 H10       -17.9690   -4.8737  -26.0709 H         1 H3Z         0.0530
     21 H11       -15.6340   -3.0335  -28.3155 H         1 H3Z         0.0435
     22 H12       -15.1765   -8.5357  -25.0571 H         1 H3Z         0.2458
@<TRIPOS>BOND
     1    9    1 1  
     2    9    2 1  
     3    5    3 ar 
     4    3    7 ar 
     5    6    4 ar 
     6    4    7 ar 
     7    8    5 ar 
     8    8    6 ar 
     9    7   10 1  
    10    8    9 1  
    11    1   11 1  
    12    1   12 1  
    13    1   13 1  
    14    2   14 1  
    15    2   15 1  
    16    2   16 1  
    17    3   17 1  
    18    4   18 1  
    19    5   19 1  
    20    6   20 1  
    21    9   21 1  
    22   10   22 1  
@<TRIPOS>SUBSTRUCTURE
     1 H3Z         1

