### 
### Created by X-TOOL on Mon Aug  2 16:14:10 2021
### 

@<TRIPOS>MOLECULE
6i67_ligand
   23    24     1     0     0
SMALL
GAST_HUCK


@<TRIPOS>ATOM
      1 CAB       -17.3060   -6.6760  -25.0100 C.ar      1 H42        -0.0468
      2 CAC       -17.8280   -5.4210  -25.3120 C.ar      1 H42        -0.0752
      3 CAD       -15.4200   -6.2720  -26.4770 C.ar      1 H42        -0.0385
      4 CAE       -16.6350   -2.2280  -27.1350 C.3       1 H42        -0.0441
      5 CAF       -16.0030   -2.9570  -28.3390 C.3       1 H42        -0.0430
      6 CAG       -17.6060   -3.3550  -26.5770 C.3       1 H42        -0.0265
      7 CAH       -15.2970   -4.1290  -27.5880 C.3       1 H42        -0.0238
      8 CAI       -16.1060   -7.1010  -25.5860 C.ar      1 H42         0.0739
      9 CAJ       -17.1130   -4.5870  -26.1680 C.ar      1 H42        -0.0517
     10 CAK       -15.9720   -5.0360  -26.8020 C.ar      1 H42        -0.0494
     11 OAA       -15.6050   -8.3430  -25.2890 O.3       1 H42        -0.3393
     12 H1        -17.8341   -7.3277  -24.3234 H         1 H42         0.0468
     13 H2        -18.7728   -5.0993  -24.8890 H         1 H42         0.0511
     14 H3        -14.4756   -6.5853  -26.9072 H         1 H42         0.0462
     15 H4        -17.1926   -1.3340  -27.4508 H         1 H42         0.0285
     16 H5        -15.8764   -1.9432  -26.3910 H         1 H42         0.0285
     17 H6        -15.2834   -2.3194  -28.8733 H         1 H42         0.0287
     18 H7        -16.7646   -3.3211  -29.0443 H         1 H42         0.0287
     19 H8        -18.3372   -3.5597  -27.3729 H         1 H42         0.0391
     20 H9        -18.1219   -2.9208  -25.7079 H         1 H42         0.0391
     21 H10       -14.5479   -3.6603  -26.9329 H         1 H42         0.0410
     22 H11       -14.7877   -4.7209  -28.3627 H         1 H42         0.0410
     23 H12       -16.1834   -8.7776  -24.6734 H         1 H42         0.2457
@<TRIPOS>BOND
     1    2    1 ar 
     2    1    8 ar 
     3    9    2 ar 
     4    8    3 ar 
     5    3   10 ar 
     6    4    5 1  
     7    6    4 1  
     8    5    7 1  
     9    6    9 1  
    10    7   10 1  
    11    8   11 1  
    12    9   10 ar 
    13    1   12 1  
    14    2   13 1  
    15    3   14 1  
    16    4   15 1  
    17    4   16 1  
    18    5   17 1  
    19    5   18 1  
    20    6   19 1  
    21    6   20 1  
    22    7   21 1  
    23    7   22 1  
    24   11   23 1  
@<TRIPOS>SUBSTRUCTURE
     1 H42         1

