### 
### Created by X-TOOL on Mon Aug  2 16:14:10 2021
### 

@<TRIPOS>MOLECULE
6i74_ligand
   52    55     1     0     0
SMALL
GAST_HUCK


@<TRIPOS>ATOM
      1 C20       -12.8980    8.5940   -0.0400 C.ar      1 H5Z         0.0421
      2 C21       -11.6840    9.0060   -0.6420 C.ar      1 H5Z         0.1613
      3 C01       -25.3740    8.9440   -5.7170 C.3       1 H5Z        -0.0343
      4 C02       -24.2220    9.2600   -4.7420 C.ar      1 H5Z        -0.0527
      5 C03       -23.8200   10.5640   -4.4040 C.ar      1 H5Z        -0.0663
      6 C04       -22.7870   10.8570   -3.5120 C.ar      1 H5Z        -0.0563
      7 C05       -23.4780    8.2750   -4.0810 C.ar      1 H5Z        -0.0663
      8 C06       -22.4430    8.5640   -3.1820 C.ar      1 H5Z        -0.0563
      9 C07       -22.0770    9.8660   -2.8780 C.ar      1 H5Z         0.0110
     10 C09       -19.7520    8.7090   -1.7100 C.3       1 H5Z         0.1452
     11 C11       -19.6160    6.5510   -0.8840 C.3       1 H5Z         0.1124
     12 C12       -20.2960    5.5800    0.0860 C.3       1 H5Z         0.0730
     13 C14       -18.1030    6.6820   -0.5860 C.3       1 H5Z         0.1194
     14 C16       -17.5670    7.7010   -1.6120 C.3       1 H5Z         0.1469
     15 C18       -15.4330    8.3140   -0.3740 C.2       1 H5Z         0.0835
     16 C19       -14.1080    8.2620   -0.7740 C.2       1 H5Z         0.0653
     17 C23       -10.5340    9.2870    0.0510 C.ar      1 H5Z         0.1892
     18 C25       -10.5180    9.1410    1.4260 C.ar      1 H5Z         0.1915
     19 C27       -11.6600    8.7190    2.0720 C.ar      1 H5Z         0.1892
     20 C29       -12.8080    8.4530    1.3580 C.ar      1 H5Z         0.1613
     21 C33       -18.2670    9.0670   -1.4840 C.3       1 H5Z         0.1284
     22 F22       -11.6560    9.1740   -1.9590 F         1 H5Z        -0.1917
     23 F24        -9.4550    9.6940   -0.6020 F         1 H5Z        -0.1905
     24 F26        -9.4710    9.3960    2.0980 F         1 H5Z        -0.1897
     25 F28       -11.6490    8.5930    3.3840 F         1 H5Z        -0.1905
     26 F30       -13.8770    8.0210    2.0100 F         1 H5Z        -0.1917
     27 N17       -16.1470    7.8610   -1.4580 N.pl3     1 H5Z        -0.1616
     28 N31       -14.1220    7.7740   -2.0900 N.2       1 H5Z        -0.2199
     29 N32       -15.2960    7.5450   -2.4710 N.2       1 H5Z        -0.0922
     30 O10       -20.2140    7.8240   -0.7420 O.3       1 H5Z        -0.3530
     31 O13       -21.6460    5.4170   -0.2390 O.3       1 H5Z        -0.3924
     32 O15       -17.8940    7.1240    0.7150 O.3       1 H5Z        -0.3857
     33 O34       -17.8000    9.8660   -2.5310 O.3       1 H5Z        -0.3848
     34 S08       -20.7640   10.2070   -1.7060 S.3       1 H5Z        -0.0726
     35 H1        -25.7964    9.8837   -6.1023 H         1 H5Z         0.0378
     36 H2        -26.1567    8.3795   -5.1891 H         1 H5Z         0.0378
     37 H3        -24.9907    8.3435   -6.5551 H         1 H5Z         0.0378
     38 H4        -24.3447   11.3933   -4.8645 H         1 H5Z         0.0540
     39 H5        -22.5384   11.8934   -3.3143 H         1 H5Z         0.0548
     40 H6        -23.7151    7.2352   -4.2749 H         1 H5Z         0.0540
     41 H7        -21.9125    7.7449   -2.7100 H         1 H5Z         0.0548
     42 H8        -19.8447    8.2258   -2.6938 H         1 H5Z         0.0764
     43 H9        -19.7522    6.1885   -1.9136 H         1 H5Z         0.0646
     44 H10       -20.2168    5.9774    1.1087 H         1 H5Z         0.0584
     45 H11       -19.7917    4.6039    0.0318 H         1 H5Z         0.0584
     46 H12       -17.6038    5.7111   -0.7206 H         1 H5Z         0.0654
     47 H13       -17.7659    7.3076   -2.6198 H         1 H5Z         0.0745
     48 H14       -15.8236    8.6418    0.5882 H         1 H5Z         0.1039
     49 H15       -18.0976    9.5453   -0.5080 H         1 H5Z         0.0664
     50 H16       -22.0860    6.2576   -0.1903 H         1 H5Z         0.2095
     51 H17       -16.9630    7.2429    0.8622 H         1 H5Z         0.2100
     52 H18       -18.0136    9.4555   -3.3606 H         1 H5Z         0.2101
@<TRIPOS>BOND
     1    1    2 ar 
     2   16    1 1  
     3    1   20 ar 
     4    2   17 ar 
     5    2   22 1  
     6    4    3 1  
     7    5    4 ar 
     8    7    4 ar 
     9    6    5 ar 
    10    9    6 ar 
    11    8    7 ar 
    12    9    8 ar 
    13   34    9 1  
    14   21   10 1  
    15   10   30 1  
    16   10   34 1  
    17   11   12 1  
    18   13   11 1  
    19   11   30 1  
    20   12   31 1  
    21   14   13 1  
    22   13   32 1  
    23   14   21 1  
    24   27   14 1  
    25   15   16 2  
    26   15   27 1  
    27   16   28 1  
    28   17   18 ar 
    29   17   23 1  
    30   18   19 ar 
    31   18   24 1  
    32   19   20 ar 
    33   19   25 1  
    34   20   26 1  
    35   21   33 1  
    36   27   29 1  
    37   28   29 2  
    38    3   35 1  
    39    3   36 1  
    40    3   37 1  
    41    5   38 1  
    42    6   39 1  
    43    7   40 1  
    44    8   41 1  
    45   10   42 1  
    46   11   43 1  
    47   12   44 1  
    48   12   45 1  
    49   13   46 1  
    50   14   47 1  
    51   15   48 1  
    52   21   49 1  
    53   31   50 1  
    54   32   51 1  
    55   33   52 1  
@<TRIPOS>SUBSTRUCTURE
     1 H5Z         1

