### 
### Created by X-TOOL on Mon Aug  2 16:14:11 2021
### 

@<TRIPOS>MOLECULE
6i75_ligand
   53    56     1     0     0
SMALL
GAST_HUCK


@<TRIPOS>ATOM
      1 C10       -19.4800    6.2670   -0.4690 C.3       1 H5T         0.0730
      2 C17       -13.2160    8.6400   -1.8770 C.2       1 H5T         0.0606
      3 C21       -10.5210    9.2210    0.7580 C.ar      1 H5T         0.1841
      4 C01       -25.2080    9.6570   -5.6070 C.3       1 H5T        -0.0343
      5 C02       -23.9450    9.9120   -4.7840 C.ar      1 H5T        -0.0527
      6 C03       -23.2160    8.8730   -4.1840 C.ar      1 H5T        -0.0663
      7 C04       -22.0610    9.1570   -3.4120 C.ar      1 H5T        -0.0563
      8 C05       -21.5840   10.4800   -3.2960 C.ar      1 H5T         0.0110
      9 C07       -19.0450    9.2180   -2.4080 C.3       1 H5T         0.1452
     10 C09       -18.8740    7.1150   -1.5060 C.3       1 H5T         0.1124
     11 C12       -17.3220    7.2300   -1.3600 C.3       1 H5T         0.1194
     12 C14       -16.8220    8.2110   -2.4370 C.3       1 H5T         0.1465
     13 C16       -14.5290    8.7950   -1.4430 C.2       1 H5T         0.0808
     14 C18       -11.9300    8.9770   -1.2310 C.ar      1 H5T         0.0358
     15 C19       -11.7000    8.9290    0.0890 C.ar      1 H5T         0.1557
     16 C23        -9.3660    9.5200    0.0090 C.ar      1 H5T         0.1493
     17 C25        -9.5490    9.5620   -1.3780 C.ar      1 H5T         0.1841
     18 C27       -10.8000    9.2360   -1.9320 C.ar      1 H5T         0.1557
     19 C31       -17.5420    9.5100   -2.3410 C.3       1 H5T         0.1284
     20 C33       -22.2880   11.5070   -3.8720 C.ar      1 H5T        -0.0563
     21 C34       -23.4350   11.2190   -4.6040 C.ar      1 H5T        -0.0663
     22 F20       -12.7610    8.6040    0.7680 F         1 H5T        -0.1931
     23 F22       -10.4570    9.1310    2.0800 F         1 H5T        -0.1962
     24 F26        -8.5160    9.8720   -2.1640 F         1 H5T        -0.1962
     25 F28       -10.9740    9.2810   -3.2460 F         1 H5T        -0.1931
     26 N15       -15.3910    8.2910   -2.3810 N.pl3     1 H5T        -0.1631
     27 N29       -13.3630    8.0390   -3.1760 N.2       1 H5T        -0.2217
     28 N30       -14.6360    7.8920   -3.4660 N.2       1 H5T        -0.0934
     29 O08       -19.4530    8.3670   -1.3910 O.3       1 H5T        -0.3530
     30 O11       -20.8250    6.0250   -0.6600 O.3       1 H5T        -0.3924
     31 O13       -17.0040    7.7240   -0.0820 O.3       1 H5T        -0.3857
     32 O24        -8.1460    9.7810    0.5770 O.3       1 H5T        -0.3362
     33 O32       -17.1740   10.3470   -3.4370 O.3       1 H5T        -0.3848
     34 S06       -20.0900   10.8100   -2.3740 S.3       1 H5T        -0.0726
     35 H1        -19.3524    6.7647    0.5036 H         1 H5T         0.0584
     36 H2        -18.9525    5.3018   -0.4590 H         1 H5T         0.0584
     37 H3        -25.4266    8.5790   -5.6186 H         1 H5T         0.0378
     38 H4        -25.0522   10.0106   -6.6369 H         1 H5T         0.0378
     39 H5        -26.0539   10.1978   -5.1576 H         1 H5T         0.0378
     40 H6        -23.5385    7.8460   -4.3118 H         1 H5T         0.0540
     41 H7        -21.5403    8.3515   -2.9069 H         1 H5T         0.0548
     42 H8        -19.2372    8.7124   -3.3658 H         1 H5T         0.0764
     43 H9        -19.1013    6.6916   -2.4955 H         1 H5T         0.0646
     44 H10       -16.8553    6.2442   -1.5023 H         1 H5T         0.0654
     45 H11       -17.0763    7.7861   -3.4192 H         1 H5T         0.0744
     46 H12       -14.8268    9.2490   -0.4990 H         1 H5T         0.1019
     47 H13       -17.2949   10.0093   -1.3925 H         1 H5T         0.0664
     48 H14       -21.9539   12.5319   -3.7578 H         1 H5T         0.0548
     49 H15       -23.9687   12.0434   -5.0629 H         1 H5T         0.0540
     50 H16       -21.2970    6.8495   -0.6610 H         1 H5T         0.2095
     51 H17       -17.3146    7.1152    0.5779 H         1 H5T         0.2100
     52 H18        -8.2150    9.7054    1.5215 H         1 H5T         0.2449
     53 H19       -16.2373   10.5034   -3.4140 H         1 H5T         0.2101
@<TRIPOS>BOND
     1   10    1 1  
     2    1   30 1  
     3    2   13 2  
     4   14    2 1  
     5    2   27 1  
     6   15    3 ar 
     7    3   16 ar 
     8    3   23 1  
     9    5    4 1  
    10    6    5 ar 
    11    5   21 ar 
    12    7    6 ar 
    13    8    7 ar 
    14    8   20 ar 
    15   34    8 1  
    16   19    9 1  
    17    9   29 1  
    18    9   34 1  
    19   11   10 1  
    20   10   29 1  
    21   12   11 1  
    22   11   31 1  
    23   12   19 1  
    24   26   12 1  
    25   13   26 1  
    26   14   15 ar 
    27   14   18 ar 
    28   15   22 1  
    29   16   17 ar 
    30   16   32 1  
    31   17   18 ar 
    32   17   24 1  
    33   18   25 1  
    34   19   33 1  
    35   20   21 ar 
    36   26   28 1  
    37   27   28 2  
    38    1   35 1  
    39    1   36 1  
    40    4   37 1  
    41    4   38 1  
    42    4   39 1  
    43    6   40 1  
    44    7   41 1  
    45    9   42 1  
    46   10   43 1  
    47   11   44 1  
    48   12   45 1  
    49   13   46 1  
    50   19   47 1  
    51   20   48 1  
    52   21   49 1  
    53   30   50 1  
    54   31   51 1  
    55   32   52 1  
    56   33   53 1  
@<TRIPOS>SUBSTRUCTURE
     1 H5T         1

