### 
### Created by X-TOOL on Mon Aug  2 16:14:11 2021
### 

@<TRIPOS>MOLECULE
6i76_ligand
   54    57     1     0     0
SMALL
GAST_HUCK


@<TRIPOS>ATOM
      1 N1        -16.1290    7.7790   -1.3180 N.pl3     1 H5N        -0.1061
      2 N3         -8.5930   10.4690    1.8340 N.1       1 H5N        -0.1367
      3 C4        -23.3010   10.5360   -2.6710 C.ar      1 H5N        -0.0563
      4 C5        -23.5520    8.1220   -3.9650 C.ar      1 H5N        -0.0663
      5 C6        -22.4450    8.3660   -3.1710 C.ar      1 H5N        -0.0563
      6 C7        -22.3100    9.5800   -2.5100 C.ar      1 H5N         0.0110
      7 C8        -19.8580    8.4490   -1.5800 C.3       1 H5N         0.1453
      8 C10       -20.2220    5.2730    0.2500 C.3       1 H5N         0.0730
      9 C13       -15.4470    8.1620   -0.2660 C.2       1 H5N         0.1643
     10 C15       -12.9470    8.6690    0.0810 C.ar      1 H5N         0.1489
     11 C17       -10.7360    9.6210    0.1600 C.ar      1 H5N         0.2683
     12 C20       -12.8440    8.4460    1.4390 C.ar      1 H5N         0.2452
     13 C21       -18.3870    8.8080   -1.3980 C.3       1 H5N         0.1305
     14 C1        -25.7600    8.8020   -4.9920 C.3       1 H5N        -0.0343
     15 C11       -18.1020    6.4920   -0.4660 C.3       1 H5N         0.1215
     16 C12       -17.5660    7.5130   -1.4730 C.3       1 H5N         0.1621
     17 C14       -14.1430    8.2850   -0.6660 C.2       1 H5N         0.1729
     18 C16       -11.8610    9.2560   -0.5420 C.ar      1 H5N         0.2452
     19 C18       -10.6270    9.3950    1.5290 C.ar      1 H5N         0.2561
     20 C19       -11.7210    8.8030    2.1480 C.ar      1 H5N         0.2683
     21 C2        -24.5500    9.0680   -4.1270 C.ar      1 H5N        -0.0527
     22 C3        -24.4020   10.2740   -3.4680 C.ar      1 H5N        -0.0663
     23 C9        -19.5900    6.2340   -0.7330 C.3       1 H5N         0.1125
     24 F1        -11.9190    9.4930   -1.8620 F         1 H5N        -0.1584
     25 F2         -9.7210   10.1880   -0.5190 F         1 H5N        -0.1470
     26 F3        -11.6920    8.5730    3.4740 F         1 H5N        -0.1470
     27 F4        -13.8790    7.8730    2.0710 F         1 H5N        -0.1584
     28 N2         -9.4870    9.7480    2.3250 N.2       1 H5N        -0.0131
     29 N4         -7.8730   11.1240    1.2580 N.1       1 H5N        -0.1337
     30 N5        -14.0810    7.9420   -1.9800 N.2       1 H5N        -0.1581
     31 N6        -15.2950    7.6420   -2.3780 N.2       1 H5N        -0.0417
     32 O1        -20.3040    7.4770   -0.6400 O.3       1 H5N        -0.3530
     33 O2        -21.5890    5.0150   -0.0730 O.3       1 H5N        -0.3924
     34 O3        -17.9520    6.9680    0.8680 O.3       1 H5N        -0.3856
     35 O4        -18.0240    9.7450   -2.4190 O.3       1 H5N        -0.3846
     36 S1        -20.9100    9.9430   -1.4730 S.3       1 H5N        -0.0726
     37 H1        -23.2132   11.4934   -2.1703 H         1 H5N         0.0548
     38 H2        -23.6398    7.1679   -4.4720 H         1 H5N         0.0540
     39 H3        -21.6796    7.6059   -3.0645 H         1 H5N         0.0548
     40 H4        -19.9733    8.0205   -2.5865 H         1 H5N         0.0764
     41 H5        -20.1695    5.7082    1.2589 H         1 H5N         0.0584
     42 H6        -19.6653    4.3245    0.2303 H         1 H5N         0.0584
     43 H7        -15.8410    8.3466    0.7323 H         1 H5N         0.1680
     44 H8        -18.2343    9.2736   -0.4132 H         1 H5N         0.0666
     45 H9        -26.4204    9.6816   -4.9792 H         1 H5N         0.0378
     46 H10       -26.3044    7.9291   -4.6026 H         1 H5N         0.0378
     47 H11       -25.4361    8.6017   -6.0240 H         1 H5N         0.0378
     48 H12       -17.5426    5.5516   -0.5785 H         1 H5N         0.0656
     49 H13       -17.7078    7.0866   -2.4770 H         1 H5N         0.0769
     50 H14       -25.1674   11.0337   -3.5781 H         1 H5N         0.0540
     51 H15       -19.6952    5.8219   -1.7474 H         1 H5N         0.0647
     52 H16       -22.0772    5.8298   -0.0531 H         1 H5N         0.2095
     53 H17       -17.0327    7.1310    1.0434 H         1 H5N         0.2100
     54 H18       -18.5561   10.5273   -2.3330 H         1 H5N         0.2101
@<TRIPOS>BOND
     1    9    1 1  
     2    1   16 1  
     3    1   31 1  
     4   28    2 2  
     5    2   29 3  
     6    6    3 ar 
     7    3   22 ar 
     8    5    4 ar 
     9    4   21 ar 
    10    6    5 ar 
    11   36    6 1  
    12   13    7 1  
    13    7   32 1  
    14    7   36 1  
    15   23    8 1  
    16    8   33 1  
    17   17    9 2  
    18   12   10 ar 
    19   10   17 1  
    20   18   10 ar 
    21   11   18 ar 
    22   19   11 ar 
    23   11   25 1  
    24   20   12 ar 
    25   12   27 1  
    26   16   13 1  
    27   13   35 1  
    28   21   14 1  
    29   16   15 1  
    30   15   23 1  
    31   15   34 1  
    32   17   30 1  
    33   18   24 1  
    34   19   20 ar 
    35   19   28 1  
    36   20   26 1  
    37   21   22 ar 
    38   23   32 1  
    39   30   31 2  
    40    3   37 1  
    41    4   38 1  
    42    5   39 1  
    43    7   40 1  
    44    8   41 1  
    45    8   42 1  
    46    9   43 1  
    47   13   44 1  
    48   14   45 1  
    49   14   46 1  
    50   14   47 1  
    51   15   48 1  
    52   16   49 1  
    53   22   50 1  
    54   23   51 1  
    55   33   52 1  
    56   34   53 1  
    57   35   54 1  
@<TRIPOS>SUBSTRUCTURE
     1 H5N         1

