### 
### Created by X-TOOL on Mon Aug  2 16:14:11 2021
### 

@<TRIPOS>MOLECULE
6i77_ligand
   54    57     1     0     0
SMALL
GAST_HUCK


@<TRIPOS>ATOM
      1 C10       -20.3220    5.3210    0.3560 C.3       1 H5Q         0.0730
      2 C17       -14.1760    8.2830   -0.8280 C.2       1 H5Q         0.0592
      3 C21       -11.5640    8.9740    1.9620 C.ar      1 H5Q         0.1731
      4 C01       -25.4310    9.8240   -5.8230 C.3       1 H5Q        -0.0343
      5 C02       -24.3660    9.8850   -4.7750 C.ar      1 H5Q        -0.0527
      6 C03       -23.5840    8.7590   -4.4720 C.ar      1 H5Q        -0.0663
      7 C04       -22.5820    8.7910   -3.4820 C.ar      1 H5Q        -0.0563
      8 C05       -22.3180    9.9670   -2.7380 C.ar      1 H5Q         0.0110
      9 C07       -20.0070    8.5020   -1.5600 C.3       1 H5Q         0.1452
     10 C09       -19.7000    6.2660   -0.6490 C.3       1 H5Q         0.1124
     11 C12       -18.2000    6.5860   -0.4510 C.3       1 H5Q         0.1194
     12 C14       -17.6920    7.6100   -1.5240 C.3       1 H5Q         0.1463
     13 C16       -15.5260    8.3110   -0.4310 C.2       1 H5Q         0.0800
     14 C18       -12.9550    8.7040   -0.1150 C.ar      1 H5Q         0.0338
     15 C19       -12.7670    8.5820    1.2740 C.ar      1 H5Q         0.1530
     16 C23       -10.4260    9.4860    1.3070 C.ar      1 H5Q         0.0985
     17 C25       -10.6030    9.5830   -0.0860 C.ar      1 H5Q         0.1731
     18 C27       -11.8130    9.2000   -0.7510 C.ar      1 H5Q         0.1530
     19 C31       -18.5000    8.9120   -1.4050 C.3       1 H5Q         0.1284
     20 C33       -23.1010   11.0960   -3.0350 C.ar      1 H5Q        -0.0563
     21 C34       -24.1060   11.0490   -4.0340 C.ar      1 H5Q        -0.0663
     22 F20       -13.7740    8.1170    1.9500 F         1 H5Q        -0.1935
     23 F22       -11.5080    8.8170    3.2830 F         1 H5Q        -0.1987
     24 F26        -9.5840   10.0600   -0.8170 F         1 H5Q        -0.1987
     25 F28       -11.8920    9.3240   -2.0620 F         1 H5Q        -0.1935
     26 N15       -16.2640    7.7560   -1.4890 N.pl3     1 H5Q        -0.1636
     27 N24        -9.2480    9.8650    1.9570 N.pl3     1 H5Q        -0.3392
     28 N29       -14.2010    7.7140   -2.1220 N.2       1 H5Q        -0.2223
     29 N30       -15.3870    7.4260   -2.4960 N.2       1 H5Q        -0.0938
     30 O08       -20.4260    7.5430   -0.6280 O.3       1 H5Q        -0.3530
     31 O11       -21.6380    5.0790   -0.0520 O.3       1 H5Q        -0.3924
     32 O13       -17.9810    7.0200    0.8180 O.3       1 H5Q        -0.3857
     33 O32       -18.0990    9.7360   -2.4720 O.3       1 H5Q        -0.3848
     34 S06       -21.0020    9.9760   -1.4610 S.3       1 H5Q        -0.0726
     35 H1        -20.3173    5.7798    1.3557 H         1 H5Q         0.0584
     36 H2        -19.7578    4.3771    0.3830 H         1 H5Q         0.0584
     37 H3        -25.4511    8.8178   -6.2671 H         1 H5Q         0.0378
     38 H4        -25.2177   10.5663   -6.6062 H         1 H5Q         0.0378
     39 H5        -26.4076   10.0429   -5.3666 H         1 H5Q         0.0378
     40 H6        -23.7563    7.8374   -5.0161 H         1 H5Q         0.0540
     41 H7        -22.0011    7.8971   -3.2857 H         1 H5Q         0.0548
     42 H8        -20.1363    8.0639   -2.5607 H         1 H5Q         0.0764
     43 H9        -19.8134    5.8059   -1.6417 H         1 H5Q         0.0646
     44 H10       -17.6332    5.6534   -0.5890 H         1 H5Q         0.0654
     45 H11       -17.9273    7.1882   -2.5123 H         1 H5Q         0.0744
     46 H12       -15.9206    8.6887    0.5111 H         1 H5Q         0.1012
     47 H13       -18.3265    9.4114   -0.4404 H         1 H5Q         0.0664
     48 H14       -22.9336   12.0185   -2.4909 H         1 H5Q         0.0548
     49 H15       -24.6918   11.9393   -4.2319 H         1 H5Q         0.0540
     50 H16        -9.1718    9.7729    2.9800 H         1 H5Q         0.1693
     51 H17        -8.4562   10.2363    1.4129 H         1 H5Q         0.1693
     52 H18       -22.1165    5.8993   -0.0771 H         1 H5Q         0.2095
     53 H19       -17.0492    7.1493    0.9509 H         1 H5Q         0.2100
     54 H20       -17.1673    9.9087   -2.4045 H         1 H5Q         0.2101
@<TRIPOS>BOND
     1   10    1 1  
     2    1   31 1  
     3    2   13 2  
     4   14    2 1  
     5    2   28 1  
     6   15    3 ar 
     7    3   16 ar 
     8    3   23 1  
     9    5    4 1  
    10    6    5 ar 
    11    5   21 ar 
    12    7    6 ar 
    13    8    7 ar 
    14    8   20 ar 
    15   34    8 1  
    16   19    9 1  
    17    9   30 1  
    18    9   34 1  
    19   11   10 1  
    20   10   30 1  
    21   12   11 1  
    22   11   32 1  
    23   12   19 1  
    24   26   12 1  
    25   13   26 1  
    26   14   15 ar 
    27   14   18 ar 
    28   15   22 1  
    29   16   17 ar 
    30   16   27 1  
    31   17   18 ar 
    32   17   24 1  
    33   18   25 1  
    34   19   33 1  
    35   20   21 ar 
    36   26   29 1  
    37   28   29 2  
    38    1   35 1  
    39    1   36 1  
    40    4   37 1  
    41    4   38 1  
    42    4   39 1  
    43    6   40 1  
    44    7   41 1  
    45    9   42 1  
    46   10   43 1  
    47   11   44 1  
    48   12   45 1  
    49   13   46 1  
    50   19   47 1  
    51   20   48 1  
    52   21   49 1  
    53   27   50 1  
    54   27   51 1  
    55   31   52 1  
    56   32   53 1  
    57   33   54 1  
@<TRIPOS>SUBSTRUCTURE
     1 H5Q         1

