### 
### Created by X-TOOL on Mon Aug  2 16:14:11 2021
### 

@<TRIPOS>MOLECULE
6i78_ligand
   57    60     1     0     0
SMALL
GAST_HUCK


@<TRIPOS>ATOM
      1 C19       -20.3260    8.2530   -1.5500 C.3       1 H5H         0.1452
      2 C22       -23.5400    7.5720   -1.7670 C.ar      1 H5H        -0.0563
      3 C21       -22.8210    8.5140   -2.4910 C.ar      1 H5H         0.0110
      4 C16       -20.3950    5.3110    0.4840 C.3       1 H5H         0.0730
      5 C12       -18.0400    7.5330   -1.5440 C.3       1 H5H         0.1463
      6 C13       -18.4090    6.4790   -0.5080 C.3       1 H5H         0.1194
      7 C23       -24.4340    6.7360   -2.4080 C.ar      1 H5H        -0.0663
      8 C15       -19.8950    6.1860   -0.6110 C.3       1 H5H         0.1124
      9 C10       -15.8670    8.3530   -0.5210 C.2       1 H5H         0.0800
     10 C01        -9.3640   11.1860    2.3720 C.3       1 H5H         0.0107
     11 C03       -10.8930    9.6590    0.8850 C.ar      1 H5H         0.1008
     12 C04       -11.1440    9.8460   -0.4720 C.ar      1 H5H         0.1733
     13 C06       -12.3180    9.4440   -1.0720 C.ar      1 H5H         0.1530
     14 C08       -13.3210    8.8110   -0.3650 C.ar      1 H5H         0.0338
     15 C09       -14.5780    8.3580   -0.9900 C.2       1 H5H         0.0592
     16 C24       -24.6450    6.8180   -3.7790 C.ar      1 H5H        -0.0527
     17 C25       -25.6060    5.8910   -4.4740 C.3       1 H5H        -0.0343
     18 C26       -23.9280    7.7740   -4.4890 C.ar      1 H5H        -0.0663
     19 C27       -23.0230    8.6110   -3.8610 C.ar      1 H5H        -0.0563
     20 C28       -18.9060    8.8130   -1.4700 C.3       1 H5H         0.1284
     21 C32       -13.0800    8.6160    0.9810 C.ar      1 H5H         0.1530
     22 C34       -11.9210    9.0410    1.5880 C.ar      1 H5H         0.1733
     23 F05       -10.2120   10.4260   -1.2460 F         1 H5H        -0.1987
     24 F07       -12.4910    9.6480   -2.3850 F         1 H5H        -0.1935
     25 F33       -14.0170    8.0210    1.7200 F         1 H5H        -0.1935
     26 F35       -11.8280    8.8910    2.9090 F         1 H5H        -0.1987
     27 N02        -9.6330   10.0400    1.5190 N.pl3     1 H5H        -0.3281
     28 N11       -16.5950    7.8070   -1.5060 N.pl3     1 H5H        -0.1636
     29 N30       -15.8170    7.4830   -2.5610 N.2       1 H5H        -0.0938
     30 N31       -14.5920    7.8220   -2.2440 N.2       1 H5H        -0.2223
     31 O14       -18.1310    6.9700    0.7890 O.3       1 H5H        -0.3857
     32 O17       -21.7500    5.0570    0.2490 O.3       1 H5H        -0.3924
     33 O18       -20.5870    7.4240   -0.4410 O.3       1 H5H        -0.3530
     34 O29       -18.6430    9.6180   -2.6070 O.3       1 H5H        -0.3848
     35 S20       -21.6210    9.5010   -1.6260 S.3       1 H5H        -0.0726
     36 H1        -20.3887    7.6469   -2.4658 H         1 H5H         0.0764
     37 H2        -23.3993    7.4923   -0.6951 H         1 H5H         0.0548
     38 H3        -20.2727    5.8180    1.4525 H         1 H5H         0.0584
     39 H4        -19.8337    4.3650    0.4919 H         1 H5H         0.0584
     40 H5        -18.2475    7.0868   -2.5278 H         1 H5H         0.0744
     41 H6        -17.8320    5.5604   -0.6902 H         1 H5H         0.0654
     42 H7        -24.9820    6.0011   -1.8295 H         1 H5H         0.0540
     43 H8        -20.1171    5.7341   -1.5890 H         1 H5H         0.0646
     44 H9        -16.2224    8.7143    0.4429 H         1 H5H         0.1012
     45 H10        -8.3081   11.1740    2.6800 H         1 H5H         0.0472
     46 H11       -10.0065   11.1384    3.2636 H         1 H5H         0.0472
     47 H12        -9.5738   12.1128    1.8179 H         1 H5H         0.0472
     48 H13       -25.6249    6.1215   -5.5494 H         1 H5H         0.0378
     49 H14       -26.6134    6.0240   -4.0527 H         1 H5H         0.0378
     50 H15       -25.2819    4.8500   -4.3279 H         1 H5H         0.0378
     51 H16       -24.0813    7.8657   -5.5582 H         1 H5H         0.0540
     52 H17       -22.4711    9.3432   -4.4392 H         1 H5H         0.0548
     53 H18       -18.7351    9.3792   -0.5425 H         1 H5H         0.0664
     54 H19        -8.8330    9.4169    1.3385 H         1 H5H         0.1726
     55 H20       -17.2024    7.1565    0.8635 H         1 H5H         0.2100
     56 H21       -22.2280    5.8779    0.2399 H         1 H5H         0.2095
     57 H22       -17.7230    9.8545   -2.6202 H         1 H5H         0.2101
@<TRIPOS>BOND
     1   20    1 1  
     2    1   33 1  
     3    1   35 1  
     4    3    2 ar 
     5    2    7 ar 
     6    3   19 ar 
     7   35    3 1  
     8    8    4 1  
     9    4   32 1  
    10    5    6 1  
    11    5   20 1  
    12   28    5 1  
    13    6    8 1  
    14    6   31 1  
    15    7   16 ar 
    16    8   33 1  
    17   15    9 2  
    18    9   28 1  
    19   27   10 1  
    20   12   11 ar 
    21   11   22 ar 
    22   11   27 1  
    23   13   12 ar 
    24   12   23 1  
    25   14   13 ar 
    26   13   24 1  
    27   14   15 1  
    28   14   21 ar 
    29   15   30 1  
    30   16   17 1  
    31   16   18 ar 
    32   18   19 ar 
    33   20   34 1  
    34   21   22 ar 
    35   21   25 1  
    36   22   26 1  
    37   28   29 1  
    38   29   30 2  
    39    1   36 1  
    40    2   37 1  
    41    4   38 1  
    42    4   39 1  
    43    5   40 1  
    44    6   41 1  
    45    7   42 1  
    46    8   43 1  
    47    9   44 1  
    48   10   45 1  
    49   10   46 1  
    50   10   47 1  
    51   17   48 1  
    52   17   49 1  
    53   17   50 1  
    54   18   51 1  
    55   19   52 1  
    56   20   53 1  
    57   27   54 1  
    58   31   55 1  
    59   32   56 1  
    60   34   57 1  
@<TRIPOS>SUBSTRUCTURE
     1 H5H         1

