### 
### Created by X-TOOL on Mon Aug  2 16:11:44 2021
### 

@<TRIPOS>MOLECULE
6i7a_ligand
   91    91     1     0     0
SMALL
GAST_HUCK


@<TRIPOS>ATOM
      1 N         -15.4950   -8.3350    2.2960 N.4       1 LYS         0.2377
      2 CA        -14.9010   -8.6250    3.5950 C.3       1 LYS         0.0621
      3 C         -14.5170   -7.3380    4.3170 C.2       1 LYS         0.2264
      4 O         -14.5460   -6.2530    3.7340 O.2       1 LYS        -0.3907
      5 CB        -13.6750   -9.5280    3.4370 C.3       1 LYS        -0.0040
      6 N         -14.1620   -7.4650    5.5910 N.am      1 LYS        -0.2613
      7 CA        -13.7330   -6.3160    6.3710 C.3       1 LYS         0.1283
      8 C         -12.2740   -5.9880    6.0800 C.2       1 LYS         0.2037
      9 O         -11.4790   -6.8570    5.7090 O.2       1 LYS        -0.3944
     10 CB        -13.9230   -6.5790    7.8650 C.3       1 LYS        -0.0244
     11 N         -11.9250   -4.7150    6.2510 N.am      1 LYS        -0.2622
     12 CA        -10.5760   -4.2370    5.9960 C.3       1 LYS         0.1423
     13 C         -10.0490   -3.5060    7.2230 C.2       1 LYS         0.2057
     14 O         -10.7970   -3.1540    8.1390 O.2       1 LYS        -0.3943
     15 CB        -10.5300   -3.3150    4.7700 C.3       1 LYS         0.0406
     16 CG        -11.2360   -1.9940    5.0080 C.2       1 LYS         0.0393
     17 OD1       -12.4810   -1.9600    4.9270 O.co2     1 LYS        -0.5688
     18 OD2       -10.5450   -0.9900    5.2800 O.co2     1 LYS        -0.5688
     19 N          -8.7360   -3.2780    7.2280 N.am      1 LYS        -0.2612
     20 CA         -8.0610   -2.5530    8.2930 C.3       1 LYS         0.1565
     21 C          -7.1660   -1.4800    7.6880 C.2       1 LYS         0.2065
     22 O          -6.7460   -1.5800    6.5320 O.2       1 LYS        -0.3943
     23 CB         -7.2240   -3.4950    9.1770 C.3       1 LYS         0.0924
     24 OG1        -6.5880   -2.7430   10.2180 O.3       1 LYS        -0.3874
     25 CG2        -6.1620   -4.2100    8.3470 C.3       1 LYS        -0.0346
     26 N          -6.8890   -0.4440    8.4770 N.am      1 LYS        -0.2613
     27 CA         -5.9860    0.6280    8.0810 C.3       1 LYS         0.1565
     28 C          -4.6110    0.4870    8.7220 C.2       1 LYS         0.2065
     29 O          -3.8320    1.4450    8.7270 O.2       1 LYS        -0.3943
     30 CB         -6.5930    1.9910    8.4300 C.3       1 LYS         0.0924
     31 OG1        -6.4040    2.2640    9.8230 O.3       1 LYS        -0.3874
     32 CG2        -8.0840    2.0090    8.1150 C.3       1 LYS        -0.0346
     33 N          -4.2950   -0.6940    9.2340 N.am      1 LYS        -0.2613
     34 CA         -3.1320   -0.9880   10.0590 C.3       1 LYS         0.1566
     35 C          -2.4990   -2.2720    9.5210 C.2       1 LYS         0.2084
     36 O          -3.1850   -3.0350    8.8280 O.2       1 LYS        -0.3941
     37 CB         -3.5950   -1.1180   11.5170 C.3       1 LYS         0.0924
     38 OG1        -4.1690    0.1230   11.9510 O.3       1 LYS        -0.3874
     39 CG2        -2.4740   -1.5060   12.4620 C.3       1 LYS        -0.0346
     40 N          -1.1930   -2.5370    9.7500 N.am      1 LYS        -0.2555
     41 CA         -0.7410   -3.8920    9.4060 C.3       1 LYS         0.0972
     42 C          -1.2490   -4.9390   10.3910 C.2       1 LYS         0.0603
     43 O          -1.0270   -4.7840   11.5910 O.co2     1 LYS        -0.5666
     44 CB          0.7900   -3.7820    9.4490 C.3       1 LYS        -0.0159
     45 CG          1.0840   -2.5800   10.2740 C.3       1 LYS        -0.0288
     46 CD         -0.0640   -1.6400   10.0620 C.3       1 LYS         0.0362
     47 OXT        -1.8670   -5.9110    9.9600 O.co2     1 LYS        -0.5666
     48 H1        -15.7402   -9.1990    1.8383 H         1 LYS         0.2015
     49 H2        -14.8321   -7.8305    1.7285 H         1 LYS         0.2015
     50 H3        -16.3235   -7.7751    2.4228 H         1 LYS         0.2015
     51 H4        -15.6471   -9.1553    4.2050 H         1 LYS         0.1095
     52 H5        -13.2420   -9.7348    4.4268 H         1 LYS         0.0310
     53 H6        -12.9269   -9.0238    2.8076 H         1 LYS         0.0310
     54 H7        -13.9751  -10.4742    2.9632 H         1 LYS         0.0310
     55 H8        -14.1905   -8.3674    6.0210 H         1 LYS         0.1884
     56 H9        -14.3503   -5.4512    6.0863 H         1 LYS         0.0797
     57 H10       -13.5931   -5.6992    8.4370 H         1 LYS         0.0277
     58 H11       -13.3265   -7.4542    8.1620 H         1 LYS         0.0277
     59 H12       -14.9860   -6.7727    8.0710 H         1 LYS         0.0277
     60 H13       -12.6156   -4.0640    6.5662 H         1 LYS         0.1884
     61 H14        -9.9307   -5.1059    5.7997 H         1 LYS         0.0819
     62 H15       -11.0151   -3.8267    3.9257 H         1 LYS         0.0478
     63 H16        -9.4780   -3.1124    4.5206 H         1 LYS         0.0478
     64 H17        -8.1895   -3.6213    6.4641 H         1 LYS         0.1884
     65 H18        -8.8216   -2.0686    8.9230 H         1 LYS         0.0826
     66 H19        -7.8897   -4.2452    9.6287 H         1 LYS         0.0639
     67 H20        -7.2504   -2.3174   10.7497 H         1 LYS         0.2101
     68 H21        -5.5763   -4.8768    8.9969 H         1 LYS         0.0257
     69 H22        -5.4941   -3.4667    7.8872 H         1 LYS         0.0257
     70 H23        -6.6499   -4.8020    7.5586 H         1 LYS         0.0257
     71 H24        -7.3187   -0.4000    9.3789 H         1 LYS         0.1884
     72 H25        -5.8579    0.5763    6.9897 H         1 LYS         0.0826
     73 H26        -6.0903    2.7689    7.8365 H         1 LYS         0.0639
     74 H27        -6.8303    1.5887   10.3376 H         1 LYS         0.2101
     75 H28        -8.5011    2.9939    8.3718 H         1 LYS         0.0257
     76 H29        -8.5925    1.2308    8.7031 H         1 LYS         0.0257
     77 H30        -8.2346    1.8154    7.0427 H         1 LYS         0.0257
     78 H31        -4.9133   -1.4543    9.0350 H         1 LYS         0.1884
     79 H32        -2.4018   -0.1684    9.9873 H         1 LYS         0.0826
     80 H33        -4.3666   -1.9007   11.5614 H         1 LYS         0.0639
     81 H34        -4.4547    0.0401   12.8532 H         1 LYS         0.2101
     82 H35        -2.8679   -1.5826   13.4862 H         1 LYS         0.0257
     83 H36        -1.6850   -0.7402   12.4290 H         1 LYS         0.0257
     84 H37        -2.0561   -2.4765   12.1563 H         1 LYS         0.0257
     85 H38        -1.0799   -4.1625    8.3951 H         1 LYS         0.0728
     86 H39         1.1944   -3.6584    8.4335 H         1 LYS         0.0306
     87 H40         1.2263   -4.6801    9.9106 H         1 LYS         0.0306
     88 H41         2.0249   -2.1133    9.9472 H         1 LYS         0.0286
     89 H42         1.1608   -2.8554   11.3362 H         1 LYS         0.0286
     90 H43        -0.2663   -1.0556   10.9717 H         1 LYS         0.0524
     91 H44         0.1377   -0.9563    9.2242 H         1 LYS         0.0524
@<TRIPOS>BOND
     1    1    2 1  
     2    2    3 1  
     3    2    5 1  
     4    3    4 2  
     5    3    6 am 
     6    6    7 1  
     7    7    8 1  
     8    7   10 1  
     9    8    9 2  
    10    8   11 am 
    11   11   12 1  
    12   12   13 1  
    13   12   15 1  
    14   13   14 2  
    15   13   19 am 
    16   15   16 1  
    17   16   17 ar 
    18   16   18 ar 
    19   19   20 1  
    20   20   21 1  
    21   20   23 1  
    22   21   22 2  
    23   21   26 am 
    24   23   24 1  
    25   23   25 1  
    26   26   27 1  
    27   27   28 1  
    28   27   30 1  
    29   28   29 2  
    30   28   33 am 
    31   30   31 1  
    32   30   32 1  
    33   33   34 1  
    34   34   35 1  
    35   34   37 1  
    36   35   36 2  
    37   35   40 am 
    38   37   38 1  
    39   37   39 1  
    40   40   41 1  
    41   40   46 1  
    42   41   42 1  
    43   41   44 1  
    44   42   43 ar 
    45   42   47 ar 
    46   44   45 1  
    47   45   46 1  
    48    1   48 1  
    49    1   49 1  
    50    1   50 1  
    51    2   51 1  
    52    5   52 1  
    53    5   53 1  
    54    5   54 1  
    55    6   55 1  
    56    7   56 1  
    57   10   57 1  
    58   10   58 1  
    59   10   59 1  
    60   11   60 1  
    61   12   61 1  
    62   15   62 1  
    63   15   63 1  
    64   19   64 1  
    65   20   65 1  
    66   23   66 1  
    67   24   67 1  
    68   25   68 1  
    69   25   69 1  
    70   25   70 1  
    71   26   71 1  
    72   27   72 1  
    73   30   73 1  
    74   31   74 1  
    75   32   75 1  
    76   32   76 1  
    77   32   77 1  
    78   33   78 1  
    79   34   79 1  
    80   37   80 1  
    81   38   81 1  
    82   39   82 1  
    83   39   83 1  
    84   39   84 1  
    85   41   85 1  
    86   44   86 1  
    87   44   87 1  
    88   45   88 1  
    89   45   89 1  
    90   46   90 1  
    91   46   91 1  
@<TRIPOS>SUBSTRUCTURE
     1 LYS         1

