### 
### Created by X-TOOL on Mon Aug  2 16:14:11 2021
### 

@<TRIPOS>MOLECULE
6i8b_ligand
  115   122     1     0     0
SMALL
GAST_HUCK


@<TRIPOS>ATOM
      1 N1         22.2730   21.6800   30.5540 N.pl3     1 H7T        -0.2607
      2 N3         12.3990   14.8020   39.8360 N.pl3     1 H7T        -0.1622
      3 C4         20.9850   21.3580   30.9780 C.ar      1 H7T         0.1425
      4 C5         19.9430   22.2440   31.2150 C.ar      1 H7T         0.0871
      5 C6         18.7330   21.7360   31.6510 C.ar      1 H7T         0.2413
      6 C7         17.8750   23.9010   32.1920 C.3       1 H7T         0.0907
      7 C8         16.6290   24.4670   32.8140 C.3       1 H7T         0.0181
      8 C10        14.7450   22.2510   32.9580 C.3       1 H7T        -0.0037
      9 C13        11.9590   19.6980   33.6760 C.ar      1 H7T        -0.0464
     10 C15        11.9990   17.8320   36.8060 C.3       1 H7T         0.0754
     11 C17        11.3710   15.9880   38.3720 C.2       1 H7T         0.0397
     12 C20        13.2370   14.3950   42.1140 C.2       1 H7T         0.2122
     13 C21        14.0180   14.0100   44.4050 C.3       1 H7T         0.0342
     14 C22        15.3490   14.5090   44.9340 C.3       1 H7T        -0.0294
     15 C24        17.8300   14.0400   45.1210 C.3       1 H7T        -0.0096
     16 C26        18.6200   12.2170   47.3470 C.3       1 H7T        -0.0317
     17 C28        19.0040   12.9290   49.4440 C.3       1 H7T        -0.0077
     18 N          24.1820   20.4670   30.0240 N.pl3     1 H7T        -0.3623
     19 C          22.0090   18.2950   29.7420 C.3       1 H7T        -0.0887
     20 O          17.6390   22.5160   31.8980 O.3       1 H7T        -0.2672
     21 C1         22.1470   19.3200   30.8820 C.3       1 H7T        -0.0018
     22 C11        13.8380   21.1970   33.5220 C.ar      1 H7T        -0.0024
     23 C12        12.6820   20.6500   32.9800 C.ar      1 H7T        -0.0700
     24 C14        12.3960   19.2860   34.9270 C.ar      1 H7T         0.0778
     25 C16        10.9460   16.8280   37.2140 C.3       1 H7T         0.0092
     26 C18        12.5980   15.4970   38.7080 C.2       1 H7T         0.0721
     27 C19        13.3640   14.0590   40.6300 C.3       1 H7T         0.1634
     28 C2         22.6990   18.6560   32.1570 C.3       1 H7T        -0.0887
     29 C23        16.4780   13.5420   44.6070 C.3       1 H7T        -0.0326
     30 C25        17.8630   14.3790   46.6050 C.3       1 H7T        -0.0316
     31 C27        18.9270   11.7280   48.7350 C.3       1 H7T        -0.0077
     32 C29        17.7800   13.6810   48.9610 C.3       1 H7T        -0.0317
     33 C3         22.9360   20.5470   30.4750 C.cat     1 H7T         0.0480
     34 C30        16.5000   13.2920   43.1040 C.3       1 H7T        -0.0294
     35 C31        15.1420   12.8290   42.5860 C.3       1 H7T         0.0342
     36 C32        13.5460   19.8290   35.4810 C.ar      1 H7T        -0.0330
     37 C33        14.2690   20.7830   34.7760 C.ar      1 H7T         0.0000
     38 C34        15.5390   21.4820   35.1620 C.3       1 H7T        -0.0014
     39 C35        18.5660   20.3470   31.8560 C.ar      1 H7T         0.2705
     40 C36        17.0820   18.6300   32.7590 C.3       1 H7T         0.1052
     41 C37        16.3710   17.9620   31.6070 C.3       1 H7T        -0.0069
     42 C38        15.1380   17.1750   31.9020 C.3       1 H7T        -0.0469
     43 C39        15.0350   18.4760   31.1800 C.3       1 H7T        -0.0469
     44 C40        19.6090   19.4730   31.5930 C.ar      1 H7T         0.0792
     45 C41        20.8210   19.9890   31.1630 C.ar      1 H7T         0.0378
     46 C9         16.2710   23.7830   34.1230 C.3       1 H7T        -0.0267
     47 N2         15.8250   22.3930   33.9750 N.4       1 H7T         0.2555
     48 N4         14.0810   13.7720   42.9610 N.am      1 H7T        -0.2707
     49 N5         17.6330   13.2840   47.5500 N.4       1 H7T         0.2352
     50 N6         11.1090   14.8500   40.2080 N.2       1 H7T        -0.0997
     51 N7         10.4830   15.5750   39.3120 N.2       1 H7T        -0.2263
     52 O1         11.6200   18.3190   35.5140 O.3       1 H7T        -0.3226
     53 O2         12.4090   15.2050   42.5000 O.2       1 H7T        -0.3935
     54 O3         17.3510   19.9910   32.3900 O.3       1 H7T        -0.2319
     55 H1         22.6348   22.6212   30.3437 H         1 H7T         0.2392
     56 H2         20.0747   23.3090   31.0619 H         1 H7T         0.0781
     57 H3         18.7172   23.9947   32.8934 H         1 H7T         0.0649
     58 H4         18.1082   24.4442   31.2644 H         1 H7T         0.0649
     59 H5         15.7938   24.3401   32.1095 H         1 H7T         0.0345
     60 H6         16.7862   25.5384   33.0071 H         1 H7T         0.0345
     61 H7         14.2051   23.2006   32.8284 H         1 H7T         0.0943
     62 H8         15.1604   21.9305   31.9912 H         1 H7T         0.0943
     63 H9         11.0571   19.2766   33.2471 H         1 H7T         0.0468
     64 H10        12.9855   17.3481   36.7549 H         1 H7T         0.0628
     65 H11        12.0340   18.6605   37.5287 H         1 H7T         0.0628
     66 H12        13.2438   14.7636   44.6115 H         1 H7T         0.0522
     67 H13        13.7591   13.0695   44.9132 H         1 H7T         0.0522
     68 H14        15.2800   14.6214   46.0260 H         1 H7T         0.0287
     69 H15        15.5714   15.4851   44.4782 H         1 H7T         0.0287
     70 H16        18.0981   14.9456   44.5571 H         1 H7T         0.0319
     71 H17        18.5779   13.2557   44.9324 H         1 H7T         0.0319
     72 H18        18.1984   11.4077   46.7328 H         1 H7T         0.0814
     73 H19        19.5259   12.6108   46.8631 H         1 H7T         0.0814
     74 H20        19.9270   13.4753   49.1996 H         1 H7T         0.0319
     75 H21        18.9585   12.7527   50.5288 H         1 H7T         0.0319
     76 H22        24.6570   19.5540   29.9824 H         1 H7T         0.1741
     77 H23        24.6737   21.3179   29.7157 H         1 H7T         0.1741
     78 H24        22.9840   17.8213   29.5548 H         1 H7T         0.0115
     79 H25        21.6681   18.8055   28.8292 H         1 H7T         0.0115
     80 H26        21.2764   17.5257   30.0273 H         1 H7T         0.0115
     81 H27        12.3431   20.9723   32.0021 H         1 H7T         0.0513
     82 H28        10.7377   16.1687   36.3584 H         1 H7T         0.0406
     83 H29        10.0300   17.3709   37.4902 H         1 H7T         0.0406
     84 H30        13.5368   15.6391   38.1747 H         1 H7T         0.0900
     85 H31        14.3790   14.3132   40.2906 H         1 H7T         0.0893
     86 H32        13.1897   12.9819   40.4903 H         1 H7T         0.0893
     87 H33        22.7874   19.4092   32.9538 H         1 H7T         0.0115
     88 H34        23.6896   18.2263   31.9472 H         1 H7T         0.0115
     89 H35        22.0143   17.8583   32.4809 H         1 H7T         0.0115
     90 H36        16.2647   12.5868   45.1091 H         1 H7T         0.0304
     91 H37        17.0902   15.1403   46.7872 H         1 H7T         0.0814
     92 H38        18.8540   14.8025   46.8251 H         1 H7T         0.0814
     93 H39        19.8810   11.1813   48.7664 H         1 H7T         0.0319
     94 H40        18.1227   11.0846   49.1212 H         1 H7T         0.0319
     95 H41        17.9332   14.7670   49.0449 H         1 H7T         0.0814
     96 H42        16.8916   13.3902   49.5408 H         1 H7T         0.0814
     97 H43        17.2483   12.5167   42.8831 H         1 H7T         0.0287
     98 H44        16.7768   14.2254   42.5919 H         1 H7T         0.0287
     99 H45        14.9123   11.8420   43.0137 H         1 H7T         0.0522
    100 H46        15.1832   12.7529   41.4894 H         1 H7T         0.0522
    101 H47        13.8797   19.5097   36.4617 H         1 H7T         0.0464
    102 H48        16.3557   20.7596   35.3077 H         1 H7T         0.0964
    103 H49        15.3998   22.0686   36.0820 H         1 H7T         0.0964
    104 H50        18.0269   18.1068   32.9675 H         1 H7T         0.0694
    105 H51        16.4442   18.6060   33.6549 H         1 H7T         0.0694
    106 H52        17.0991   17.6111   30.8609 H         1 H7T         0.0332
    107 H53        14.7743   17.0902   32.9367 H         1 H7T         0.0269
    108 H54        14.9461   16.2330   31.3675 H         1 H7T         0.0269
    109 H55        14.7676   18.4933   30.1131 H         1 H7T         0.0269
    110 H56        14.5959   19.3505   31.6823 H         1 H7T         0.0269
    111 H57        19.4789   18.4045   31.7214 H         1 H7T         0.1217
    112 H58        15.4623   24.3553   34.6010 H         1 H7T         0.0816
    113 H59        17.1597   23.7926   34.7712 H         1 H7T         0.0816
    114 H60        16.6306   21.9571   33.5541 H         1 H7T         0.2059
    115 H61        16.7028   12.9261   47.3995 H         1 H7T         0.2033
@<TRIPOS>BOND
     1    3    1 1  
     2    1   33 ar 
     3   26    2 1  
     4    2   27 1  
     5    2   50 1  
     6    4    3 ar 
     7    3   45 ar 
     8    5    4 ar 
     9   20    5 1  
    10    5   39 ar 
    11    7    6 1  
    12    6   20 1  
    13   46    7 1  
    14    8   22 1  
    15   47    8 1  
    16   23    9 ar 
    17   24    9 ar 
    18   10   25 1  
    19   52   10 1  
    20   25   11 1  
    21   11   26 2  
    22   11   51 1  
    23   27   12 1  
    24   12   48 am 
    25   12   53 2  
    26   13   14 1  
    27   48   13 1  
    28   14   29 1  
    29   29   15 1  
    30   15   30 1  
    31   16   31 1  
    32   49   16 1  
    33   17   31 1  
    34   32   17 1  
    35   33   18 ar 
    36   21   19 1  
    37   21   28 1  
    38   21   33 1  
    39   45   21 1  
    40   22   23 ar 
    41   37   22 ar 
    42   36   24 ar 
    43   24   52 1  
    44   34   29 1  
    45   30   49 1  
    46   49   32 1  
    47   35   34 1  
    48   48   35 1  
    49   37   36 ar 
    50   38   37 1  
    51   47   38 1  
    52   39   44 ar 
    53   39   54 1  
    54   40   41 1  
    55   54   40 1  
    56   41   42 1  
    57   41   43 1  
    58   43   42 1  
    59   44   45 ar 
    60   46   47 1  
    61   50   51 2  
    62    1   55 1  
    63    4   56 1  
    64    6   57 1  
    65    6   58 1  
    66    7   59 1  
    67    7   60 1  
    68    8   61 1  
    69    8   62 1  
    70    9   63 1  
    71   10   64 1  
    72   10   65 1  
    73   13   66 1  
    74   13   67 1  
    75   14   68 1  
    76   14   69 1  
    77   15   70 1  
    78   15   71 1  
    79   16   72 1  
    80   16   73 1  
    81   17   74 1  
    82   17   75 1  
    83   18   76 1  
    84   18   77 1  
    85   19   78 1  
    86   19   79 1  
    87   19   80 1  
    88   23   81 1  
    89   25   82 1  
    90   25   83 1  
    91   26   84 1  
    92   27   85 1  
    93   27   86 1  
    94   28   87 1  
    95   28   88 1  
    96   28   89 1  
    97   29   90 1  
    98   30   91 1  
    99   30   92 1  
   100   31   93 1  
   101   31   94 1  
   102   32   95 1  
   103   32   96 1  
   104   34   97 1  
   105   34   98 1  
   106   35   99 1  
   107   35  100 1  
   108   36  101 1  
   109   38  102 1  
   110   38  103 1  
   111   40  104 1  
   112   40  105 1  
   113   41  106 1  
   114   42  107 1  
   115   42  108 1  
   116   43  109 1  
   117   43  110 1  
   118   44  111 1  
   119   46  112 1  
   120   46  113 1  
   121   47  114 1  
   122   49  115 1  
@<TRIPOS>SUBSTRUCTURE
     1 H7T         1

