### 
### Created by X-TOOL on Mon Aug  2 16:14:11 2021
### 

@<TRIPOS>MOLECULE
6i8l_ligand
   67    72     1     0     0
SMALL
GAST_HUCK


@<TRIPOS>ATOM
      1 N1         -6.2000  -36.1950   -7.6240 N.pl3     1 H7Q        -0.2607
      2 C4         -5.5880  -39.2050   -5.8660 C.3       1 H7Q        -0.0763
      3 C5         -5.4710  -37.2940   -7.6260 C.cat     1 H7Q         0.0485
      4 C6         -7.4670  -36.6000   -7.1950 C.ar      1 H7Q         0.1426
      5 C7         -8.5640  -35.7750   -6.9730 C.ar      1 H7Q         0.0871
      6 C8         -9.7280  -36.3380   -6.5050 C.ar      1 H7Q         0.2413
      7 C10        -8.6800  -38.5450   -6.4210 C.ar      1 H7Q         0.0792
      8 C13       -11.8520  -40.2620   -6.6360 C.3       1 H7Q        -0.0069
      9 C15       -12.9580  -41.1930   -6.3200 C.3       1 H7Q        -0.0469
     10 C17       -11.9490  -33.7730   -5.3590 C.3       1 H7Q         0.0181
     11 C20       -14.1780  -37.5880   -3.4720 C.ar      1 H7Q         0.0084
     12 C21       -14.7040  -38.6890   -2.8100 C.ar      1 H7Q        -0.0616
     13 C22       -15.7880  -39.3660   -3.3390 C.ar      1 H7Q        -0.0753
     14 C24       -15.8200  -37.8580   -5.2030 C.ar      1 H7Q        -0.0616
     15 C26       -14.0060  -35.9770   -5.1920 C.3       1 H7Q         0.0012
     16 N          -4.2020  -37.3260   -8.0470 N.pl3     1 H7Q        -0.3623
     17 C          -5.1790  -40.6140   -6.2790 C.3       1 H7Q        -0.0626
     18 O         -11.0010  -38.1620   -5.7960 O.3       1 H7Q        -0.2319
     19 C1         -6.0010  -40.9900   -7.3870 C.3       1 H7Q        -0.0626
     20 C11        -7.5330  -37.9710   -6.9430 C.ar      1 H7Q         0.0383
     21 C12       -11.1810  -39.5590   -5.4890 C.3       1 H7Q         0.1052
     22 C14       -13.2350  -39.9040   -6.9960 C.3       1 H7Q        -0.0469
     23 C16       -10.6910  -34.2140   -6.0560 C.3       1 H7Q         0.0907
     24 C18       -12.2990  -34.6070   -4.1250 C.3       1 H7Q        -0.0266
     25 C19       -13.0230  -36.7100   -3.1010 C.3       1 H7Q         0.0012
     26 C2         -6.1770  -39.7250   -8.1840 C.3       1 H7Q        -0.0763
     27 C23       -16.3450  -38.9550   -4.5290 C.ar      1 H7Q        -0.0753
     28 C25       -14.7320  -37.1760   -4.6760 C.ar      1 H7Q         0.0084
     29 C3         -6.1590  -38.5400   -7.1540 C.3       1 H7Q         0.0037
     30 C9         -9.7920  -37.7190   -6.2010 C.ar      1 H7Q         0.2705
     31 N2        -12.7250  -35.9880   -4.3700 N.4       1 H7Q         0.2570
     32 O1        -10.8690  -35.6230   -6.2580 O.3       1 H7Q        -0.2672
     33 H1         -5.9005  -35.2441   -7.8826 H         1 H7Q         0.2392
     34 H2         -4.7159  -38.6442   -5.4987 H         1 H7Q         0.0151
     35 H3         -6.3570  -39.2431   -5.0804 H         1 H7Q         0.0151
     36 H4         -8.5029  -34.7099   -7.1649 H         1 H7Q         0.0781
     37 H5         -8.7174  -39.6032   -6.1889 H         1 H7Q         0.1217
     38 H6        -11.1177  -40.5014   -7.4193 H         1 H7Q         0.0332
     39 H7        -13.2686  -41.3453   -5.2758 H         1 H7Q         0.0269
     40 H8        -13.0578  -42.1381   -6.8739 H         1 H7Q         0.0269
     41 H9        -12.7832  -33.8434   -6.0725 H         1 H7Q         0.0345
     42 H10       -11.8223  -32.7264   -5.0451 H         1 H7Q         0.0345
     43 H11       -14.2640  -39.0191   -1.8759 H         1 H7Q         0.0539
     44 H12       -16.1996  -40.2215   -2.8158 H         1 H7Q         0.0541
     45 H13       -16.2602  -37.5355   -6.1396 H         1 H7Q         0.0539
     46 H14       -14.5829  -35.0570   -5.0165 H         1 H7Q         0.0965
     47 H15       -13.7898  -36.0750   -6.2661 H         1 H7Q         0.0965
     48 H16        -3.6753  -38.2110   -8.0282 H         1 H7Q         0.1741
     49 H17        -3.7513  -36.4657   -8.3900 H         1 H7Q         0.1741
     50 H18        -5.3339  -41.3110   -5.4423 H         1 H7Q         0.0256
     51 H19        -4.1198  -40.6265   -6.5753 H         1 H7Q         0.0256
     52 H20        -6.9739  -41.3659   -7.0374 H         1 H7Q         0.0256
     53 H21        -5.5051  -41.7631   -7.9923 H         1 H7Q         0.0256
     54 H22       -10.1992  -40.0197   -5.3051 H         1 H7Q         0.0694
     55 H23       -11.8056  -39.6553   -4.5887 H         1 H7Q         0.0694
     56 H24       -13.5426  -39.8921   -8.0520 H         1 H7Q         0.0269
     57 H25       -13.7534  -39.0993   -6.4540 H         1 H7Q         0.0269
     58 H26        -9.8094  -34.0194   -5.4276 H         1 H7Q         0.0649
     59 H27       -10.5770  -33.6943   -7.0188 H         1 H7Q         0.0649
     60 H28       -13.1153  -34.0942   -3.5952 H         1 H7Q         0.0816
     61 H29       -11.4081  -34.6411   -3.4807 H         1 H7Q         0.0816
     62 H30       -12.1599  -37.3095   -2.7759 H         1 H7Q         0.0965
     63 H31       -13.3023  -36.0065   -2.3029 H         1 H7Q         0.0965
     64 H32        -7.1362  -39.7457   -8.7220 H         1 H7Q         0.0151
     65 H33        -5.3542  -39.6133   -8.9055 H         1 H7Q         0.0151
     66 H34       -17.1944  -39.4876   -4.9413 H         1 H7Q         0.0541
     67 H35       -11.9974  -36.4739   -4.8705 H         1 H7Q         0.2061
@<TRIPOS>BOND
     1    1    3 ar 
     2    4    1 1  
     3    2   17 1  
     4   29    2 1  
     5    3   16 ar 
     6   29    3 1  
     7    5    4 ar 
     8    4   20 ar 
     9    6    5 ar 
    10    6   30 ar 
    11   32    6 1  
    12    7   20 ar 
    13   30    7 ar 
    14    8    9 1  
    15   21    8 1  
    16    8   22 1  
    17   22    9 1  
    18   10   23 1  
    19   24   10 1  
    20   11   12 ar 
    21   11   25 1  
    22   28   11 ar 
    23   12   13 ar 
    24   27   13 ar 
    25   14   27 ar 
    26   28   14 ar 
    27   15   28 1  
    28   31   15 1  
    29   17   19 1  
    30   18   21 1  
    31   30   18 1  
    32   19   26 1  
    33   20   29 1  
    34   23   32 1  
    35   24   31 1  
    36   25   31 1  
    37   26   29 1  
    38    1   33 1  
    39    2   34 1  
    40    2   35 1  
    41    5   36 1  
    42    7   37 1  
    43    8   38 1  
    44    9   39 1  
    45    9   40 1  
    46   10   41 1  
    47   10   42 1  
    48   12   43 1  
    49   13   44 1  
    50   14   45 1  
    51   15   46 1  
    52   15   47 1  
    53   16   48 1  
    54   16   49 1  
    55   17   50 1  
    56   17   51 1  
    57   19   52 1  
    58   19   53 1  
    59   21   54 1  
    60   21   55 1  
    61   22   56 1  
    62   22   57 1  
    63   23   58 1  
    64   23   59 1  
    65   24   60 1  
    66   24   61 1  
    67   25   62 1  
    68   25   63 1  
    69   26   64 1  
    70   26   65 1  
    71   27   66 1  
    72   31   67 1  
@<TRIPOS>SUBSTRUCTURE
     1 H7Q         1

