### 
### Created by X-TOOL on Mon Aug  2 16:14:11 2021
### 

@<TRIPOS>MOLECULE
6i8m_ligand
   56    59     1     0     0
SMALL
GAST_HUCK


@<TRIPOS>ATOM
      1 C1          9.2510   22.9420   20.9520 C.2       1 H7W         0.2088
      2 C3         10.0950   22.8410   21.9760 C.ar      1 H7W         0.0728
      3 C4          7.9820   22.0450   22.5700 C.3       1 H7W         0.0797
      4 C5          9.3350   22.2700   22.9790 C.ar      1 H7W         0.0076
      5 C6         11.4490   23.1760   22.1670 C.ar      1 H7W         0.0624
      6 C9          6.9700   22.7000   20.0990 C.3       1 H7W         0.0567
      7 C11         5.6340   23.2840   20.5760 C.3       1 H7W         0.0111
      8 N2          7.9860   22.5180   21.2020 N.am      1 H7W        -0.2545
      9 C12         6.8080   21.4500   19.2250 C.3       1 H7W         0.0111
     10 C13         4.7130   23.5390   19.4050 C.3       1 H7W        -0.0295
     11 C14         5.8060   21.6960   18.1010 C.3       1 H7W        -0.0295
     12 C23         3.4080   23.4680   16.7570 C.3       1 H7W        -0.0096
     13 C8         12.4220   23.7380   21.2300 C.2       1 H7W         0.2047
     14 C24         2.3360   23.2390   15.6770 C.3       1 H7W        -0.0480
     15 C25         0.8930   22.0480   17.3100 C.3       1 H7W        -0.0480
     16 C26         0.9320   23.2630   16.3520 C.3       1 H7W        -0.0527
     17 O10         9.5700   23.4380   19.8760 O.2       1 H7W        -0.3864
     18 C16         3.4680   22.2330   17.6420 C.3       1 H7W        -0.0209
     19 C18         9.8810   22.0280   24.1930 C.ar      1 H7W        -0.0480
     20 C19         7.5550   20.5740   22.7370 C.3       1 H7W        -0.0308
     21 C20        11.9970   22.9160   23.4700 C.ar      1 H7W        -0.0435
     22 C22         2.1160   22.0030   18.3110 C.3       1 H7W        -0.0096
     23 N7          4.5660   22.2920   18.6280 N.4       1 H7W         0.2375
     24 C21        11.2140   22.3430   24.4840 C.ar      1 H7W        -0.0586
     25 O15        13.6550   23.7720   21.5320 O.2       1 H7W        -0.3831
     26 N17        12.0020   24.1410   19.9970 N.am      1 H7W        -0.2996
     27 H1          7.2985   22.6619   23.1718 H         1 H7W         0.0733
     28 H2          7.3980   23.4657   19.4353 H         1 H7W         0.0563
     29 H3          5.8215   24.2323   21.1009 H         1 H7W         0.0339
     30 H4          5.1542   22.5726   21.2642 H         1 H7W         0.0339
     31 H5          6.4510   20.6179   19.8496 H         1 H7W         0.0339
     32 H6          7.7826   21.1881   18.7873 H         1 H7W         0.0339
     33 H7          5.1401   24.3245   18.7642 H         1 H7W         0.0815
     34 H8          3.7283   23.8618   19.7739 H         1 H7W         0.0815
     35 H9          5.5677   20.7388   17.6142 H         1 H7W         0.0815
     36 H10         6.2510   22.3812   17.3645 H         1 H7W         0.0815
     37 H11         3.1432   24.3469   17.3631 H         1 H7W         0.0320
     38 H12         4.3860   23.6319   16.2810 H         1 H7W         0.0320
     39 H13         2.4983   22.2634   15.1956 H         1 H7W         0.0267
     40 H14         2.3965   24.0356   14.9209 H         1 H7W         0.0267
     41 H15         0.9006   21.1277   16.7076 H         1 H7W         0.0267
     42 H16        -0.0366   22.0949   17.8962 H         1 H7W         0.0267
     43 H17         0.1418   23.1748   15.5919 H         1 H7W         0.0265
     44 H18         0.7958   24.1977   16.9158 H         1 H7W         0.0265
     45 H19         3.6666   21.3700   16.9895 H         1 H7W         0.0851
     46 H20         9.2676   21.5763   24.9642 H         1 H7W         0.0604
     47 H21         7.5814   20.3033   23.8028 H         1 H7W         0.0276
     48 H22         8.2452   19.9260   22.1769 H         1 H7W         0.0276
     49 H23         6.5336   20.4425   22.3505 H         1 H7W         0.0276
     50 H24        13.0320   23.1666   23.6728 H         1 H7W         0.0624
     51 H25         2.1321   21.0153   18.7948 H         1 H7W         0.0320
     52 H26         1.9692   22.7824   19.0732 H         1 H7W         0.0320
     53 H27         4.2748   21.6341   19.3340 H         1 H7W         0.2036
     54 H28        11.6300   22.1495   25.4661 H         1 H7W         0.0646
     55 H29        12.6568   24.5268   19.3471 H         1 H7W         0.1809
     56 H30        11.0391   24.0507   19.7426 H         1 H7W         0.1809
@<TRIPOS>BOND
     1    1    2 1  
     2    8    1 am 
     3    1   17 2  
     4    4    2 ar 
     5    2    5 ar 
     6    3    4 1  
     7    8    3 1  
     8    3   20 1  
     9    4   19 ar 
    10    5   13 1  
    11    5   21 ar 
    12    7    6 1  
    13    6    8 1  
    14    9    6 1  
    15   10    7 1  
    16   11    9 1  
    17   23   10 1  
    18   23   11 1  
    19   12   14 1  
    20   18   12 1  
    21   13   25 2  
    22   13   26 am 
    23   14   16 1  
    24   15   16 1  
    25   22   15 1  
    26   18   22 1  
    27   18   23 1  
    28   19   24 ar 
    29   21   24 ar 
    30    3   27 1  
    31    6   28 1  
    32    7   29 1  
    33    7   30 1  
    34    9   31 1  
    35    9   32 1  
    36   10   33 1  
    37   10   34 1  
    38   11   35 1  
    39   11   36 1  
    40   12   37 1  
    41   12   38 1  
    42   14   39 1  
    43   14   40 1  
    44   15   41 1  
    45   15   42 1  
    46   16   43 1  
    47   16   44 1  
    48   18   45 1  
    49   19   46 1  
    50   20   47 1  
    51   20   48 1  
    52   20   49 1  
    53   21   50 1  
    54   22   51 1  
    55   22   52 1  
    56   23   53 1  
    57   24   54 1  
    58   26   55 1  
    59   26   56 1  
@<TRIPOS>SUBSTRUCTURE
     1 H7W         1

