### 
### Created by X-TOOL on Mon Aug  2 16:14:11 2021
### 

@<TRIPOS>MOLECULE
6i8t_ligand
   56    59     1     0     0
SMALL
GAST_HUCK


@<TRIPOS>ATOM
      1 C8         12.4530   23.5280   21.2240 C.2       1 H7Z         0.2047
      2 C9          7.3120   21.7330   19.5360 C.3       1 H7Z         0.0567
      3 C11         6.2740   22.8620   19.7110 C.3       1 H7Z         0.0111
      4 C12         6.6460   20.3490   19.2490 C.3       1 H7Z         0.0111
      5 C13         5.4240   22.9350   18.4850 C.3       1 H7Z        -0.0295
      6 C14         5.6260   20.4770   18.0720 C.3       1 H7Z        -0.0295
      7 N7          4.7200   21.6560   18.2530 N.4       1 H7Z         0.2375
      8 C5          9.3780   21.8530   22.6960 C.ar      1 H7Z         0.0076
      9 C3         10.1980   22.4300   21.7600 C.ar      1 H7Z         0.0728
     10 C4          8.1820   21.3960   22.0800 C.3       1 H7Z         0.0797
     11 N2          8.2870   21.8250   20.7140 N.am      1 H7Z        -0.2545
     12 C1          9.5090   22.3640   20.6110 C.2       1 H7Z         0.2088
     13 N17        12.1250   24.0070   19.9930 N.am      1 H7Z        -0.2996
     14 C18         9.7630   21.7460   23.9790 C.ar      1 H7Z        -0.0480
     15 C19         6.8400   21.7550   22.7200 C.3       1 H7Z        -0.0308
     16 C20        11.8280   22.8350   23.4460 C.ar      1 H7Z        -0.0435
     17 C21        10.9890   22.2400   24.3870 C.ar      1 H7Z        -0.0586
     18 C22         2.3150   21.3840   17.7490 C.3       1 H7Z        -0.0096
     19 C24         2.5230   23.5180   15.6760 C.3       1 H7Z        -0.0480
     20 C25         1.1930   21.6260   16.6960 C.3       1 H7Z        -0.0480
     21 C26         1.1400   23.0970   16.2060 C.3       1 H7Z        -0.0527
     22 C23         3.5610   23.3410   16.7920 C.3       1 H7Z        -0.0096
     23 C16         3.6720   21.8560   17.2310 C.3       1 H7Z        -0.0209
     24 O10         9.8910   22.8140   19.5360 O.2       1 H7Z        -0.3864
     25 C6         11.4510   22.9460   22.0950 C.ar      1 H7Z         0.0624
     26 O15        13.6410   23.5280   21.5720 O.2       1 H7Z        -0.3831
     27 H1          7.8976   21.9644   18.6341 H         1 H7Z         0.0563
     28 H2          6.7930   23.8207   19.8576 H         1 H7Z         0.0339
     29 H3          5.6420   22.6496   20.5859 H         1 H7Z         0.0339
     30 H4          6.1190   20.0049   20.1511 H         1 H7Z         0.0339
     31 H5          7.4241   19.6201   18.9783 H         1 H7Z         0.0339
     32 H6          6.0623   23.1570   17.6171 H         1 H7Z         0.0815
     33 H7          4.6816   23.7371   18.6089 H         1 H7Z         0.0815
     34 H8          5.0167   19.5623   18.0266 H         1 H7Z         0.0815
     35 H9          6.1812   20.5949   17.1297 H         1 H7Z         0.0815
     36 H10         4.2228   21.4584   19.1073 H         1 H7Z         0.2036
     37 H11         8.2206   20.2968   22.0922 H         1 H7Z         0.0733
     38 H12        12.8309   24.4048   19.4069 H         1 H7Z         0.1809
     39 H13        11.1781   23.9611   19.6746 H         1 H7Z         0.1809
     40 H14         9.1082   21.2692   24.6994 H         1 H7Z         0.0604
     41 H15         6.8238   21.4004   23.7611 H         1 H7Z         0.0276
     42 H16         6.0254   21.2761   22.1569 H         1 H7Z         0.0276
     43 H17         6.7057   22.8466   22.7024 H         1 H7Z         0.0276
     44 H18        12.7908   23.2201   23.7617 H         1 H7Z         0.0624
     45 H19        11.2933   22.1654   25.4247 H         1 H7Z         0.0646
     46 H20         2.3710   20.3084   17.9725 H         1 H7Z         0.0320
     47 H21         2.0699   21.9371   18.6677 H         1 H7Z         0.0320
     48 H22         2.4931   24.5724   15.3642 H         1 H7Z         0.0267
     49 H23         2.7955   22.8888   14.8159 H         1 H7Z         0.0267
     50 H24         0.2238   21.3709   17.1493 H         1 H7Z         0.0267
     51 H25         1.3761   20.9729   15.8300 H         1 H7Z         0.0267
     52 H26         0.3967   23.1873   15.4002 H         1 H7Z         0.0265
     53 H27         0.8547   23.7511   17.0431 H         1 H7Z         0.0265
     54 H28         3.2623   23.9491   17.6586 H         1 H7Z         0.0320
     55 H29         4.5413   23.6804   16.4263 H         1 H7Z         0.0320
     56 H30         3.9385   21.2546   16.3494 H         1 H7Z         0.0851
@<TRIPOS>BOND
     1    1   13 am 
     2   25    1 1  
     3    1   26 2  
     4    3    2 1  
     5    4    2 1  
     6    2   11 1  
     7    5    3 1  
     8    6    4 1  
     9    7    5 1  
    10    7    6 1  
    11   23    7 1  
    12    9    8 ar 
    13   10    8 1  
    14    8   14 ar 
    15   12    9 1  
    16    9   25 ar 
    17   11   10 1  
    18   10   15 1  
    19   11   12 am 
    20   12   24 2  
    21   14   17 ar 
    22   16   17 ar 
    23   25   16 ar 
    24   20   18 1  
    25   18   23 1  
    26   21   19 1  
    27   19   22 1  
    28   20   21 1  
    29   22   23 1  
    30    2   27 1  
    31    3   28 1  
    32    3   29 1  
    33    4   30 1  
    34    4   31 1  
    35    5   32 1  
    36    5   33 1  
    37    6   34 1  
    38    6   35 1  
    39    7   36 1  
    40   10   37 1  
    41   13   38 1  
    42   13   39 1  
    43   14   40 1  
    44   15   41 1  
    45   15   42 1  
    46   15   43 1  
    47   16   44 1  
    48   17   45 1  
    49   18   46 1  
    50   18   47 1  
    51   19   48 1  
    52   19   49 1  
    53   20   50 1  
    54   20   51 1  
    55   21   52 1  
    56   21   53 1  
    57   22   54 1  
    58   22   55 1  
    59   23   56 1  
@<TRIPOS>SUBSTRUCTURE
     1 H7Z         1

