### 
### Created by X-TOOL on Mon Aug  2 16:14:11 2021
### 

@<TRIPOS>MOLECULE
6i8y_ligand
   53    56     1     0     0
SMALL
GAST_HUCK


@<TRIPOS>ATOM
      1 N1         36.3340  -12.8390  -15.3580 N.4       1 MOL         0.2353
      2 N3         37.4930   -4.1310  -19.0130 N.pl3     1 MOL        -0.3623
      3 C4         38.1350   -7.5980  -17.9260 C.ar      1 MOL         0.0383
      4 C5         36.7180   -7.5550  -18.1640 C.ar      1 MOL         0.1426
      5 C6         35.8840   -8.6650  -17.9860 C.ar      1 MOL         0.0871
      6 C7         36.5580   -9.8110  -17.5650 C.ar      1 MOL         0.2412
      7 C8         34.5230  -10.9320  -16.9910 C.3       1 MOL         0.0907
      8 C10        35.1420  -12.5460  -15.0550 C.3       1 MOL        -0.0292
      9 C13        38.0790  -14.1320  -14.5460 C.3       1 MOL        -0.0077
     10 C15        37.5070   -5.3960  -18.6620 C.cat     1 MOL         0.0485
     11 C17        39.6670   -5.6160  -17.2250 C.3       1 MOL        -0.0771
     12 C16        38.6330   -6.2050  -18.1790 C.3       1 MOL         0.0036
     13 C19        39.6140   -6.0560  -19.3180 C.3       1 MOL        -0.0771
     14 C18        40.7030   -5.7580  -18.3110 C.3       1 MOL        -0.0706
     15 C3         38.7660   -8.7210  -17.4590 C.ar      1 MOL         0.0792
     16 N2         36.3190   -6.1980  -18.6050 N.pl3     1 MOL        -0.2607
     17 C2         37.9220   -9.8940  -17.2740 C.ar      1 MOL         0.2702
     18 O1         38.3480  -11.0910  -16.7990 O.3       1 MOL        -0.2355
     19 C1         39.7500  -11.2210  -16.5610 C.3       1 MOL         0.0916
     20 O2         35.9170  -11.0340  -17.2590 O.3       1 MOL        -0.2672
     21 C9         34.1970  -12.2130  -16.2040 C.3       1 MOL         0.0180
     22 C14        36.9720  -13.0880  -14.2420 C.3       1 MOL        -0.0317
     23 C12        37.7490  -14.6230  -15.9030 C.3       1 MOL        -0.0077
     24 C11        36.4900  -14.2010  -16.1360 C.3       1 MOL        -0.0317
     25 H1         36.7507  -12.0810  -15.8756 H         1 MOL         0.2033
     26 H2         36.6170   -3.6957  -19.3354 H         1 MOL         0.1741
     27 H3         38.3581   -3.5739  -18.9660 H         1 MOL         0.1741
     28 H4         34.8143   -8.6365  -18.1592 H         1 MOL         0.0781
     29 H5         33.9473  -10.8920  -17.9274 H         1 MOL         0.0649
     30 H6         34.3057  -10.0377  -16.3885 H         1 MOL         0.0649
     31 H7         35.1745  -11.6717  -14.3883 H         1 MOL         0.0815
     32 H8         34.7168  -13.4041  -14.5139 H         1 MOL         0.0815
     33 H9         38.0515  -14.9542  -13.8158 H         1 MOL         0.0319
     34 H10        39.0735  -13.6621  -14.5319 H         1 MOL         0.0319
     35 H11        39.8599   -6.2274  -16.3311 H         1 MOL         0.0151
     36 H12        39.4660   -4.5777  -16.9227 H         1 MOL         0.0151
     37 H13        39.3903   -5.2240  -20.0019 H         1 MOL         0.0151
     38 H14        39.7750   -6.9756  -19.8996 H         1 MOL         0.0151
     39 H15        41.4070   -6.5883  -18.1532 H         1 MOL         0.0247
     40 H16        41.2648   -4.8352  -18.5181 H         1 MOL         0.0247
     41 H17        39.8277   -8.7358  -17.2407 H         1 MOL         0.1217
     42 H18        35.3631   -5.8872  -18.8297 H         1 MOL         0.2392
     43 H19        39.9652  -12.2303  -16.1803 H         1 MOL         0.0655
     44 H20        40.0667  -10.4738  -15.8185 H         1 MOL         0.0655
     45 H21        40.2981  -11.0591  -17.5009 H         1 MOL         0.0655
     46 H22        34.2145  -13.0563  -16.9101 H         1 MOL         0.0345
     47 H23        33.1848  -12.1045  -15.7874 H         1 MOL         0.0345
     48 H24        36.2733  -13.4916  -13.4945 H         1 MOL         0.0814
     49 H25        37.4265  -12.1631  -13.8573 H         1 MOL         0.0814
     50 H26        37.8003  -15.7212  -15.9388 H         1 MOL         0.0319
     51 H27        38.4413  -14.1992  -16.6454 H         1 MOL         0.0319
     52 H28        36.3330  -14.0452  -17.2135 H         1 MOL         0.0814
     53 H29        35.7649  -14.9391  -15.7627 H         1 MOL         0.0814
@<TRIPOS>BOND
     1    8    1 1  
     2    1   22 1  
     3    1   24 1  
     4   10    2 ar 
     5    3    4 ar 
     6   12    3 1  
     7    3   15 ar 
     8    4    5 ar 
     9    4   16 1  
    10    5    6 ar 
    11    6   17 ar 
    12    6   20 1  
    13   20    7 1  
    14    7   21 1  
    15   21    8 1  
    16   22    9 1  
    17    9   23 1  
    18   10   12 1  
    19   10   16 ar 
    20   12   11 1  
    21   11   14 1  
    22   12   13 1  
    23   13   14 1  
    24   15   17 ar 
    25   17   18 1  
    26   18   19 1  
    27   23   24 1  
    28    1   25 1  
    29    2   26 1  
    30    2   27 1  
    31    5   28 1  
    32    7   29 1  
    33    7   30 1  
    34    8   31 1  
    35    8   32 1  
    36    9   33 1  
    37    9   34 1  
    38   11   35 1  
    39   11   36 1  
    40   13   37 1  
    41   13   38 1  
    42   14   39 1  
    43   14   40 1  
    44   15   41 1  
    45   16   42 1  
    46   19   43 1  
    47   19   44 1  
    48   19   45 1  
    49   21   46 1  
    50   21   47 1  
    51   22   48 1  
    52   22   49 1  
    53   23   50 1  
    54   23   51 1  
    55   24   52 1  
    56   24   53 1  
@<TRIPOS>SUBSTRUCTURE
     1 MOL         1

