### 
### Created by X-TOOL on Mon Aug  2 16:14:11 2021
### 

@<TRIPOS>MOLECULE
6i8z_ligand
   69    73     1     0     0
SMALL
GAST_HUCK


@<TRIPOS>ATOM
      1 C5          5.2580   22.8490   29.0520 C.ar      1 H82         0.2298
      2 C6          4.4720   21.7020   29.3100 C.ar      1 H82         0.1139
      3 C7          5.0270   20.8360   30.2410 C.ar      1 H82         0.0405
      4 C15         5.6590   24.5940   27.4400 C.ar      1 H82         0.1479
      5 C17         7.0060   26.5740   27.5310 C.ar      1 H82        -0.0694
      6 C20         5.9710   24.4220   26.0770 C.ar      1 H82         0.0715
      7 C21         6.1980   23.7460   23.7670 C.3       1 H82         0.0300
      8 C24        10.7090   30.5420   32.2280 C.3       1 H82         0.0106
      9 C26        11.6730   30.2370   29.9470 C.3       1 H82         0.0106
     10 C28        12.1990   33.8460   31.0570 C.3       1 H82        -0.0431
     11 C1         12.3830   31.5830   30.0890 C.3       1 H82        -0.0300
     12 N2          7.9310   22.4890   31.2810 N.pl3     1 H82        -0.2265
     13 C3          6.8160   22.2020   30.5480 C.ar      1 H82         0.2323
     14 N4          6.4050   23.1130   29.6470 N.ar      1 H82        -0.1896
     15 N8          6.1840   21.0640   30.8760 N.ar      1 H82        -0.2249
     16 C9          3.1590   21.3870   28.6520 C.3       1 H82         0.3651
     17 F10         2.5720   20.3240   29.1610 F         1 H82        -0.2398
     18 F11         2.2780   22.3780   28.7740 F         1 H82        -0.2398
     19 F12         3.2900   21.1480   27.3440 F         1 H82        -0.2398
     20 O13         4.8320   23.6210   28.0050 O.3       1 H82        -0.2080
     21 C14         7.0300   25.0170   24.0040 C.3       1 H82        -0.0023
     22 C16         6.1600   25.6720   28.1610 C.ar      1 H82        -0.0245
     23 C18         7.3280   26.4150   26.1910 C.ar      1 H82        -0.0625
     24 C19         6.8120   25.3490   25.4590 C.ar      1 H82        -0.0268
     25 N22        11.5930   32.4870   30.9800 N.4       1 H82         0.2332
     26 C23        11.4420   31.8780   32.3360 C.3       1 H82        -0.0300
     27 C25        11.4500   29.5940   31.3050 C.3       1 H82         0.0509
     28 N27        10.7190   28.3310   31.1780 N.am      1 H82        -0.2843
     29 C29         9.6780   25.6600   30.4250 C.ar      1 H82        -0.0601
     30 C30        10.2270   25.9990   31.6620 C.ar      1 H82         0.0311
     31 C31        10.0110   25.1700   32.7610 C.ar      1 H82        -0.0201
     32 C32         9.2670   24.0070   32.6160 C.ar      1 H82         0.1248
     33 C33         8.7080   23.6660   31.3620 C.ar      1 H82         0.1112
     34 C34         8.9330   24.5060   30.2710 C.ar      1 H82        -0.0360
     35 O35         9.0370   23.0900   33.6060 O.3       1 H82        -0.3223
     36 C36         9.6430   23.3010   34.8880 C.3       1 H82         0.0576
     37 C37        11.0850   27.2150   31.8320 C.2       1 H82         0.1954
     38 O38        12.0720   27.1820   32.5640 O.2       1 H82        -0.3893
     39 C39         5.5690   23.3880   25.0960 C.2       1 H82         0.1266
     40 O40         4.8580   22.4220   25.3030 O.2       1 H82        -0.3880
     41 H1          4.4926   19.9206   30.4679 H         1 H82         0.1108
     42 H2          7.4174   27.4073   28.0890 H         1 H82         0.0617
     43 H3          6.8458   22.9272   23.4207 H         1 H82         0.0505
     44 H4          5.4169   23.9379   23.0167 H         1 H82         0.0505
     45 H5          9.6984   30.7163   31.8301 H         1 H82         0.0339
     46 H6         10.6364   30.0887   33.2276 H         1 H82         0.0339
     47 H7         12.2901   29.5681   29.3292 H         1 H82         0.0339
     48 H8         10.6998   30.3932   29.4587 H         1 H82         0.0339
     49 H9         12.2949   34.2626   30.0435 H         1 H82         0.0777
     50 H10        13.1940   33.7781   31.5211 H         1 H82         0.0777
     51 H11        11.5556   34.5006   31.6632 H         1 H82         0.0777
     52 H12        12.4848   32.0475   29.0971 H         1 H82         0.0815
     53 H13        13.3809   31.4243   30.5238 H         1 H82         0.0815
     54 H14         8.2621   21.7163   31.8761 H         1 H82         0.2296
     55 H15         6.6774   25.8373   23.3616 H         1 H82         0.0463
     56 H16         8.0949   24.8268   23.8045 H         1 H82         0.0463
     57 H17         5.8930   25.8064   29.2030 H         1 H82         0.0526
     58 H18         7.9877   27.1276   25.7092 H         1 H82         0.0497
     59 H19        10.6724   32.5857   30.5815 H         1 H82         0.2030
     60 H20        12.4372   31.7135   32.7746 H         1 H82         0.0815
     61 H21        10.8657   32.5591   32.9794 H         1 H82         0.0815
     62 H22        12.4335   29.3786   31.7480 H         1 H82         0.0559
     63 H23         9.9168   28.2977   30.5818 H         1 H82         0.1845
     64 H24         9.8379   26.3107   29.5729 H         1 H82         0.0555
     65 H25        10.4236   25.4330   33.7283 H         1 H82         0.0561
     66 H26         8.5225   24.2530   29.3001 H         1 H82         0.0536
     67 H27         9.3617   22.4816   35.5658 H         1 H82         0.0574
     68 H28         9.2951   24.2576   35.3051 H         1 H82         0.0574
     69 H29        10.7371   23.3256   34.7768 H         1 H82         0.0574
@<TRIPOS>BOND
     1    1    2 ar 
     2   14    1 ar 
     3    1   20 1  
     4    3    2 ar 
     5    2   16 1  
     6   15    3 ar 
     7    4    6 ar 
     8   20    4 1  
     9    4   22 ar 
    10   22    5 ar 
    11    5   23 ar 
    12    6   24 ar 
    13    6   39 1  
    14    7   21 1  
    15   39    7 1  
    16    8   26 1  
    17   27    8 1  
    18    9   11 1  
    19   27    9 1  
    20   25   10 1  
    21   11   25 1  
    22   12   13 1  
    23   33   12 1  
    24   13   14 ar 
    25   13   15 ar 
    26   16   17 1  
    27   16   18 1  
    28   16   19 1  
    29   24   21 1  
    30   24   23 ar 
    31   26   25 1  
    32   28   27 1  
    33   37   28 am 
    34   30   29 ar 
    35   29   34 ar 
    36   31   30 ar 
    37   30   37 1  
    38   32   31 ar 
    39   32   33 ar 
    40   32   35 1  
    41   33   34 ar 
    42   35   36 1  
    43   37   38 2  
    44   39   40 2  
    45    3   41 1  
    46    5   42 1  
    47    7   43 1  
    48    7   44 1  
    49    8   45 1  
    50    8   46 1  
    51    9   47 1  
    52    9   48 1  
    53   10   49 1  
    54   10   50 1  
    55   10   51 1  
    56   11   52 1  
    57   11   53 1  
    58   12   54 1  
    59   21   55 1  
    60   21   56 1  
    61   22   57 1  
    62   23   58 1  
    63   25   59 1  
    64   26   60 1  
    65   26   61 1  
    66   27   62 1  
    67   28   63 1  
    68   29   64 1  
    69   31   65 1  
    70   34   66 1  
    71   36   67 1  
    72   36   68 1  
    73   36   69 1  
@<TRIPOS>SUBSTRUCTURE
     1 H82         1

