### 
### Created by X-TOOL on Mon Aug  2 16:10:00 2021
### 

@<TRIPOS>MOLECULE
6i9a_ligand
   91    93     1     0     0
SMALL
GAST_HUCK


@<TRIPOS>ATOM
      1 CAQ         8.1530   -7.3620    9.1830 C.ar      1 H8E        -0.0584
      2 CAK         9.4990   -6.9650    9.3260 C.ar      1 H8E        -0.0685
      3 CAH        10.3110   -7.5850   10.2770 C.ar      1 H8E        -0.0687
      4 CAL         9.8140   -8.5830   11.1100 C.ar      1 H8E        -0.0685
      5 CAR         8.4820   -8.9380   10.9580 C.ar      1 H8E        -0.0584
      6 CBO         7.6480   -8.3880    9.9950 C.ar      1 H8E        -0.0210
      7 CBA         6.2970   -8.7920    9.9590 C.3       1 H8E         0.0645
      8 NBE         6.0730   -9.9850    9.1250 N.am      1 H8E        -0.2734
      9 CBL         5.1100  -10.9080    9.4000 C.2       1 H8E         0.2090
     10 OAE         4.4400  -10.8540   10.4390 O.2       1 H8E        -0.3940
     11 CBN         4.9210  -12.0090    8.3610 C.3       1 H8E         0.1663
     12 OAG         5.9180  -12.1540    7.5880 O.3       1 H8E        -0.3691
     13 CBS         4.3610  -13.3180    9.0010 C.3       1 H8E         0.0850
     14 CBB         4.6110  -14.5640    8.1430 C.3       1 H8E        -0.0251
     15 CAY         4.1680  -15.8590    8.8290 C.3       1 H8E        -0.0459
     16 CAX         4.1570  -17.0940    7.9220 C.3       1 H8E        -0.0126
     17 CAW         5.5620  -17.5770    7.5870 C.3       1 H8E        -0.0354
     18 NAB         5.4680  -18.7990    6.7330 N.4       1 H8E         0.2185
     19 NBG         2.9370  -13.2290    9.3480 N.am      1 H8E        -0.2772
     20 C           2.4120  -13.3690   10.5650 C.2       1 H8E         0.2022
     21 O           3.0420  -13.5440   11.6000 O.2       1 H8E        -0.3945
     22 CA          0.9140  -13.0960   10.5960 C.3       1 H8E         0.1347
     23 N           0.2540  -13.7290   11.7340 N.am      1 H8E        -0.2409
     24 CBK         0.1250  -15.0750   11.8450 C.2       1 H8E         0.3239
     25 OAD         0.6890  -15.8140   11.0250 O.2       1 H8E        -0.3773
     26 OBI        -0.5850  -15.4800   12.8290 O.3       1 H8E        -0.2506
     27 CBD        -0.7030  -16.9280   13.0810 C.3       1 H8E         0.1113
     28 CBP        -1.3370  -17.1880   14.3730 C.ar      1 H8E        -0.0130
     29 CAS        -2.6930  -17.5000   14.4820 C.ar      1 H8E        -0.0578
     30 CAM        -3.3290  -17.7780   15.7300 C.ar      1 H8E        -0.0685
     31 CAI        -2.5190  -17.6450   16.8710 C.ar      1 H8E        -0.0687
     32 CAN        -1.1890  -17.2680   16.7630 C.ar      1 H8E        -0.0685
     33 CAT        -0.5840  -17.0410   15.5390 C.ar      1 H8E        -0.0578
     34 CB          0.6730  -11.5790   10.6620 C.3       1 H8E         0.0045
     35 CG          1.3040  -10.9120   11.9130 C.3       1 H8E         0.0433
     36 CD          1.3730   -9.4220   11.7550 C.2       1 H8E         0.1968
     37 OE1         0.3930   -8.7190   12.0060 O.2       1 H8E        -0.3951
     38 NE2         2.5750   -8.9280   11.4430 N.am      1 H8E        -0.1868
     39 NBT         2.8560   -7.5500   11.6340 N.pl3     1 H8E        -0.2118
     40 CAA         3.3060   -7.2310   13.0160 C.3       1 H8E         0.0400
     41 CBQ         3.4120   -6.8790   10.5130 C.ar      1 H8E         0.0640
     42 CAU         4.2230   -5.7360   10.6820 C.ar      1 H8E        -0.0423
     43 CAO         4.7340   -5.0750    9.5640 C.ar      1 H8E        -0.0736
     44 CAJ         4.5060   -5.6040    8.2920 C.ar      1 H8E        -0.0751
     45 CAP         3.7380   -6.7650    8.1270 C.ar      1 H8E        -0.0736
     46 CAV         3.1760   -7.4060    9.2310 C.ar      1 H8E        -0.0423
     47 H1          7.5148   -6.8785    8.4522 H         1 H8E         0.0557
     48 H2          9.9024   -6.1790    8.6978 H         1 H8E         0.0599
     49 H3         11.3482   -7.2835   10.3685 H         1 H8E         0.0559
     50 H4         10.4439   -9.0644   11.8493 H         1 H8E         0.0599
     51 H5          8.0705   -9.6849   11.6272 H         1 H8E         0.0557
     52 H6          5.6948   -7.9647    9.5555 H         1 H8E         0.0683
     53 H7          5.9711   -9.0162   10.9854 H         1 H8E         0.0683
     54 H8          6.6530  -10.1233    8.3222 H         1 H8E         0.1878
     55 H9          4.1147  -11.6508    7.7041 H         1 H8E         0.0861
     56 H10         5.7379  -12.8509    6.9680 H         1 H8E         0.2134
     57 H11         4.9117  -13.4613    9.9423 H         1 H8E         0.0607
     58 H12         5.6876  -14.6316    7.9277 H         1 H8E         0.0290
     59 H13         4.0544  -14.4583    7.2001 H         1 H8E         0.0290
     60 H14         3.1495  -15.7100    9.2168 H         1 H8E         0.0268
     61 H15         4.8541  -16.0551    9.6661 H         1 H8E         0.0268
     62 H16         3.6373  -16.8411    6.9861 H         1 H8E         0.0317
     63 H17         3.6170  -17.9042    8.4339 H         1 H8E         0.0317
     64 H18         6.1002  -17.8172    8.5158 H         1 H8E         0.0813
     65 H19         6.1028  -16.7884    7.0433 H         1 H8E         0.0813
     66 H20         6.3953  -19.1236    6.5078 H         1 H8E         0.1994
     67 H21         4.9739  -18.5776    5.8828 H         1 H8E         0.1994
     68 H22         4.9715  -19.5204    7.2321 H         1 H8E         0.1994
     69 H23         2.2999  -13.0457    8.5993 H         1 H8E         0.1857
     70 H24         0.4698  -13.4915    9.6707 H         1 H8E         0.0801
     71 H25        -0.1170  -13.1486   12.4590 H         1 H8E         0.1899
     72 H26         0.3015  -17.3763   13.0772 H         1 H8E         0.0776
     73 H27        -1.3106  -17.3828   12.2848 H         1 H8E         0.0776
     74 H28        -3.2906  -17.5328   13.5782 H         1 H8E         0.0557
     75 H29        -4.3702  -18.0728   15.7934 H         1 H8E         0.0599
     76 H30        -2.9405  -17.8402   17.8504 H         1 H8E         0.0559
     77 H31        -0.6036  -17.1470   17.6673 H         1 H8E         0.0599
     78 H32         0.4598  -16.7531   15.4867 H         1 H8E         0.0557
     79 H33        -0.4119  -11.3981   10.6795 H         1 H8E         0.0337
     80 H34         1.1074  -11.1169    9.7633 H         1 H8E         0.0337
     81 H35         2.3214  -11.3054   12.0550 H         1 H8E         0.0505
     82 H36         0.6918  -11.1515   12.7949 H         1 H8E         0.0505
     83 H37         3.2803   -9.5326   11.0729 H         1 H8E         0.2159
     84 H38         3.5061   -6.1524   13.0966 H         1 H8E         0.0501
     85 H39         4.2249   -7.7922   13.2412 H         1 H8E         0.0501
     86 H40         2.5197   -7.5125   13.7318 H         1 H8E         0.0501
     87 H41         4.4484   -5.3724   11.6780 H         1 H8E         0.0516
     88 H42         5.3025   -4.1596    9.6820 H         1 H8E         0.0583
     89 H43         4.9273   -5.1117    7.4230 H         1 H8E         0.0505
     90 H44         3.5796   -7.1680    7.1332 H         1 H8E         0.0583
     91 H45         2.5683   -8.2944    9.1029 H         1 H8E         0.0516
@<TRIPOS>BOND
     1    1    2 ar 
     2    1    6 ar 
     3    2    3 ar 
     4    3    4 ar 
     5    4    5 ar 
     6    5    6 ar 
     7    6    7 1  
     8    7    8 1  
     9    8    9 am 
    10    9   10 2  
    11    9   11 1  
    12   11   12 1  
    13   11   13 1  
    14   13   14 1  
    15   13   19 1  
    16   14   15 1  
    17   15   16 1  
    18   16   17 1  
    19   17   18 1  
    20   19   20 am 
    21   20   21 2  
    22   20   22 1  
    23   22   23 1  
    24   22   34 1  
    25   23   24 am 
    26   24   25 2  
    27   24   26 1  
    28   26   27 1  
    29   27   28 1  
    30   28   29 ar 
    31   28   33 ar 
    32   29   30 ar 
    33   30   31 ar 
    34   31   32 ar 
    35   32   33 ar 
    36   34   35 1  
    37   35   36 1  
    38   36   37 2  
    39   36   38 am 
    40   38   39 1  
    41   39   40 1  
    42   39   41 1  
    43   41   42 ar 
    44   41   46 ar 
    45   42   43 ar 
    46   43   44 ar 
    47   44   45 ar 
    48   45   46 ar 
    49    1   47 1  
    50    2   48 1  
    51    3   49 1  
    52    4   50 1  
    53    5   51 1  
    54    7   52 1  
    55    7   53 1  
    56    8   54 1  
    57   11   55 1  
    58   12   56 1  
    59   13   57 1  
    60   14   58 1  
    61   14   59 1  
    62   15   60 1  
    63   15   61 1  
    64   16   62 1  
    65   16   63 1  
    66   17   64 1  
    67   17   65 1  
    68   18   66 1  
    69   18   67 1  
    70   18   68 1  
    71   19   69 1  
    72   22   70 1  
    73   23   71 1  
    74   27   72 1  
    75   27   73 1  
    76   29   74 1  
    77   30   75 1  
    78   31   76 1  
    79   32   77 1  
    80   33   78 1  
    81   34   79 1  
    82   34   80 1  
    83   35   81 1  
    84   35   82 1  
    85   38   83 1  
    86   40   84 1  
    87   40   85 1  
    88   40   86 1  
    89   42   87 1  
    90   43   88 1  
    91   44   89 1  
    92   45   90 1  
    93   46   91 1  
@<TRIPOS>SUBSTRUCTURE
     1 H8E         1

