### 
### Created by X-TOOL on Mon Aug  2 16:14:12 2021
### 

@<TRIPOS>MOLECULE
6iar_ligand
   53    56     1     0     0
SMALL
GAST_HUCK


@<TRIPOS>ATOM
      1 C1         -1.3980  -35.8360   37.9300 C.3       1 H8W        -0.0578
      2 C2         -1.9300  -34.5530   38.5230 C.3       1 H8W        -0.0064
      3 C3         -1.2350  -34.4650   39.8790 C.3       1 H8W        -0.0578
      4 C7         -3.3500  -30.3050   38.9310 C.3       1 H8W         0.0204
      5 C8         -2.2550  -29.3040   38.5810 C.ar      1 H8W        -0.0135
      6 C9         -1.0330  -29.6490   38.0360 C.ar      1 H8W         0.0197
      7 C10        -0.0730  -28.6630   37.7650 C.ar      1 H8W        -0.0592
      8 C11        -0.2740  -27.3040   37.9550 C.ar      1 H8W        -0.0720
      9 C12        -1.4730  -26.9720   38.4680 C.ar      1 H8W        -0.0279
     10 C13        -2.4350  -27.9340   38.7680 C.ar      1 H8W         0.0283
     11 C14        -3.4460  -27.1390   39.2600 C.2       1 H8W         0.1042
     12 C19         0.6130  -31.3590   38.4410 C.ar      1 H8W         0.0179
     13 C20         0.7510  -31.1280   39.8100 C.ar      1 H8W        -0.0494
     14 C21         1.9830  -31.3630   40.4300 C.ar      1 H8W        -0.0570
     15 C22         3.0560  -31.8330   39.6810 C.ar      1 H8W        -0.0247
     16 C24         1.6830  -31.8510   37.7010 C.ar      1 H8W        -0.0494
     17 C27         6.1900  -31.8490   41.7630 C.2       1 H8W         0.0495
     18 O28         6.6030  -32.8870   41.1540 O.co2     1 H8W        -0.5646
     19 C4         -1.5600  -33.3640   37.5980 C.3       1 H8W        -0.0263
     20 N5         -1.7320  -32.0790   38.3110 N.4       1 H8W         0.2619
     21 C6         -3.1350  -31.6060   38.1260 C.3       1 H8W        -0.0201
     22 N15        -3.2190  -25.7980   39.3060 N.pl3     1 H8W        -0.2464
     23 N16        -1.9780  -25.7460   38.8100 N.2       1 H8W        -0.3399
     24 C18        -0.6800  -31.1020   37.7950 C.3       1 H8W         0.0455
     25 C23         2.8990  -32.0840   38.3240 C.ar      1 H8W        -0.0570
     26 C25         4.3640  -32.1100   40.3010 C.2       1 H8W        -0.0504
     27 C26         4.8420  -31.3150   41.2700 C.2       1 H8W        -0.0316
     28 O29         6.7200  -31.2580   42.7620 O.co2     1 H8W        -0.5646
     29 H1         -1.6602  -36.6794   38.5857 H         1 H8W         0.0234
     30 H2         -0.3039  -35.7707   37.8364 H         1 H8W         0.0234
     31 H3         -1.8424  -35.9925   36.9360 H         1 H8W         0.0234
     32 H4         -3.0220  -34.5952   38.6487 H         1 H8W         0.0347
     33 H5         -1.5596  -33.5515   40.3987 H         1 H8W         0.0234
     34 H6         -0.1454  -34.4353   39.7313 H         1 H8W         0.0234
     35 H7         -1.4992  -35.3447   40.4842 H         1 H8W         0.0234
     36 H8         -4.3318  -29.8769   38.6805 H         1 H8W         0.0465
     37 H9         -3.3115  -30.5292   40.0072 H         1 H8W         0.0465
     38 H10         0.8889  -28.9842   37.3820 H         1 H8W         0.0544
     39 H11         0.4789  -26.5641   37.7086 H         1 H8W         0.0542
     40 H12        -4.3889  -27.5660   39.5985 H         1 H8W         0.1355
     41 H13        -0.0914  -30.7686   40.3899 H         1 H8W         0.0572
     42 H14         2.1007  -31.1791   41.4918 H         1 H8W         0.0627
     43 H15         1.5664  -32.0513   36.6421 H         1 H8W         0.0572
     44 H16        -2.2132  -33.3770   36.7131 H         1 H8W         0.0817
     45 H17        -0.5114  -33.4645   37.2813 H         1 H8W         0.0817
     46 H18        -1.5756  -32.2215   39.2965 H         1 H8W         0.2067
     47 H19        -3.3187  -31.4117   37.0590 H         1 H8W         0.0837
     48 H20        -3.8323  -32.3779   38.4835 H         1 H8W         0.0837
     49 H21        -3.8313  -25.0365   39.6316 H         1 H8W         0.2933
     50 H22        -0.5770  -31.2586   36.7111 H         1 H8W         0.1173
     51 H23         3.7342  -32.4652   37.7476 H         1 H8W         0.0627
     52 H24         4.9476  -32.9676   39.9696 H         1 H8W         0.0687
     53 H25         4.3456  -30.4231   41.6494 H         1 H8W         0.0599
@<TRIPOS>BOND
     1    2    1 1  
     2    2    3 1  
     3   19    2 1  
     4    5    4 1  
     5   21    4 1  
     6    6    5 ar 
     7    5   10 ar 
     8    6    7 ar 
     9   24    6 1  
    10    7    8 ar 
    11    8    9 ar 
    12   10    9 ar 
    13    9   23 2  
    14   10   11 2  
    15   11   22 1  
    16   13   12 ar 
    17   16   12 ar 
    18   12   24 1  
    19   14   13 ar 
    20   15   14 ar 
    21   15   25 ar 
    22   26   15 1  
    23   25   16 ar 
    24   17   18 ar 
    25   27   17 1  
    26   17   28 ar 
    27   20   19 1  
    28   20   21 1  
    29   24   20 1  
    30   23   22 1  
    31   26   27 2  
    32    1   29 1  
    33    1   30 1  
    34    1   31 1  
    35    2   32 1  
    36    3   33 1  
    37    3   34 1  
    38    3   35 1  
    39    4   36 1  
    40    4   37 1  
    41    7   38 1  
    42    8   39 1  
    43   11   40 1  
    44   13   41 1  
    45   14   42 1  
    46   16   43 1  
    47   19   44 1  
    48   19   45 1  
    49   20   46 1  
    50   21   47 1  
    51   21   48 1  
    52   22   49 1  
    53   24   50 1  
    54   25   51 1  
    55   26   52 1  
    56   27   53 1  
@<TRIPOS>SUBSTRUCTURE
     1 H8W         1

