### 
### Created by X-TOOL on Mon Aug  2 16:10:15 2021
### 

@<TRIPOS>MOLECULE
6ib0_ligand
   40    42     1     0     0
SMALL
GAST_HUCK


@<TRIPOS>ATOM
      1 N1        -22.6530    5.7710   -3.5500 N.ar      1 H8Z        -0.2655
      2 C2        -22.6750    7.0370   -2.9600 C.ar      1 H8Z         0.0565
      3 C5        -24.0130    6.5810   -5.2630 C.ar      1 H8Z         0.0953
      4 C6        -23.3290    5.5880   -4.6900 C.ar      1 H8Z         0.1282
      5 C4        -24.0320    7.8100   -4.7440 C.ar      1 H8Z         0.1644
      6 CAJ       -24.7510    6.6800   -6.3590 C.2       1 H8Z         0.1157
      7 CAK       -25.0340    5.6340   -7.3130 C.1       1 H8Z        -0.0590
      8 CAL       -25.2690    4.7730   -8.1010 C.1       1 H8Z        -0.1150
      9 CAM       -25.2520    9.9940   -5.5200 C.3       1 H8Z         0.1015
     10 CAN       -26.6510   10.2830   -6.0720 C.3       1 H8Z        -0.0177
     11 CAO       -26.8540   11.7940   -5.9810 C.3       1 H8Z        -0.0296
     12 CAP       -25.8420   12.5740   -6.7690 C.3       1 H8Z         0.0341
     13 CAR       -24.1430   10.8400   -6.2140 C.3       1 H8Z         0.0652
     14 CAS       -23.6140   13.3030   -6.2900 C.2       1 H8Z         0.1783
     15 CAU       -22.2030   13.0330   -5.8000 C.3       1 H8Z         0.0346
     16 CAV       -21.3340   14.1870   -6.3050 C.3       1 H8Z        -0.0482
     17 N3        -23.4020    8.0580   -3.5870 N.ar      1 H8Z        -0.2676
     18 NAG       -23.3520    4.4090   -5.3060 N.pl3     1 H8Z        -0.3124
     19 NAH       -24.8440    8.5570   -5.5030 N.pl3     1 H8Z        -0.1771
     20 NAI       -25.2090    7.9190   -6.4580 N.2       1 H8Z        -0.1835
     21 NAQ       -24.4820   12.2830   -6.2820 N.am      1 H8Z        -0.2703
     22 OAT       -23.9840   14.4690   -6.4150 O.2       1 H8Z        -0.3969
     23 H1        -22.1406    7.2259   -2.0360 H         1 H8Z         0.1029
     24 H2        -25.4774    4.0093   -8.7999 H         1 H8Z         0.1220
     25 H3        -25.2809   10.3143   -4.4681 H         1 H8Z         0.0681
     26 H4        -27.4109    9.7614   -5.4716 H         1 H8Z         0.0296
     27 H5        -26.7212    9.9533   -7.1191 H         1 H8Z         0.0296
     28 H6        -26.7817   12.0937   -4.9251 H         1 H8Z         0.0286
     29 H7        -27.8568   12.0359   -6.3630 H         1 H8Z         0.0286
     30 H8        -26.0453   13.6493   -6.6575 H         1 H8Z         0.0522
     31 H9        -25.9150   12.2951   -7.8306 H         1 H8Z         0.0522
     32 H10       -24.0017   10.4631   -7.2377 H         1 H8Z         0.0553
     33 H11       -23.2067   10.7248   -5.6483 H         1 H8Z         0.0553
     34 H12       -21.8373   12.0778   -6.2048 H         1 H8Z         0.0500
     35 H13       -22.1838   12.9968   -4.7008 H         1 H8Z         0.0500
     36 H14       -20.2959   14.0364   -5.9738 H         1 H8Z         0.0254
     37 H15       -21.7139   15.1366   -5.9000 H         1 H8Z         0.0254
     38 H16       -21.3675   14.2175   -7.4041 H         1 H8Z         0.0254
     39 H17       -23.8807    4.2962   -6.1827 H         1 H8Z         0.1843
     40 H18       -22.8411    3.6090   -4.9062 H         1 H8Z         0.1843
@<TRIPOS>BOND
     1    2    1 ar 
     2    4    1 ar 
     3   17    2 ar 
     4    3    4 ar 
     5    5    3 ar 
     6    3    6 1  
     7    4   18 1  
     8    5   17 ar 
     9   19    5 1  
    10    6    7 1  
    11    6   20 2  
    12    7    8 3  
    13    9   10 1  
    14   13    9 1  
    15    9   19 1  
    16   11   10 1  
    17   12   11 1  
    18   21   12 1  
    19   21   13 1  
    20   14   15 1  
    21   14   21 am 
    22   14   22 2  
    23   15   16 1  
    24   19   20 1  
    25    2   23 1  
    26    8   24 1  
    27    9   25 1  
    28   10   26 1  
    29   10   27 1  
    30   11   28 1  
    31   11   29 1  
    32   12   30 1  
    33   12   31 1  
    34   13   32 1  
    35   13   33 1  
    36   15   34 1  
    37   15   35 1  
    38   16   36 1  
    39   16   37 1  
    40   16   38 1  
    41   18   39 1  
    42   18   40 1  
@<TRIPOS>SUBSTRUCTURE
     1 H8Z         1

