### 
### Created by X-TOOL on Mon Aug  2 16:10:15 2021
### 

@<TRIPOS>MOLECULE
6ib2_ligand
   59    63     1     0     0
SMALL
GAST_HUCK


@<TRIPOS>ATOM
      1 N         -23.0770    6.5600   -3.1000 N.ar      1 MOL        -0.2660
      2 C         -22.9880    7.7810   -2.5330 C.ar      1 MOL         0.0562
      3 O         -30.1650    4.1750  -13.5830 O.2       1 MOL        -0.3820
      4 C1        -24.1370    8.8720   -4.2660 C.ar      1 MOL         0.1608
      5 C10       -28.9170    5.5010  -12.0940 C.ar      1 MOL         0.0259
      6 C11       -28.5020    4.4260  -11.3270 C.ar      1 MOL        -0.0460
      7 C12       -27.6490    4.6380  -10.2510 C.ar      1 MOL        -0.0171
      8 C13       -29.8380    5.3050  -13.2590 C.2       1 MOL         0.1251
      9 C14       -30.3330    6.5220  -13.9820 C.3       1 MOL         0.0098
     10 C15       -24.9320   11.2450   -4.9340 C.3       1 MOL         0.0994
     11 C16       -26.4120   11.5500   -4.7470 C.3       1 MOL        -0.0180
     12 C17       -26.6370   13.0540   -4.6780 C.3       1 MOL        -0.0297
     13 C18       -26.0780   13.7490   -5.9140 C.3       1 MOL         0.0341
     14 C19       -24.4380   11.9350   -6.2000 C.3       1 MOL         0.0648
     15 C2        -24.2700    7.5690   -4.9410 C.ar      1 MOL         0.0837
     16 C20       -23.6880   14.2320   -5.8540 C.2       1 MOL         0.1783
     17 C21       -22.5310   14.0740   -6.8120 C.3       1 MOL         0.0346
     18 C22       -21.5950   15.2530   -6.6730 C.3       1 MOL        -0.0482
     19 C3        -23.6950    6.3720   -4.2880 C.ar      1 MOL         0.1267
     20 C4        -25.0070    7.9200   -6.1680 C.2       1 MOL         0.0694
     21 C5        -25.3990    6.9360   -7.2140 C.2       1 MOL         0.0823
     22 C6        -26.3740    7.2230   -8.1510 C.2       1 MOL         0.1025
     23 C7        -27.1790    5.9000   -9.8900 C.ar      1 MOL         0.1268
     24 C8        -27.6200    6.9530  -10.6900 C.ar      1 MOL        -0.0171
     25 C9        -28.4730    6.7720  -11.7710 C.ar      1 MOL        -0.0460
     26 N1        -23.4900    8.9070   -3.0760 N.ar      1 MOL        -0.2682
     27 N2        -24.7370    9.7800   -5.0620 N.pl3     1 MOL        -0.1846
     28 N3        -25.2890    9.2340   -6.2450 N.2       1 MOL        -0.2063
     29 N4        -23.7850    5.1450   -4.8570 N.pl3     1 MOL        -0.3126
     30 N5        -26.3610    6.0920   -8.8530 N.pl3     1 MOL        -0.1217
     31 N6        -25.4500    5.1190   -8.4180 N.2       1 MOL        -0.0771
     32 N7        -24.8120    5.7220   -7.3160 N.2       1 MOL        -0.2140
     33 N8        -24.6790   13.3540   -5.9780 N.am      1 MOL        -0.2703
     34 O1        -23.6840   15.1200   -5.0170 O.2       1 MOL        -0.3969
     35 H1        -22.4797    7.8611   -1.5789 H         1 MOL         0.1029
     36 H2        -28.8407    3.4241  -11.5646 H         1 MOL         0.0657
     37 H3        -27.3342    3.7822   -9.6648 H         1 MOL         0.0609
     38 H4        -29.9082    7.4234  -13.5161 H         1 MOL         0.0448
     39 H5        -31.4307    6.5619  -13.9239 H         1 MOL         0.0448
     40 H6        -30.0231    6.4735  -15.0363 H         1 MOL         0.0448
     41 H7        -24.3667   11.6162   -4.0665 H         1 MOL         0.0677
     42 H8        -26.7626   11.0875   -3.8126 H         1 MOL         0.0296
     43 H9        -26.9776   11.1371   -5.5953 H         1 MOL         0.0296
     44 H10       -26.1347   13.4519   -3.7839 H         1 MOL         0.0286
     45 H11       -27.7167   13.2532   -4.6112 H         1 MOL         0.0286
     46 H12       -26.1657   14.8410   -5.8146 H         1 MOL         0.0522
     47 H13       -26.6130   13.4188   -6.8166 H         1 MOL         0.0522
     48 H14       -24.9995   11.5807   -7.0770 H         1 MOL         0.0553
     49 H15       -23.3651   11.7445   -6.3500 H         1 MOL         0.0553
     50 H16       -22.9124   14.0286   -7.8428 H         1 MOL         0.0500
     51 H17       -21.9879   13.1458   -6.5807 H         1 MOL         0.0500
     52 H18       -20.7529   15.1369   -7.3711 H         1 MOL         0.0254
     53 H19       -21.2133   15.2986   -5.6424 H         1 MOL         0.0254
     54 H20       -22.1377   16.1814   -6.9045 H         1 MOL         0.0254
     55 H21       -26.9799    8.1188   -8.2785 H         1 MOL         0.1073
     56 H22       -27.2825    7.9567  -10.4583 H         1 MOL         0.0609
     57 H23       -28.7906    7.6243  -12.3608 H         1 MOL         0.0657
     58 H24       -24.2616    5.0311   -5.7630 H         1 MOL         0.1842
     59 H25       -23.3768    4.3265   -4.3834 H         1 MOL         0.1842
@<TRIPOS>BOND
     1    1    2 ar 
     2   19    1 ar 
     3   26    2 ar 
     4    8    3 2  
     5   15    4 ar 
     6    4   26 ar 
     7    4   27 1  
     8    6    5 ar 
     9    5    8 1  
    10    5   25 ar 
    11    7    6 ar 
    12   23    7 ar 
    13    8    9 1  
    14   10   11 1  
    15   10   14 1  
    16   27   10 1  
    17   11   12 1  
    18   12   13 1  
    19   33   13 1  
    20   14   33 1  
    21   15   19 ar 
    22   20   15 1  
    23   16   17 1  
    24   33   16 am 
    25   16   34 2  
    26   17   18 1  
    27   19   29 1  
    28   21   20 1  
    29   20   28 2  
    30   22   21 2  
    31   21   32 1  
    32   30   22 1  
    33   23   24 ar 
    34   23   30 1  
    35   24   25 ar 
    36   27   28 1  
    37   30   31 1  
    38   31   32 2  
    39    2   35 1  
    40    6   36 1  
    41    7   37 1  
    42    9   38 1  
    43    9   39 1  
    44    9   40 1  
    45   10   41 1  
    46   11   42 1  
    47   11   43 1  
    48   12   44 1  
    49   12   45 1  
    50   13   46 1  
    51   13   47 1  
    52   14   48 1  
    53   14   49 1  
    54   17   50 1  
    55   17   51 1  
    56   18   52 1  
    57   18   53 1  
    58   18   54 1  
    59   22   55 1  
    60   24   56 1  
    61   25   57 1  
    62   29   58 1  
    63   29   59 1  
@<TRIPOS>SUBSTRUCTURE
     1 MOL         1

