### 
### Created by X-TOOL on Mon Aug  2 16:14:12 2021
### 

@<TRIPOS>MOLECULE
6ibk_ligand
   29    30     1     0     0
SMALL
GAST_HUCK


@<TRIPOS>ATOM
      1 O1        -28.4620   15.6160   -6.5790 O.2       1 YTW        -0.1268
      2 S1        -27.9500   15.1750   -5.3430 S.o2      1 YTW         0.1628
      3 O2        -27.6840   13.7990   -5.1690 O.2       1 YTW        -0.1268
      4 N1        -28.8340   15.7720   -4.1060 N.am      1 YTW        -0.2199
      5 C1        -27.9400   16.4210   -3.1460 C.3       1 YTW         0.0968
      6 C2        -26.7850   16.9540   -4.0230 C.3       1 YTW         0.1184
      7 O3        -26.6040   15.9420   -5.0210 O.3       1 YTW        -0.2169
      8 C3        -27.0110   18.2810   -4.7300 C.3       1 YTW         0.0411
      9 C4        -25.6690   18.9100   -5.0800 C.3       1 YTW         0.0520
     10 O4        -24.7770   17.9540   -5.6430 O.3       1 YTW        -0.3946
     11 C5        -27.9260   19.2790   -4.0120 C.3       1 YTW         0.0909
     12 O5        -27.2230   19.9600   -2.9740 O.3       1 YTW        -0.3887
     13 C6        -29.1340   18.6080   -3.3940 C.3       1 YTW         0.1091
     14 O6        -29.9060   19.5860   -2.6960 O.3       1 YTW        -0.3866
     15 C7        -28.6700   17.5350   -2.4110 C.3       1 YTW         0.1055
     16 O7        -29.7700   16.9710   -1.6980 O.3       1 YTW        -0.3872
     17 H1        -29.8279   15.7048   -4.0185 H         1 YTW         0.1697
     18 H2        -27.5606   15.6944   -2.4124 H         1 YTW         0.0565
     19 H3        -25.8831   17.0493   -3.4005 H         1 YTW         0.0645
     20 H4        -27.5135   18.0414   -5.6787 H         1 YTW         0.0375
     21 H5        -25.2188   19.3242   -4.1658 H         1 YTW         0.0561
     22 H6        -25.8320   19.7189   -5.8074 H         1 YTW         0.0561
     23 H7        -23.9515   18.3762   -5.8498 H         1 YTW         0.2094
     24 H8        -28.2729   20.0163   -4.7510 H         1 YTW         0.0624
     25 H9        -26.4887   20.4328   -3.3478 H         1 YTW         0.2099
     26 H10       -29.7459   18.1468   -4.1832 H         1 YTW         0.0646
     27 H11       -30.6655   19.1691   -2.3063 H         1 YTW         0.2100
     28 H12       -27.9811   17.9986   -1.6896 H         1 YTW         0.0640
     29 H13       -30.3754   16.5749   -2.3137 H         1 YTW         0.2100
@<TRIPOS>BOND
     1    1    2 2  
     2    2    3 2  
     3    2    4 am 
     4    2    7 1  
     5    4    5 1  
     6    5    6 1  
     7    5   15 1  
     8    6    7 1  
     9    6    8 1  
    10    8    9 1  
    11    8   11 1  
    12    9   10 1  
    13   11   12 1  
    14   11   13 1  
    15   13   14 1  
    16   13   15 1  
    17   15   16 1  
    18    4   17 1  
    19    5   18 1  
    20    6   19 1  
    21    8   20 1  
    22    9   21 1  
    23    9   22 1  
    24   10   23 1  
    25   11   24 1  
    26   12   25 1  
    27   13   26 1  
    28   14   27 1  
    29   15   28 1  
    30   16   29 1  
@<TRIPOS>SUBSTRUCTURE
     1 YTW         1

