### 
### Created by X-TOOL on Mon Aug  2 16:10:52 2021
### 

@<TRIPOS>MOLECULE
6ibl_ligand
   50    51     1     0     0
SMALL
GAST_HUCK


@<TRIPOS>ATOM
      1 C1        -43.2490   29.9130  -10.7280 C.3       1 H98        -0.0199
      2 C2        -42.7880   28.4540  -10.5480 C.3       1 H98        -0.0172
      3 C3        -42.8250   28.0070   -9.0710 C.3       1 H98         0.0187
      4 C4        -44.1100   27.3100   -8.6750 C.ar      1 H98        -0.0484
      5 C5        -44.3070   25.9610   -8.9610 C.ar      1 H98        -0.0685
      6 C6        -45.4760   25.3060   -8.6050 C.ar      1 H98        -0.0396
      7 C7        -46.4850   26.0080   -7.9480 C.ar      1 H98         0.0837
      8 C8        -46.2990   27.3560   -7.6430 C.ar      1 H98        -0.0396
      9 C9        -45.1220   27.9940   -8.0120 C.ar      1 H98        -0.0685
     10 O1        -47.6710   25.4130   -7.5910 O.3       1 H98        -0.3257
     11 C10       -48.3530   24.5630   -8.5190 C.3       1 H98         0.0579
     12 N1        -41.4380   28.2310  -11.1180 N.4       1 H98         0.2334
     13 C11       -41.3380   28.4510  -12.5650 C.3       1 H98         0.0015
     14 C12       -40.1850   27.6880  -13.2140 C.3       1 H98         0.1205
     15 C13       -40.1340   28.0380  -14.6980 C.ar      1 H98        -0.0341
     16 C14       -41.1770   27.6580  -15.5430 C.ar      1 H98        -0.0449
     17 C15       -41.1410   27.9620  -16.9020 C.ar      1 H98         0.0901
     18 C16       -40.0410   28.6420  -17.4380 C.ar      1 H98         0.1021
     19 C17       -39.0040   29.0290  -16.5920 C.ar      1 H98        -0.0525
     20 C18       -39.0590   28.7290  -15.2450 C.ar      1 H98        -0.0817
     21 O2        -40.0390   28.9150  -18.7630 O.3       1 H98        -0.3437
     22 N2        -42.1660   27.6170  -17.8110 N.am      1 H98        -0.2397
     23 C19       -43.2330   26.8460  -17.6110 C.2       1 H98         0.1943
     24 O3        -44.2890   26.9450  -18.2180 O.2       1 H98        -0.3721
     25 O4        -38.9950   27.9670  -12.4870 O.3       1 H98        -0.3759
     26 H1        -44.2518   30.0369  -10.2933 H         1 H98         0.0286
     27 H2        -43.2813   30.1578  -11.7999 H         1 H98         0.0286
     28 H3        -42.5432   30.5860  -10.2193 H         1 H98         0.0286
     29 H4        -43.4932   27.8186  -11.1039 H         1 H98         0.0869
     30 H5        -42.7035   28.8971   -8.4362 H         1 H98         0.0460
     31 H6        -41.9876   27.3154   -8.8969 H         1 H98         0.0460
     32 H7        -43.5274   25.4099   -9.4744 H         1 H98         0.0530
     33 H8        -45.6044   24.2547   -8.8362 H         1 H98         0.0525
     34 H9        -47.0724   27.9053   -7.1184 H         1 H98         0.0525
     35 H10       -44.9902   29.0444   -7.7787 H         1 H98         0.0530
     36 H11       -49.2760   24.1823   -8.0574 H         1 H98         0.0575
     37 H12       -47.7024   23.7180   -8.7888 H         1 H98         0.0575
     38 H13       -48.6047   25.1355   -9.4239 H         1 H98         0.0575
     39 H14       -41.1699   27.2784  -10.9263 H         1 H98         0.2020
     40 H15       -40.7964   28.8593  -10.6601 H         1 H98         0.2020
     41 H16       -41.1905   29.5260  -12.7453 H         1 H98         0.0861
     42 H17       -42.2789   28.1263  -13.0333 H         1 H98         0.0861
     43 H18       -40.3808   26.6086  -13.1332 H         1 H98         0.0788
     44 H19       -42.0258   27.1196  -15.1371 H         1 H98         0.0409
     45 H20       -38.1520   29.5668  -16.9919 H         1 H98         0.0479
     46 H21       -38.2453   29.0395  -14.5996 H         1 H98         0.0403
     47 H22       -39.2794   28.5121  -19.1671 H         1 H98         0.2412
     48 H23       -42.0783   28.0042  -18.7288 H         1 H98         0.2229
     49 H24       -43.1592   26.0700  -16.8505 H         1 H98         0.1607
     50 H25       -38.8028   28.8958  -12.5408 H         1 H98         0.2129
@<TRIPOS>BOND
     1    1    2 1  
     2    2    3 1  
     3    2   12 1  
     4    3    4 1  
     5    4    5 ar 
     6    4    9 ar 
     7    5    6 ar 
     8    6    7 ar 
     9    7    8 ar 
    10    7   10 1  
    11    8    9 ar 
    12   10   11 1  
    13   12   13 1  
    14   13   14 1  
    15   14   15 1  
    16   14   25 1  
    17   15   16 ar 
    18   15   20 ar 
    19   16   17 ar 
    20   17   18 ar 
    21   17   22 1  
    22   18   19 ar 
    23   18   21 1  
    24   19   20 ar 
    25   22   23 am 
    26   23   24 2  
    27    1   26 1  
    28    1   27 1  
    29    1   28 1  
    30    2   29 1  
    31    3   30 1  
    32    3   31 1  
    33    5   32 1  
    34    6   33 1  
    35    8   34 1  
    36    9   35 1  
    37   11   36 1  
    38   11   37 1  
    39   11   38 1  
    40   12   39 1  
    41   12   40 1  
    42   13   41 1  
    43   13   42 1  
    44   14   43 1  
    45   16   44 1  
    46   19   45 1  
    47   20   46 1  
    48   21   47 1  
    49   22   48 1  
    50   23   49 1  
    51   25   50 1  
@<TRIPOS>SUBSTRUCTURE
     1 H98         1

