### 
### Created by X-TOOL on Mon Aug  2 16:10:53 2021
### 

@<TRIPOS>MOLECULE
6ibx_ligand
   67    72     1     0     0
SMALL
GAST_HUCK


@<TRIPOS>ATOM
      1 CBJ        84.4290   46.6210  266.9370 C.3       1 H9Z        -0.0202
      2 CBI        83.4950   45.7050  266.1570 C.3       1 H9Z        -0.0103
      3 CBH        83.2760   44.4370  266.9190 C.3       1 H9Z        -0.0320
      4 NBG        84.5440   43.7620  267.2120 N.4       1 H9Z         0.2347
      5 CBK        84.3390   42.6180  268.1060 C.3       1 H9Z        -0.0430
      6 CBF        85.5150   44.6040  267.8920 C.3       1 H9Z        -0.0087
      7 CBE        85.7320   45.9400  267.2640 C.3       1 H9Z         0.0813
      8 NBD        86.5840   45.8300  266.0620 N.am      1 H9Z        -0.2784
      9 CBB        87.5540   46.7510  265.9030 C.2       1 H9Z         0.2082
     10 OBC        87.7950   47.5400  266.8100 O.2       1 H9Z        -0.3863
     11 CAW        88.4130   46.6480  264.7890 C.ar      1 H9Z         0.0912
     12 CAX        87.9820   46.0260  263.6210 C.ar      1 H9Z        -0.0247
     13 CAY        88.8100   45.8620  262.5200 C.ar      1 H9Z         0.0041
     14 NAZ        90.1220   46.3200  262.5720 N.ar      1 H9Z        -0.3037
     15 CBA        90.5690   46.9520  263.7300 C.ar      1 H9Z         0.0396
     16 CAV        89.7350   47.1240  264.8320 C.ar      1 H9Z         0.1090
     17 NAQ        90.1240   47.7630  265.9560 N.pl3     1 H9Z        -0.2606
     18 CAA        91.4250   47.9690  266.2570 C.ar      1 H9Z         0.0710
     19 CAB        91.7570   49.1810  266.8570 C.ar      1 H9Z        -0.0180
     20 CAF        92.4290   46.9930  266.0980 C.ar      1 H9Z        -0.0142
     21 CAE        93.7250   47.2720  266.5110 C.ar      1 H9Z         0.0611
     22 NAM        94.7090   46.3490  266.3390 N.ar      1 H9Z        -0.2794
     23 CAN        96.0280   46.6270  266.7280 C.ar      1 H9Z         0.0365
     24 CAO        96.3240   47.8470  267.3300 C.ar      1 H9Z         0.0383
     25 NAP        95.3170   48.7770  267.4840 N.ar      1 H9Z        -0.2743
     26 CAD        94.0520   48.5140  267.0690 C.ar      1 H9Z         0.0740
     27 CAC        93.0550   49.4640  267.2610 C.ar      1 H9Z         0.0036
     28 CAG        93.3200   50.7040  267.8830 C.ar      1 H9Z        -0.0275
     29 CAH        92.5850   51.0930  268.9950 C.ar      1 H9Z        -0.0333
     30 CAI        92.7990   52.2690  269.5840 C.ar      1 H9Z         0.0681
     31 NAT        92.2120   52.8510  270.6230 N.pl3     1 H9Z        -0.2674
     32 CAU        91.1590   52.2880  271.4620 C.3       1 H9Z         0.0409
     33 CAS        92.7970   54.0390  270.8480 C.2       1 H9Z         0.0256
     34 CAR        93.7440   54.2230  269.9260 C.2       1 H9Z        -0.0617
     35 CAJ        93.7490   53.1110  269.1440 C.ar      1 H9Z        -0.0257
     36 CAK        94.4910   52.7780  268.0820 C.ar      1 H9Z        -0.0732
     37 CAL        94.3090   51.5610  267.4400 C.ar      1 H9Z        -0.0694
     38 H1         83.9365   46.9174  267.8749 H         1 H9Z         0.0291
     39 H2         84.6366   47.5165  266.3329 H         1 H9Z         0.0291
     40 H3         83.9442   45.4712  265.1805 H         1 H9Z         0.0318
     41 H4         82.5302   46.2109  266.0051 H         1 H9Z         0.0318
     42 H5         82.6430   43.7650  266.3209 H         1 H9Z         0.0814
     43 H6         82.7687   44.6720  267.8663 H         1 H9Z         0.0814
     44 H7         84.9360   43.4449  266.3392 H         1 H9Z         0.2031
     45 H8         85.3052   42.1325  268.3076 H         1 H9Z         0.0778
     46 H9         83.6589   41.8970  267.6289 H         1 H9Z         0.0778
     47 H10        83.8992   42.9662  269.0522 H         1 H9Z         0.0778
     48 H11        86.4779   44.0725  267.9073 H         1 H9Z         0.0837
     49 H12        85.1675   44.7630  268.9235 H         1 H9Z         0.0837
     50 H13        86.2622   46.5685  267.9947 H         1 H9Z         0.0608
     51 H14        86.4459   45.1002  265.3925 H         1 H9Z         0.1848
     52 H15        86.9641   45.6569  263.5697 H         1 H9Z         0.0727
     53 H16        88.4363   45.3795  261.6241 H         1 H9Z         0.0730
     54 H17        91.5884   47.3180  263.7744 H         1 H9Z         0.0755
     55 H18        89.4033   48.1056  266.6072 H         1 H9Z         0.2150
     56 H19        90.9820   49.9228  267.0127 H         1 H9Z         0.0623
     57 H20        92.1914   46.0318  265.6567 H         1 H9Z         0.0515
     58 H21        96.8115   45.8967  266.5609 H         1 H9Z         0.0932
     59 H22        97.3297   48.0626  267.6722 H         1 H9Z         0.0902
     60 H23        91.8247   50.4292  269.3904 H         1 H9Z         0.0563
     61 H24        90.8824   53.0146  272.2401 H         1 H9Z         0.0566
     62 H25        91.5222   51.3640  271.9357 H         1 H9Z         0.0566
     63 H26        90.2787   52.0610  270.8427 H         1 H9Z         0.0566
     64 H27        92.5419   54.7338  271.6469 H         1 H9Z         0.0948
     65 H28        94.3879   55.0949  269.8205 H         1 H9Z         0.0295
     66 H29        95.2441   53.4675  267.7181 H         1 H9Z         0.0541
     67 H30        94.9362   51.2858  266.5998 H         1 H9Z         0.0529
@<TRIPOS>BOND
     1    1    2 1  
     2    1    7 1  
     3    2    3 1  
     4    3    4 1  
     5    4    5 1  
     6    4    6 1  
     7    6    7 1  
     8    7    8 1  
     9    8    9 am 
    10    9   10 2  
    11    9   11 1  
    12   11   12 ar 
    13   11   16 ar 
    14   12   13 ar 
    15   13   14 ar 
    16   14   15 ar 
    17   15   16 ar 
    18   16   17 1  
    19   17   18 1  
    20   18   19 ar 
    21   18   20 ar 
    22   19   27 ar 
    23   20   21 ar 
    24   21   22 ar 
    25   21   26 ar 
    26   22   23 ar 
    27   23   24 ar 
    28   24   25 ar 
    29   25   26 ar 
    30   26   27 ar 
    31   27   28 1  
    32   28   29 ar 
    33   28   37 ar 
    34   29   30 ar 
    35   30   31 1  
    36   30   35 ar 
    37   31   32 1  
    38   31   33 1  
    39   33   34 2  
    40   34   35 1  
    41   35   36 ar 
    42   36   37 ar 
    43    1   38 1  
    44    1   39 1  
    45    2   40 1  
    46    2   41 1  
    47    3   42 1  
    48    3   43 1  
    49    4   44 1  
    50    5   45 1  
    51    5   46 1  
    52    5   47 1  
    53    6   48 1  
    54    6   49 1  
    55    7   50 1  
    56    8   51 1  
    57   12   52 1  
    58   13   53 1  
    59   15   54 1  
    60   17   55 1  
    61   19   56 1  
    62   20   57 1  
    63   23   58 1  
    64   24   59 1  
    65   29   60 1  
    66   32   61 1  
    67   32   62 1  
    68   32   63 1  
    69   33   64 1  
    70   34   65 1  
    71   36   66 1  
    72   37   67 1  
@<TRIPOS>SUBSTRUCTURE
     1 H9Z         1

