### 
### Created by X-TOOL on Mon Aug  2 16:10:53 2021
### 

@<TRIPOS>MOLECULE
6iby_ligand
   64    69     1     0     0
SMALL
GAST_HUCK


@<TRIPOS>ATOM
      1 CBF       134.8090  -42.6500  265.4880 C.3       1 HAT         0.0154
      2 CBG       134.2660  -43.9930  265.9600 C.3       1 HAT        -0.0298
      3 NBH       135.4790  -44.7300  266.3090 N.4       1 HAT         0.2348
      4 CBJ       135.2440  -45.9610  267.1050 C.3       1 HAT        -0.0430
      5 CBI       136.3440  -43.7300  266.9690 C.3       1 HAT        -0.0085
      6 CBE       136.2160  -42.5300  266.0890 C.3       1 HAT         0.0859
      7 NBD       137.2030  -42.6180  265.0330 N.am      1 HAT        -0.2782
      8 CBB       138.3240  -41.8820  265.0100 C.2       1 HAT         0.2082
      9 OBC       138.5800  -41.1550  265.9560 O.2       1 HAT        -0.3863
     10 CAW       139.2330  -42.0600  263.9220 C.ar      1 HAT         0.0912
     11 CAX       138.7880  -42.5370  262.6940 C.ar      1 HAT        -0.0247
     12 CAY       139.6260  -42.7310  261.5940 C.ar      1 HAT         0.0041
     13 NAZ       140.9710  -42.4510  261.6970 N.ar      1 HAT        -0.3037
     14 CBA       141.4340  -41.9740  262.8970 C.ar      1 HAT         0.0396
     15 CAV       140.6010  -41.7840  264.0070 C.ar      1 HAT         0.1090
     16 NAQ       141.0350  -41.2860  265.1850 N.pl3     1 HAT        -0.2606
     17 CAA       142.3210  -40.9950  265.4870 C.ar      1 HAT         0.0710
     18 CAB       142.5940  -39.7790  266.1430 C.ar      1 HAT        -0.0180
     19 CAF       143.3740  -41.8940  265.3100 C.ar      1 HAT        -0.0142
     20 CAE       144.6570  -41.5300  265.7150 C.ar      1 HAT         0.0611
     21 NAM       145.6660  -42.3940  265.5050 N.ar      1 HAT        -0.2794
     22 CAN       146.9870  -42.1260  265.8580 C.ar      1 HAT         0.0365
     23 CAO       147.2520  -40.9350  266.5010 C.ar      1 HAT         0.0383
     24 NAP       146.1960  -40.0460  266.7290 N.ar      1 HAT        -0.2743
     25 CAD       144.9270  -40.3190  266.3410 C.ar      1 HAT         0.0740
     26 CAC       143.8860  -39.4040  266.5850 C.ar      1 HAT         0.0036
     27 CAG       144.1090  -38.1210  267.2030 C.ar      1 HAT        -0.0275
     28 CAH       143.4470  -37.6870  268.3560 C.ar      1 HAT        -0.0333
     29 CAI       143.6880  -36.4770  268.8590 C.ar      1 HAT         0.0681
     30 NAT       143.1840  -35.8440  269.9070 N.pl3     1 HAT        -0.2674
     31 CAU       142.1660  -36.3270  270.8020 C.3       1 HAT         0.0409
     32 CAS       143.7280  -34.6420  270.0160 C.2       1 HAT         0.0256
     33 CAR       144.6140  -34.5090  269.0260 C.2       1 HAT        -0.0617
     34 CAJ       144.5780  -35.6360  268.2930 C.ar      1 HAT        -0.0257
     35 CAK       145.2690  -35.9920  267.2110 C.ar      1 HAT        -0.0732
     36 CAL       145.0300  -37.2300  266.6480 C.ar      1 HAT        -0.0694
     37 H1        134.1686  -41.8309  265.8470 H         1 HAT         0.0341
     38 H2        134.8587  -42.6221  264.3895 H         1 HAT         0.0341
     39 H3        133.7118  -44.5004  265.1567 H         1 HAT         0.0815
     40 H4        133.6118  -43.8699  266.8357 H         1 HAT         0.0815
     41 H5        135.9280  -45.0239  265.4557 H         1 HAT         0.2031
     42 H6        136.2067  -46.4478  267.3203 H         1 HAT         0.0778
     43 H7        134.6042  -46.6502  266.5343 H         1 HAT         0.0778
     44 H8        134.7471  -45.6972  268.0502 H         1 HAT         0.0778
     45 H9        137.3867  -44.0778  267.0116 H         1 HAT         0.0837
     46 H10       135.9883  -43.5119  267.9868 H         1 HAT         0.0837
     47 H11       136.3357  -41.5947  266.6555 H         1 HAT         0.0610
     48 H12       137.0406  -43.2597  264.2834 H         1 HAT         0.1848
     49 H13       137.7351  -42.7706  262.5849 H         1 HAT         0.0727
     50 H14       139.2188  -43.1015  260.6602 H         1 HAT         0.0730
     51 H15       142.4871  -41.7344  262.9900 H         1 HAT         0.0755
     52 H16       140.3281  -41.1135  265.9139 H         1 HAT         0.2150
     53 H17       141.7722  -39.0944  266.3187 H         1 HAT         0.0623
     54 H18       143.1958  -42.8650  264.8623 H         1 HAT         0.0515
     55 H19       147.7802  -42.8303  265.6346 H         1 HAT         0.0932
     56 H20       148.2582  -40.6926  266.8232 H         1 HAT         0.0902
     57 H21       142.7325  -38.3399  268.8441 H         1 HAT         0.0563
     58 H22       141.9645  -35.5678  271.5720 H         1 HAT         0.0566
     59 H23       142.5104  -37.2544  271.2828 H         1 HAT         0.0566
     60 H24       141.2448  -36.5279  270.2354 H         1 HAT         0.0566
     61 H25       143.4951  -33.8969  270.7753 H         1 HAT         0.0948
     62 H26       145.2507  -33.6443  268.8448 H         1 HAT         0.0295
     63 H27       146.0050  -35.3224  266.7807 H         1 HAT         0.0541
     64 H28       145.5705  -37.5173  265.7533 H         1 HAT         0.0529
@<TRIPOS>BOND
     1    1    2 1  
     2    1    6 1  
     3    2    3 1  
     4    3    4 1  
     5    3    5 1  
     6    5    6 1  
     7    6    7 1  
     8    7    8 am 
     9    8    9 2  
    10    8   10 1  
    11   10   11 ar 
    12   10   15 ar 
    13   11   12 ar 
    14   12   13 ar 
    15   13   14 ar 
    16   14   15 ar 
    17   15   16 1  
    18   16   17 1  
    19   17   18 ar 
    20   17   19 ar 
    21   18   26 ar 
    22   19   20 ar 
    23   20   21 ar 
    24   20   25 ar 
    25   21   22 ar 
    26   22   23 ar 
    27   23   24 ar 
    28   24   25 ar 
    29   25   26 ar 
    30   26   27 1  
    31   27   28 ar 
    32   27   36 ar 
    33   28   29 ar 
    34   29   30 1  
    35   29   34 ar 
    36   30   31 1  
    37   30   32 1  
    38   32   33 2  
    39   33   34 1  
    40   34   35 ar 
    41   35   36 ar 
    42    1   37 1  
    43    1   38 1  
    44    2   39 1  
    45    2   40 1  
    46    3   41 1  
    47    4   42 1  
    48    4   43 1  
    49    4   44 1  
    50    5   45 1  
    51    5   46 1  
    52    6   47 1  
    53    7   48 1  
    54   11   49 1  
    55   12   50 1  
    56   14   51 1  
    57   16   52 1  
    58   18   53 1  
    59   19   54 1  
    60   22   55 1  
    61   23   56 1  
    62   28   57 1  
    63   31   58 1  
    64   31   59 1  
    65   31   60 1  
    66   32   61 1  
    67   33   62 1  
    68   35   63 1  
    69   36   64 1  
@<TRIPOS>SUBSTRUCTURE
     1 HAT         1

