### 
### Created by X-TOOL on Mon Aug  2 16:10:53 2021
### 

@<TRIPOS>MOLECULE
6ibz_ligand
   61    66     1     0     0
SMALL
GAST_HUCK


@<TRIPOS>ATOM
      1 CAH        92.7520   51.2020  268.4010 C.ar      1 HAW        -0.0333
      2 CAI        93.0260   52.3700  268.9760 C.ar      1 HAW         0.0681
      3 NAT        92.5150   52.9520  270.0570 N.pl3     1 HAW        -0.2674
      4 CAU        91.4370   52.3910  270.8930 C.3       1 HAW         0.0409
      5 CAS        93.1080   54.1290  270.2420 C.2       1 HAW         0.0256
      6 CAR        94.0050   54.2710  269.2840 C.2       1 HAW        -0.0617
      7 CAJ        93.9620   53.1900  268.4930 C.ar      1 HAW        -0.0257
      8 CAK        94.6800   52.8610  267.4100 C.ar      1 HAW        -0.0732
      9 CAL        94.4360   51.6590  266.7700 C.ar      1 HAW        -0.0694
     10 CAG        93.4460   50.8030  267.2660 C.ar      1 HAW        -0.0275
     11 CAC        93.1440   49.5660  266.6590 C.ar      1 HAW         0.0034
     12 CAB        91.8320   49.2820  266.2680 C.ar      1 HAW        -0.0187
     13 CAD        94.1330   48.6220  266.4540 C.ar      1 HAW         0.0738
     14 NAP        95.4010   48.8880  266.8480 N.ar      1 HAW        -0.2745
     15 CAO        96.4280   47.9650  266.6600 C.ar      1 HAW         0.0381
     16 CAN        96.1090   46.7570  266.0590 C.ar      1 HAW         0.0363
     17 NAM        94.7850   46.5020  265.6710 N.ar      1 HAW        -0.2797
     18 CAE        93.8030   47.4020  265.8650 C.ar      1 HAW         0.0606
     19 CAF        92.4860   47.1170  265.4570 C.ar      1 HAW        -0.0152
     20 CAA        91.4720   48.0730  265.6510 C.ar      1 HAW         0.0679
     21 NAQ        90.1530   47.8900  265.3550 N.pl3     1 HAW        -0.2695
     22 CAV        89.7180   47.2030  264.2970 C.ar      1 HAW         0.0867
     23 CBA        90.4320   47.1710  263.1030 C.ar      1 HAW        -0.0373
     24 CAZ        89.9520   46.4710  262.0050 C.ar      1 HAW        -0.0719
     25 CAY        88.7560   45.8000  262.1030 C.ar      1 HAW        -0.0720
     26 CAX        88.0460   45.8370  263.2890 C.ar      1 HAW        -0.0452
     27 CAW        88.4990   46.5300  264.3930 C.ar      1 HAW         0.1302
     28 SBB        87.4620   46.4360  265.8300 S.o2      1 HAW         0.0674
     29 OBC        86.0250   46.3180  265.3930 O.2       1 HAW        -0.1519
     30 OBD        87.5530   47.7250  266.6200 O.2       1 HAW        -0.1519
     31 NBE        87.9190   45.1210  266.7730 N.am      1 HAW        -0.2355
     32 CBF        89.3470   45.1840  267.1860 C.3       1 HAW         0.0709
     33 CBG        89.7190   44.2360  268.1880 C.ar      1 HAW         0.0286
     34 CBH        91.0540   43.8420  268.3200 C.ar      1 HAW         0.0327
     35 NBI        91.4670   42.9010  269.2970 N.ar      1 HAW        -0.2698
     36 CBJ        90.5390   42.3320  270.1710 C.ar      1 HAW         0.0831
     37 NBK        89.1950   42.7250  270.0520 N.ar      1 HAW        -0.2698
     38 CBL        88.7910   43.6670  269.0740 C.ar      1 HAW         0.0327
     39 H1         91.9852   50.5601  268.8194 H         1 HAW         0.0563
     40 H2         91.2147   53.0837  271.7181 H         1 HAW         0.0566
     41 H3         91.7579   51.4224  271.3038 H         1 HAW         0.0566
     42 H4         90.5344   52.2487  270.2806 H         1 HAW         0.0566
     43 H5         92.8931   54.8425  271.0362 H         1 HAW         0.0948
     44 H6         94.6694   55.1245  269.1575 H         1 HAW         0.0295
     45 H7         95.4462   53.5318  267.0384 H         1 HAW         0.0541
     46 H8         95.0071   51.3823  265.8912 H         1 HAW         0.0529
     47 H9         91.0626   50.0241  266.4482 H         1 HAW         0.0621
     48 H10        97.4424   48.1842  266.9732 H         1 HAW         0.0900
     49 H11        96.8789   46.0130  265.8897 H         1 HAW         0.0931
     50 H12        92.2540   46.1642  264.9950 H         1 HAW         0.0510
     51 H13        89.4522   48.3063  265.9847 H         1 HAW         0.2106
     52 H14        91.3755   47.6997  263.0296 H         1 HAW         0.0532
     53 H15        90.5148   46.4534  261.0787 H         1 HAW         0.0586
     54 H16        88.3716   45.2449  261.2550 H         1 HAW         0.0516
     55 H17        87.1038   45.3048  263.3536 H         1 HAW         0.0606
     56 H18        87.2995   44.3786  267.0281 H         1 HAW         0.1701
     57 H19        89.5469   46.1926  267.5770 H         1 HAW         0.0664
     58 H20        89.9695   45.0054  266.2969 H         1 HAW         0.0664
     59 H21        91.7960   44.2690  267.6551 H         1 HAW         0.0881
     60 H22        90.8457   41.6093  270.9185 H         1 HAW         0.1071
     61 H23        87.7475   43.9532  269.0089 H         1 HAW         0.0881
@<TRIPOS>BOND
     1    1    2 ar 
     2    1   10 ar 
     3    2    3 1  
     4    2    7 ar 
     5    3    4 1  
     6    3    5 1  
     7    5    6 2  
     8    6    7 1  
     9    7    8 ar 
    10    8    9 ar 
    11    9   10 ar 
    12   10   11 1  
    13   11   12 ar 
    14   11   13 ar 
    15   12   20 ar 
    16   13   14 ar 
    17   13   18 ar 
    18   14   15 ar 
    19   15   16 ar 
    20   16   17 ar 
    21   17   18 ar 
    22   18   19 ar 
    23   19   20 ar 
    24   20   21 1  
    25   21   22 1  
    26   22   23 ar 
    27   22   27 ar 
    28   23   24 ar 
    29   24   25 ar 
    30   25   26 ar 
    31   26   27 ar 
    32   27   28 1  
    33   28   29 2  
    34   28   30 2  
    35   28   31 am 
    36   31   32 1  
    37   32   33 1  
    38   33   34 ar 
    39   33   38 ar 
    40   34   35 ar 
    41   35   36 ar 
    42   36   37 ar 
    43   37   38 ar 
    44    1   39 1  
    45    4   40 1  
    46    4   41 1  
    47    4   42 1  
    48    5   43 1  
    49    6   44 1  
    50    8   45 1  
    51    9   46 1  
    52   12   47 1  
    53   15   48 1  
    54   16   49 1  
    55   19   50 1  
    56   21   51 1  
    57   23   52 1  
    58   24   53 1  
    59   25   54 1  
    60   26   55 1  
    61   31   56 1  
    62   32   57 1  
    63   32   58 1  
    64   34   59 1  
    65   36   60 1  
    66   38   61 1  
@<TRIPOS>SUBSTRUCTURE
     1 HAW         1

