### 
### Created by X-TOOL on Mon Aug  2 16:10:53 2021
### 

@<TRIPOS>MOLECULE
6ic0_ligand
   56    61     1     0     0
SMALL
GAST_HUCK


@<TRIPOS>ATOM
      1 CAH       142.5440  -37.3750  266.1920 C.ar      1 HAK        -0.0333
      2 CAI       142.7490  -36.1590  266.7340 C.ar      1 HAK         0.0681
      3 NAT       142.1910  -35.5500  267.7820 N.pl3     1 HAK        -0.2674
      4 CAU       141.1520  -36.1070  268.6510 C.3       1 HAK         0.0409
      5 CAS       142.7300  -34.3420  267.8880 C.2       1 HAK         0.0256
      6 CAR       143.6340  -34.1770  266.9160 C.2       1 HAK        -0.0617
      7 CAJ       143.6330  -35.2970  266.1950 C.ar      1 HAK        -0.0257
      8 CAK       144.3520  -35.6460  265.1330 C.ar      1 HAK        -0.0732
      9 CAL       144.1700  -36.8850  264.5280 C.ar      1 HAK        -0.0694
     10 CAG       143.2490  -37.7830  265.0560 C.ar      1 HAK        -0.0275
     11 CAC       143.0430  -39.0370  264.4370 C.ar      1 HAK         0.0036
     12 CAB       141.7450  -39.3450  263.9910 C.ar      1 HAK        -0.0180
     13 CAD       144.0600  -39.9840  264.2110 C.ar      1 HAK         0.0740
     14 NAP       145.3320  -39.7170  264.5980 N.ar      1 HAK        -0.2743
     15 CAO       146.3270  -40.6600  264.3630 C.ar      1 HAK         0.0383
     16 CAN       145.9990  -41.8450  263.7190 C.ar      1 HAK         0.0365
     17 NAM       144.6760  -42.0900  263.3200 N.ar      1 HAK        -0.2794
     18 CAE       143.7220  -41.2030  263.5630 C.ar      1 HAK         0.0611
     19 CAF       142.4200  -41.5030  263.1470 C.ar      1 HAK        -0.0142
     20 CAA       141.4080  -40.5470  263.3430 C.ar      1 HAK         0.0710
     21 NAQ       140.0950  -40.7130  263.0620 N.pl3     1 HAK        -0.2606
     22 CAV       139.6100  -41.3350  261.9810 C.ar      1 HAK         0.1095
     23 CBA       140.3840  -41.5270  260.8360 C.ar      1 HAK         0.0396
     24 NAZ       139.8770  -42.1450  259.7110 N.ar      1 HAK        -0.3037
     25 CAY       138.5600  -42.5340  259.7080 C.ar      1 HAK         0.0041
     26 CAX       137.7790  -42.3360  260.8360 C.ar      1 HAK        -0.0242
     27 CAW       138.2600  -41.7390  262.0050 C.ar      1 HAK         0.0980
     28 CBB       137.3950  -41.5570  263.1180 C.2       1 HAK         0.2385
     29 OBD       137.7150  -40.8300  264.0380 O.2       1 HAK        -0.3731
     30 NBC       136.2190  -42.1970  263.1030 N.am      1 HAK        -0.2216
     31 CBE       135.3560  -42.1320  264.1170 C.ar      1 HAK         0.1195
     32 CBF       134.8150  -43.3470  264.5430 C.ar      1 HAK         0.0498
     33 NBG       133.8810  -43.3850  265.5590 N.ar      1 HAK        -0.2788
     34 CBH       133.5080  -42.1980  266.1910 C.ar      1 HAK         0.0733
     35 NBI       134.0260  -40.9670  265.7760 N.ar      1 HAK        -0.2788
     36 CBJ       134.9450  -40.9440  264.7160 C.ar      1 HAK         0.0498
     37 H1        141.8223  -38.0465  266.6430 H         1 HAK         0.0563
     38 H2        140.8916  -35.3731  269.4279 H         1 HAK         0.0566
     39 H3        141.5250  -37.0266  269.1256 H         1 HAK         0.0566
     40 H4        140.2590  -36.3396  268.0523 H         1 HAK         0.0566
     41 H5        142.4766  -33.6024  268.6460 H         1 HAK         0.0948
     42 H6        144.2519  -33.2964  266.7467 H         1 HAK         0.0295
     43 H7        145.0882  -34.9575  264.7341 H         1 HAK         0.0541
     44 H8        144.7443  -37.1498  263.6476 H         1 HAK         0.0529
     45 H9        140.9606  -38.6152  264.1559 H         1 HAK         0.0623
     46 H10       147.3467  -40.4717  264.6791 H         1 HAK         0.0902
     47 H11       146.7676  -42.5840  263.5235 H         1 HAK         0.0932
     48 H12       142.1956  -42.4560  262.6817 H         1 HAK         0.0515
     49 H13       139.4145  -40.3301  263.7337 H         1 HAK         0.2150
     50 H14       141.4114  -41.1814  260.8300 H         1 HAK         0.0755
     51 H15       138.1320  -42.9950  258.8252 H         1 HAK         0.0730
     52 H16       136.7448  -42.6599  260.8104 H         1 HAK         0.0727
     53 H17       135.9791  -42.7442  262.3011 H         1 HAK         0.2293
     54 H18       135.1318  -44.2700  264.0709 H         1 HAK         0.0825
     55 H19       132.8059  -42.2306  267.0163 H         1 HAK         0.0989
     56 H20       135.3367  -39.9973  264.3618 H         1 HAK         0.0825
@<TRIPOS>BOND
     1    1    2 ar 
     2    1   10 ar 
     3    2    3 1  
     4    2    7 ar 
     5    3    4 1  
     6    3    5 1  
     7    5    6 2  
     8    6    7 1  
     9    7    8 ar 
    10    8    9 ar 
    11    9   10 ar 
    12   10   11 1  
    13   11   12 ar 
    14   11   13 ar 
    15   12   20 ar 
    16   13   14 ar 
    17   13   18 ar 
    18   14   15 ar 
    19   15   16 ar 
    20   16   17 ar 
    21   17   18 ar 
    22   18   19 ar 
    23   19   20 ar 
    24   20   21 1  
    25   21   22 1  
    26   22   23 ar 
    27   22   27 ar 
    28   23   24 ar 
    29   24   25 ar 
    30   25   26 ar 
    31   26   27 ar 
    32   27   28 1  
    33   28   29 2  
    34   28   30 am 
    35   30   31 1  
    36   31   32 ar 
    37   31   36 ar 
    38   32   33 ar 
    39   33   34 ar 
    40   34   35 ar 
    41   35   36 ar 
    42    1   37 1  
    43    4   38 1  
    44    4   39 1  
    45    4   40 1  
    46    5   41 1  
    47    6   42 1  
    48    8   43 1  
    49    9   44 1  
    50   12   45 1  
    51   15   46 1  
    52   16   47 1  
    53   19   48 1  
    54   21   49 1  
    55   23   50 1  
    56   25   51 1  
    57   26   52 1  
    58   30   53 1  
    59   32   54 1  
    60   34   55 1  
    61   36   56 1  
@<TRIPOS>SUBSTRUCTURE
     1 HAK         1

