### 
### Created by X-TOOL on Mon Aug  2 16:14:12 2021
### 

@<TRIPOS>MOLECULE
6ic2_ligand
   38    39     1     0     0
SMALL
GAST_HUCK


@<TRIPOS>ATOM
      1 C5         -2.2390    6.5910   13.4390 C.ar      1 BBJ        -0.0385
      2 C4         -1.4540    7.1590   14.4270 C.ar      1 BBJ        -0.0357
      3 C2         -1.9550    9.3390   13.5770 C.ar      1 BBJ         0.0359
      4 C1         -2.7490    8.7760   12.5780 C.ar      1 BBJ        -0.0317
      5 C6         -2.8700    7.3830   12.4790 C.ar      1 BBJ         0.0576
      6 C10        -4.9240    7.2410   11.6290 C.2       1 BBJ         0.1620
      7 O16        -7.9650    5.7480   12.8730 O.3       1 BBJ        -0.0757
      8 C3         -1.3070    8.5370   14.4990 C.ar      1 BBJ         0.1293
      9 F7         -0.5400    9.0900   15.4550 F         1 BBJ        -0.1910
     10 BR8        -1.7620   11.2170   13.6680 Br        1 BBJ        -0.0545
     11 N9         -3.7110    6.7140   11.6640 N.pl3     1 BBJ        -0.2664
     12 N11        -5.1060    8.4810   11.4430 N.2       1 BBJ        -0.1746
     13 O12        -6.3550    9.0830   11.5930 O.3       1 BBJ        -0.2828
     14 C13        -6.0660    6.4250   12.1590 C.2       1 BBJ         0.1557
     15 C14        -5.9870    5.1540   12.7580 C.2       1 BBJ         0.1559
     16 N15        -7.1830    4.7110   13.1800 N.2       1 BBJ        -0.0999
     17 N17        -7.3620    6.7900   12.2830 N.2       1 BBJ        -0.0929
     18 N18        -4.8840    4.3640   12.8790 N.pl3     1 BBJ        -0.3130
     19 C19        -4.9260    3.0020   13.3770 C.3       1 BBJ         0.0396
     20 C20        -5.1210    2.8750   14.8840 C.3       1 BBJ         0.0468
     21 N21        -4.7730    1.4880   15.2590 N.am      1 BBJ        -0.2337
     22 S22        -5.5980    0.8650   16.5090 S.o2      1 BBJ         0.1134
     23 O23        -5.0010    1.2440   17.7610 O.2       1 BBJ        -0.1358
     24 O24        -6.9830    1.2540   16.4710 O.2       1 BBJ        -0.1358
     25 N25        -5.5100   -0.7310   16.3260 N.am      1 BBJ        -0.2489
     26 H1         -2.3656    5.5148   13.4104 H         1 BBJ         0.0544
     27 H2         -0.9515    6.5245   15.1481 H         1 BBJ         0.0580
     28 H3         -3.2730    9.4162   11.8775 H         1 BBJ         0.0547
     29 H4         -3.4375    5.8799   11.1251 H         1 BBJ         0.2077
     30 H5         -6.6608    8.9577   12.4836 H         1 BBJ         0.2650
     31 H6         -3.9718    4.7542   12.6023 H         1 BBJ         0.1733
     32 H7         -3.9772    2.5122   13.1128 H         1 BBJ         0.0522
     33 H8         -5.7580    2.4819   12.8798 H         1 BBJ         0.0522
     34 H9         -6.1685    3.0839   15.1466 H         1 BBJ         0.0495
     35 H10        -4.4631    3.5829   15.4093 H         1 BBJ         0.0495
     36 H11        -4.0724    0.9662   14.7722 H         1 BBJ         0.1686
     37 H12        -5.9526   -1.3354   16.9885 H         1 BBJ         0.1648
     38 H13        -5.0127   -1.1186   15.5498 H         1 BBJ         0.1648
@<TRIPOS>BOND
     1    1    2 ar 
     2    5    1 ar 
     3    2    8 ar 
     4    4    3 ar 
     5    3    8 ar 
     6    3   10 1  
     7    5    4 ar 
     8   11    5 1  
     9    6   11 1  
    10    6   12 2  
    11   14    6 1  
    12    7   16 1  
    13   17    7 1  
    14    8    9 1  
    15   12   13 1  
    16   14   15 1  
    17   14   17 2  
    18   15   16 2  
    19   15   18 1  
    20   18   19 1  
    21   19   20 1  
    22   20   21 1  
    23   21   22 am 
    24   22   23 2  
    25   22   24 2  
    26   22   25 am 
    27    1   26 1  
    28    2   27 1  
    29    4   28 1  
    30   11   29 1  
    31   13   30 1  
    32   18   31 1  
    33   19   32 1  
    34   19   33 1  
    35   20   34 1  
    36   20   35 1  
    37   21   36 1  
    38   25   37 1  
    39   25   38 1  
@<TRIPOS>SUBSTRUCTURE
     1 BBJ         1

