### 
### Created by X-TOOL on Mon Aug  2 16:14:13 2021
### 

@<TRIPOS>MOLECULE
6idb_ligand
   87    89     1     0     0
SMALL
GAST_HUCK


@<TRIPOS>ATOM
      1 C1         13.3250   23.7990   13.7170 C.2       1 SIA         0.1041
      2 C2         12.9130   23.5720   12.1900 C.3       1 SIA         0.2204
      3 C3         14.1380   23.5270   11.2840 C.3       1 SIA         0.0353
      4 C4         14.9530   22.2860   11.6170 C.3       1 SIA         0.0850
      5 C5         14.1180   21.0320   11.3450 C.3       1 SIA         0.0964
      6 C6         12.8150   21.1020   12.1910 C.3       1 SIA         0.1143
      7 C7         11.7970   19.9660   11.8840 C.3       1 SIA         0.1114
      8 C8         10.4940   19.9550   12.7510 C.3       1 SIA         0.1065
      9 C9          9.8820   18.5490   12.7980 C.3       1 SIA         0.0727
     10 C10        14.9060   18.6740   11.0420 C.2       1 SIA         0.1733
     11 C11        15.8080   17.6000   11.6210 C.3       1 SIA         0.0257
     12 N5         14.8990   19.8500   11.7080 N.am      1 SIA        -0.2790
     13 O1A        14.1040   24.7560   13.9620 O.co2     1 SIA        -0.5426
     14 O1B        12.8080   22.9770   14.5250 O.co2     1 SIA        -0.5426
     15 O4         16.1990   22.2070   10.9060 O.3       1 SIA        -0.3893
     16 O6         12.1450   22.3280   11.9440 O.3       1 SIA        -0.3384
     17 O7         11.5220   20.0090   10.5000 O.3       1 SIA        -0.3865
     18 O8         10.7340   20.4560   14.0700 O.3       1 SIA        -0.3869
     19 O9          8.4700   18.5730   13.0450 O.3       1 SIA        -0.3924
     20 O10        14.2470   18.4370   10.0430 O.2       1 SIA        -0.3974
     21 C1          8.4950   25.4550   10.6210 C.3       1 SIA         0.1884
     22 C2          7.4860   26.3880   11.4030 C.3       1 SIA         0.1341
     23 C3          8.2040   27.4820   12.2470 C.3       1 SIA         0.1141
     24 C4          9.2990   26.8510   13.1020 C.3       1 SIA         0.1119
     25 C5         10.2080   26.0920   12.1640 C.3       1 SIA         0.1132
     26 C6         11.4430   25.4960   12.7960 C.3       1 SIA         0.0786
     27 O2          6.5890   27.0450   10.5360 O.3       1 SIA        -0.3841
     28 O3          7.3060   28.1420   13.1400 O.3       1 SIA        -0.3864
     29 O4          8.7220   25.9310   14.0370 O.3       1 SIA        -0.3865
     30 O5          9.4910   24.9870   11.5610 O.3       1 SIA        -0.3405
     31 O6         11.7000   24.2130   12.2630 O.3       1 SIA        -0.3441
     32 C1          7.9430   21.9600    6.7150 C.3       1 SIA         0.1823
     33 C2          9.1620   21.8380    7.5950 C.3       1 SIA         0.1208
     34 C3          8.9140   22.5490    8.9200 C.3       1 SIA         0.1114
     35 C4          8.4110   23.9740    8.7130 C.3       1 SIA         0.1181
     36 C5          7.3730   24.0990    7.5880 C.3       1 SIA         0.1133
     37 C6          7.2360   25.5190    7.0850 C.3       1 SIA         0.0730
     38 C7         10.7400   19.9500    7.6120 C.2       1 SIA         0.1733
     39 C8         10.9020   18.4850    7.8590 C.3       1 SIA         0.0257
     40 N2          9.5110   20.4420    7.8120 N.am      1 SIA        -0.2766
     41 O1          8.1260   21.2440    5.5360 O.3       1 SIA        -0.3651
     42 O3         10.1380   22.6110    9.6410 O.3       1 SIA        -0.3867
     43 O4          7.7820   24.3930    9.9220 O.3       1 SIA        -0.3401
     44 O5          7.7090   23.3030    6.4370 O.3       1 SIA        -0.3409
     45 O6          6.2490   26.2330    7.8150 O.3       1 SIA        -0.3924
     46 O7         11.6820   20.6610    7.2610 O.2       1 SIA        -0.3974
     47 H1         14.7509   24.4257   11.4470 H         1 SIA         0.0336
     48 H2         13.8180   23.4872   10.2323 H         1 SIA         0.0336
     49 H3         15.1861   22.3201   12.6915 H         1 SIA         0.0618
     50 H4         13.8585   20.9840   10.2771 H         1 SIA         0.0608
     51 H5         13.0955   21.0448   13.2531 H         1 SIA         0.0646
     52 H6         12.3072   19.0142   12.0933 H         1 SIA         0.0647
     53 H7          9.7655   20.6229   12.2681 H         1 SIA         0.0643
     54 H8         10.3709   17.9781   13.6011 H         1 SIA         0.0584
     55 H9         10.0629   18.0530   11.8330 H         1 SIA         0.0584
     56 H10        15.7375   16.6910   11.0056 H         1 SIA         0.0467
     57 H11        15.4926   17.3716   12.6497 H         1 SIA         0.0467
     58 H12        16.8478   17.9587   11.6274 H         1 SIA         0.0467
     59 H13        15.4786   19.9179   12.5201 H         1 SIA         0.1856
     60 H14        16.6797   21.4406   11.1960 H         1 SIA         0.2099
     61 H15        11.0295   20.7965   10.3005 H         1 SIA         0.2100
     62 H16         9.9131   20.4969   14.5462 H         1 SIA         0.2100
     63 H17         8.0367   19.0583   12.3526 H         1 SIA         0.2095
     64 H18         9.0096   26.0586    9.8589 H         1 SIA         0.0938
     65 H19         6.9068   25.7485   12.0853 H         1 SIA         0.0671
     66 H20         8.6468   28.2213   11.5634 H         1 SIA         0.0648
     67 H21         9.8610   27.6291   13.6393 H         1 SIA         0.0647
     68 H22        10.5277   26.7909   11.3770 H         1 SIA         0.0647
     69 H23        11.2900   25.4130   13.8821 H         1 SIA         0.0586
     70 H24        12.3042   26.1505   12.5959 H         1 SIA         0.0586
     71 H25         6.1340   26.4013   10.0057 H         1 SIA         0.2101
     72 H26         6.9378   27.5074   13.7434 H         1 SIA         0.2100
     73 H27         8.2220   25.2746   13.5662 H         1 SIA         0.2100
     74 H28         7.0734   21.5483    7.2481 H         1 SIA         0.0932
     75 H29        10.0066   22.3287    7.0893 H         1 SIA         0.0633
     76 H30         8.1689   21.9828    9.4982 H         1 SIA         0.0645
     77 H31         9.2673   24.6257    8.4850 H         1 SIA         0.0650
     78 H32         6.4040   23.7635    7.9861 H         1 SIA         0.0647
     79 H33         6.9498   25.4968    6.0231 H         1 SIA         0.0584
     80 H34         8.2028   26.0323    7.1935 H         1 SIA         0.0584
     81 H35        11.9447   18.1935    7.6647 H         1 SIA         0.0467
     82 H36        10.2337   17.9241    7.1892 H         1 SIA         0.0467
     83 H37        10.6470   18.2591    8.9049 H         1 SIA         0.0467
     84 H38         8.7959   19.8179    8.1268 H         1 SIA         0.1857
     85 H39         8.8717   21.5970    5.0649 H         1 SIA         0.2126
     86 H40        10.4674   21.7308    9.7798 H         1 SIA         0.2100
     87 H41         6.4929   26.2594    8.7327 H         1 SIA         0.2095
@<TRIPOS>BOND
     1    2    1 1  
     2    1   13 ar 
     3    1   14 ar 
     4    2    3 1  
     5    2   16 1  
     6   31    2 1  
     7    3    4 1  
     8    4    5 1  
     9    4   15 1  
    10    6    5 1  
    11    5   12 1  
    12    6    7 1  
    13   16    6 1  
    14    7    8 1  
    15    7   17 1  
    16    8    9 1  
    17    8   18 1  
    18    9   19 1  
    19   10   11 1  
    20   12   10 am 
    21   10   20 2  
    22   21   22 1  
    23   21   30 1  
    24   43   21 1  
    25   22   23 1  
    26   22   27 1  
    27   23   24 1  
    28   23   28 1  
    29   25   24 1  
    30   24   29 1  
    31   25   26 1  
    32   30   25 1  
    33   26   31 1  
    34   33   32 1  
    35   32   41 1  
    36   32   44 1  
    37   33   34 1  
    38   40   33 1  
    39   34   35 1  
    40   34   42 1  
    41   35   36 1  
    42   35   43 1  
    43   36   37 1  
    44   44   36 1  
    45   37   45 1  
    46   38   39 1  
    47   38   40 am 
    48   38   46 2  
    49    3   47 1  
    50    3   48 1  
    51    4   49 1  
    52    5   50 1  
    53    6   51 1  
    54    7   52 1  
    55    8   53 1  
    56    9   54 1  
    57    9   55 1  
    58   11   56 1  
    59   11   57 1  
    60   11   58 1  
    61   12   59 1  
    62   15   60 1  
    63   17   61 1  
    64   18   62 1  
    65   19   63 1  
    66   21   64 1  
    67   22   65 1  
    68   23   66 1  
    69   24   67 1  
    70   25   68 1  
    71   26   69 1  
    72   26   70 1  
    73   27   71 1  
    74   28   72 1  
    75   29   73 1  
    76   32   74 1  
    77   33   75 1  
    78   34   76 1  
    79   35   77 1  
    80   36   78 1  
    81   37   79 1  
    82   37   80 1  
    83   39   81 1  
    84   39   82 1  
    85   39   83 1  
    86   40   84 1  
    87   41   85 1  
    88   42   86 1  
    89   45   87 1  
@<TRIPOS>SUBSTRUCTURE
     1 SIA         1

