### 
### Created by X-TOOL on Mon Aug  2 16:14:13 2021
### 

@<TRIPOS>MOLECULE
6idz_ligand
   87    89     1     0     0
SMALL
GAST_HUCK


@<TRIPOS>ATOM
      1 C1         13.1430   23.4700   13.9470 C.2       1 SIA         0.1041
      2 C2         12.6620   23.3300   12.4430 C.3       1 SIA         0.2208
      3 C3         13.7650   23.4400   11.3880 C.3       1 SIA         0.0353
      4 C4         14.7530   22.2790   11.4540 C.3       1 SIA         0.0850
      5 C5         14.0240   20.9360   11.3530 C.3       1 SIA         0.0964
      6 C6         12.7890   20.8610   12.2910 C.3       1 SIA         0.1143
      7 C7         11.8240   19.7260   11.8640 C.3       1 SIA         0.1114
      8 C8         10.5680   19.6680   12.7650 C.3       1 SIA         0.1065
      9 C9         10.0440   18.2400   12.8770 C.3       1 SIA         0.0727
     10 C10        15.0280   18.6490   11.1250 C.2       1 SIA         0.1733
     11 C11        16.0810   17.7270   11.7330 C.3       1 SIA         0.0257
     12 N5         14.9410   19.8630   11.7220 N.am      1 SIA        -0.2790
     13 O1A        14.0940   24.2900   14.0690 O.co2     1 SIA        -0.5426
     14 O1B        12.5530   22.7950   14.8200 O.co2     1 SIA        -0.5426
     15 O4         15.7080   22.3240   10.3790 O.3       1 SIA        -0.3893
     16 O6         11.9920   22.0380   12.2500 O.3       1 SIA        -0.3384
     17 O7         11.4820   19.8760   10.4920 O.3       1 SIA        -0.3865
     18 O8         10.8520   20.2350   14.0450 O.3       1 SIA        -0.3869
     19 O9          8.6300   18.2620   13.0840 O.3       1 SIA        -0.3924
     20 O10        14.3340   18.2860   10.1770 O.2       1 SIA        -0.3974
     21 C1          8.0740   25.1590   12.4140 C.3       1 SIA         0.1884
     22 C2          9.2820   24.6420   11.6420 C.3       1 SIA         0.1344
     23 C3         10.4780   24.4480   12.5660 C.3       1 SIA         0.1197
     24 C4         10.7120   25.6870   13.4210 C.3       1 SIA         0.1121
     25 C5          9.4200   26.1390   14.0900 C.3       1 SIA         0.1130
     26 C6          9.6350   27.4180   14.8900 C.3       1 SIA         0.0730
     27 O2          8.9530   23.3960   11.0190 O.3       1 SIA        -0.3841
     28 O3         11.6480   24.1780   11.7850 O.3       1 SIA        -0.3380
     29 O4         11.2190   26.7450   12.5990 O.3       1 SIA        -0.3865
     30 O5          8.4230   26.3630   13.0950 O.3       1 SIA        -0.3405
     31 O6          8.3670   27.9480   15.2920 O.3       1 SIA        -0.3924
     32 C1          3.3070   26.8930   11.4550 C.3       1 SIA         0.1823
     33 C2          4.1680   27.2670   12.6560 C.3       1 SIA         0.1208
     34 C3          5.6450   27.0280   12.3630 C.3       1 SIA         0.1114
     35 C4          5.8690   25.6360   11.7870 C.3       1 SIA         0.1181
     36 C5          4.9050   25.3550   10.6410 C.3       1 SIA         0.1133
     37 C6          5.0770   23.9320   10.1220 C.3       1 SIA         0.0730
     38 C7          3.6170   29.0150   14.2460 C.2       1 SIA         0.1733
     39 C8          4.5790   29.9340   14.9380 C.3       1 SIA         0.0257
     40 N2          3.9500   28.6560   13.0090 N.am      1 SIA        -0.2766
     41 O1          1.9240   27.0420   11.7940 O.3       1 SIA        -0.3651
     42 O3          6.4000   27.1730   13.5710 O.3       1 SIA        -0.3867
     43 O4          7.2160   25.5270   11.3150 O.3       1 SIA        -0.3401
     44 O5          3.5640   25.5390   11.0910 O.3       1 SIA        -0.3409
     45 O6          3.9050   23.5420    9.3970 O.3       1 SIA        -0.3924
     46 O7          2.5950   28.6210   14.7820 O.2       1 SIA        -0.3974
     47 H1         14.3137   24.3799   11.5477 H         1 SIA         0.0336
     48 H2         13.3001   23.4516   10.3911 H         1 SIA         0.0336
     49 H3         15.2877   22.3323   12.4138 H         1 SIA         0.0618
     50 H4         13.6910   20.7936   10.3144 H         1 SIA         0.0608
     51 H5         13.1434   20.6881   13.3179 H         1 SIA         0.0646
     52 H6         12.3562   18.7700   11.9770 H         1 SIA         0.0647
     53 H7          9.7822   20.2766   12.2938 H         1 SIA         0.0643
     54 H8         10.5303   17.7373   13.7260 H         1 SIA         0.0584
     55 H9         10.2695   17.6937   11.9493 H         1 SIA         0.0584
     56 H10        16.0854   16.7689   11.1927 H         1 SIA         0.0467
     57 H11        15.8450   17.5493   12.7926 H         1 SIA         0.0467
     58 H12        17.0717   18.1981   11.6520 H         1 SIA         0.0467
     59 H13        15.5624   20.0392   12.4854 H         1 SIA         0.1856
     60 H14        16.3196   21.6027   10.4698 H         1 SIA         0.2099
     61 H15        10.9925   20.6817   10.3751 H         1 SIA         0.2100
     62 H16        11.1748   21.1214   13.9329 H         1 SIA         0.2100
     63 H17         8.2104   18.6958   12.3504 H         1 SIA         0.2095
     64 H18         7.6359   24.4128   13.0931 H         1 SIA         0.0938
     65 H19         9.5478   25.3745   10.8656 H         1 SIA         0.0671
     66 H20        10.2807   23.5916   13.2276 H         1 SIA         0.0650
     67 H21        11.4515   25.4480   14.1995 H         1 SIA         0.0647
     68 H22         9.0775   25.3470   14.7722 H         1 SIA         0.0647
     69 H23        10.1602   28.1566   14.2666 H         1 SIA         0.0584
     70 H24        10.2389   27.1955   15.7821 H         1 SIA         0.0584
     71 H25         8.2073   23.5183   10.4432 H         1 SIA         0.2101
     72 H26        12.0246   26.4624   12.1822 H         1 SIA         0.2100
     73 H27         7.8463   28.1398   14.5208 H         1 SIA         0.2095
     74 H28         3.5504   27.5528   10.6092 H         1 SIA         0.0932
     75 H29         3.8738   26.6359   13.5076 H         1 SIA         0.0633
     76 H30         5.9877   27.7746   11.6314 H         1 SIA         0.0645
     77 H31         5.7034   24.8925   12.5805 H         1 SIA         0.0650
     78 H32         5.1107   26.0598    9.8219 H         1 SIA         0.0647
     79 H33         5.2275   23.2482   10.9704 H         1 SIA         0.0584
     80 H34         5.9514   23.8880    9.4560 H         1 SIA         0.0584
     81 H35         4.2057   30.1633   15.9470 H         1 SIA         0.0467
     82 H36         4.6746   30.8662   14.3619 H         1 SIA         0.0467
     83 H37         5.5623   29.4467   15.0128 H         1 SIA         0.0467
     84 H38         4.0523   29.3604   12.3066 H         1 SIA         0.1857
     85 H39         1.7540   27.9447   12.0364 H         1 SIA         0.2126
     86 H40         7.3233   27.0529   13.3824 H         1 SIA         0.2100
     87 H41         3.1504   23.5801    9.9729 H         1 SIA         0.2095
@<TRIPOS>BOND
     1    2    1 1  
     2    1   13 ar 
     3    1   14 ar 
     4    2    3 1  
     5    2   16 1  
     6   28    2 1  
     7    3    4 1  
     8    4    5 1  
     9    4   15 1  
    10    6    5 1  
    11    5   12 1  
    12    6    7 1  
    13   16    6 1  
    14    7    8 1  
    15    7   17 1  
    16    8    9 1  
    17    8   18 1  
    18    9   19 1  
    19   10   11 1  
    20   12   10 am 
    21   10   20 2  
    22   21   22 1  
    23   21   30 1  
    24   43   21 1  
    25   22   23 1  
    26   22   27 1  
    27   23   24 1  
    28   23   28 1  
    29   25   24 1  
    30   24   29 1  
    31   25   26 1  
    32   30   25 1  
    33   26   31 1  
    34   33   32 1  
    35   32   41 1  
    36   32   44 1  
    37   33   34 1  
    38   40   33 1  
    39   34   35 1  
    40   34   42 1  
    41   35   36 1  
    42   35   43 1  
    43   36   37 1  
    44   44   36 1  
    45   37   45 1  
    46   38   39 1  
    47   38   40 am 
    48   38   46 2  
    49    3   47 1  
    50    3   48 1  
    51    4   49 1  
    52    5   50 1  
    53    6   51 1  
    54    7   52 1  
    55    8   53 1  
    56    9   54 1  
    57    9   55 1  
    58   11   56 1  
    59   11   57 1  
    60   11   58 1  
    61   12   59 1  
    62   15   60 1  
    63   17   61 1  
    64   18   62 1  
    65   19   63 1  
    66   21   64 1  
    67   22   65 1  
    68   23   66 1  
    69   24   67 1  
    70   25   68 1  
    71   26   69 1  
    72   26   70 1  
    73   27   71 1  
    74   29   72 1  
    75   31   73 1  
    76   32   74 1  
    77   33   75 1  
    78   34   76 1  
    79   35   77 1  
    80   36   78 1  
    81   37   79 1  
    82   37   80 1  
    83   39   81 1  
    84   39   82 1  
    85   39   83 1  
    86   40   84 1  
    87   41   85 1  
    88   42   86 1  
    89   45   87 1  
@<TRIPOS>SUBSTRUCTURE
     1 SIA         1

