### 
### Created by X-TOOL on Mon Aug  2 16:14:13 2021
### 

@<TRIPOS>MOLECULE
6iez_ligand
   62    64     1     0     0
SMALL
GAST_HUCK


@<TRIPOS>ATOM
      1 C12       -29.8780    6.3370   -7.4620 C.ar      1 A50        -0.0373
      2 C13       -36.2990    3.0660   -5.8190 C.3       1 A50        -0.0095
      3 C14       -36.1300    1.5240   -5.6980 C.3       1 A50         0.0052
      4 C15       -32.1320    0.5970   -4.5750 C.ar      1 A50        -0.0410
      5 C17       -34.2980    1.4570   -3.9510 C.ar      1 A50        -0.0323
      6 C18       -34.7390    1.1840   -5.2690 C.ar      1 A50         0.0299
      7 C19       -32.6380    0.3720   -5.8610 C.ar      1 A50         0.0028
      8 C20       -26.3660    5.4830   -6.3350 C.3       1 A50         0.0938
      9 N1        -33.9230    0.6580   -6.2270 N.ar      1 A50        -0.2979
     10 C5        -34.0600    4.0040   -6.5270 C.ar      1 A50        -0.0585
     11 C6        -33.1850    4.5060   -7.5220 C.ar      1 A50        -0.0310
     12 C7        -29.3580    5.8420   -6.2760 C.ar      1 A50         0.0874
     13 C9        -31.2870    4.5000   -5.8960 C.ar      1 A50        -0.0540
     14 O2        -27.7520    7.8420   -6.2450 O.2       1 A50        -0.1694
     15 S1        -27.7910    6.4660   -5.7070 S.o2      1 A50        -0.0013
     16 O1        -27.7530    6.2100   -4.2580 O.2       1 A50        -0.1694
     17 C21       -26.3570    5.6100   -7.8780 C.3       1 A50         0.0639
     18 O3        -27.1740    4.5990   -8.4550 O.3       1 A50        -0.3934
     19 C11       -31.1480    5.8860   -7.8800 C.ar      1 A50        -0.0540
     20 C10       -31.8490    4.9570   -7.0970 C.ar      1 A50        -0.0237
     21 C8        -30.0090    4.9160   -5.4470 C.ar      1 A50        -0.0373
     22 C1        -33.6530    4.6650   -8.8530 C.ar      1 A50        -0.0668
     23 C23       -34.9600    4.2850   -9.2330 C.ar      1 A50        -0.0652
     24 C3        -35.8170    3.7520   -8.2330 C.ar      1 A50        -0.0397
     25 C24       -37.2340    3.3660   -8.6050 C.3       1 A50        -0.0210
     26 C25       -37.2660    1.9200   -9.0650 C.3       1 A50        -0.0441
     27 C26       -38.7250    1.6000   -9.3900 C.3       1 A50        -0.0516
     28 C27       -38.8670    0.0920   -9.2450 C.3       1 A50        -0.0558
     29 C28       -40.2650   -0.2830   -9.7520 C.3       1 A50        -0.0653
     30 C4        -35.3720    3.6190   -6.8880 C.ar      1 A50        -0.0376
     31 C16       -32.9690    1.1510   -3.5860 C.ar      1 A50        -0.0489
     32 H1        -29.3216    7.0541   -8.0547 H         1 A50         0.0634
     33 H2        -36.0578    3.5338   -4.8531 H         1 A50         0.0436
     34 H3        -37.3404    3.2963   -6.0881 H         1 A50         0.0436
     35 H4        -36.3317    1.0596   -6.6745 H         1 A50         0.0476
     36 H5        -36.8430    1.1385   -4.9543 H         1 A50         0.0476
     37 H6        -31.1034    0.3467   -4.3418 H         1 A50         0.0652
     38 H7        -34.9755    1.8973   -3.2284 H         1 A50         0.0651
     39 H8        -31.9747   -0.0518   -6.6063 H         1 A50         0.0803
     40 H9        -26.4809    4.4280   -6.0457 H         1 A50         0.0527
     41 H10       -25.4263    5.8767   -5.9203 H         1 A50         0.0527
     42 H11       -33.7270    3.9159   -5.4992 H         1 A50         0.0544
     43 H12       -31.8516    3.8022   -5.2883 H         1 A50         0.0615
     44 H13       -25.3264    5.4995   -8.2464 H         1 A50         0.0573
     45 H14       -26.7448    6.5988   -8.1642 H         1 A50         0.0573
     46 H15       -26.8392    3.7445   -8.2095 H         1 A50         0.2095
     47 H16       -31.5802    6.2560   -8.8027 H         1 A50         0.0615
     48 H17       -29.5663    4.5456   -4.5294 H         1 A50         0.0634
     49 H18       -32.9897    5.0894   -9.5980 H         1 A50         0.0553
     50 H19       -35.2985    4.3968  -10.2567 H         1 A50         0.0542
     51 H20       -37.5887    4.0163   -9.4182 H         1 A50         0.0415
     52 H21       -37.8877    3.4854   -7.7284 H         1 A50         0.0415
     53 H22       -36.9010    1.2587   -8.2654 H         1 A50         0.0286
     54 H23       -36.6404    1.7922   -9.9607 H         1 A50         0.0286
     55 H24       -38.9640    1.9091  -10.4183 H         1 A50         0.0267
     56 H25       -39.3951    2.1161   -8.6868 H         1 A50         0.0267
     57 H26       -38.7591   -0.1969   -8.1891 H         1 A50         0.0263
     58 H27       -38.0992   -0.4182   -9.8451 H         1 A50         0.0263
     59 H28       -40.4077   -1.3701   -9.6635 H         1 A50         0.0230
     60 H29       -40.3650    0.0153  -10.8060 H         1 A50         0.0230
     61 H30       -41.0250    0.2367   -9.1501 H         1 A50         0.0230
     62 H31       -32.6057    1.3355   -2.5815 H         1 A50         0.0719
@<TRIPOS>BOND
     1   12    1 ar 
     2    1   19 ar 
     3    2    3 1  
     4   30    2 1  
     5    3    6 1  
     6    7    4 ar 
     7   31    4 ar 
     8    6    5 ar 
     9    5   31 ar 
    10    6    9 ar 
    11    9    7 ar 
    12   15    8 1  
    13    8   17 1  
    14   11   10 ar 
    15   10   30 ar 
    16   20   11 1  
    17   11   22 ar 
    18   12   15 1  
    19   21   12 ar 
    20   13   20 ar 
    21   13   21 ar 
    22   15   14 2  
    23   15   16 2  
    24   17   18 1  
    25   19   20 ar 
    26   22   23 ar 
    27   23   24 ar 
    28   24   25 1  
    29   24   30 ar 
    30   25   26 1  
    31   26   27 1  
    32   27   28 1  
    33   28   29 1  
    34    1   32 1  
    35    2   33 1  
    36    2   34 1  
    37    3   35 1  
    38    3   36 1  
    39    4   37 1  
    40    5   38 1  
    41    7   39 1  
    42    8   40 1  
    43    8   41 1  
    44   10   42 1  
    45   13   43 1  
    46   17   44 1  
    47   17   45 1  
    48   18   46 1  
    49   19   47 1  
    50   21   48 1  
    51   22   49 1  
    52   23   50 1  
    53   25   51 1  
    54   25   52 1  
    55   26   53 1  
    56   26   54 1  
    57   27   55 1  
    58   27   56 1  
    59   28   57 1  
    60   28   58 1  
    61   29   59 1  
    62   29   60 1  
    63   29   61 1  
    64   31   62 1  
@<TRIPOS>SUBSTRUCTURE
     1 A50         1

