### 
### Created by X-TOOL on Mon Aug  2 16:14:13 2021
### 

@<TRIPOS>MOLECULE
6if0_ligand
   60    62     1     0     0
SMALL
GAST_HUCK


@<TRIPOS>ATOM
      1 C12       -30.0360    6.3650   -7.7660 C.ar      1 A59        -0.0373
      2 C13       -36.1690    2.5810   -5.8620 C.2       1 A59        -0.0509
      3 C14       -35.6750    1.6460   -5.0040 C.2       1 A59        -0.0404
      4 C15       -31.6710    0.3270   -4.6520 C.ar      1 A59        -0.0367
      5 C17       -33.6690    1.2130   -3.5940 C.ar      1 A59        -0.0308
      6 C18       -34.3000    1.2090   -4.8410 C.ar      1 A59         0.0390
      7 C19       -32.3730    0.3750   -5.8650 C.ar      1 A59         0.0065
      8 C20       -26.5440    5.5280   -6.4770 C.3       1 A59         0.0938
      9 N1        -33.6440    0.7890   -5.9670 N.ar      1 A59        -0.2978
     10 C5        -34.1130    3.8250   -6.6300 C.ar      1 A59        -0.0492
     11 C6        -33.3950    4.5090   -7.6550 C.ar      1 A59        -0.0213
     12 C7        -29.5480    5.9980   -6.5150 C.ar      1 A59         0.0874
     13 C9        -31.5330    4.7210   -6.0870 C.ar      1 A59        -0.0537
     14 O2        -27.8960    7.8890   -6.4630 O.2       1 A59        -0.1694
     15 S1        -27.9660    6.5730   -5.9100 S.o2      1 A59        -0.0013
     16 O1        -27.9520    6.2600   -4.4600 O.2       1 A59        -0.1694
     17 C21       -26.4670    5.5840   -8.0120 C.3       1 A59         0.0639
     18 O3        -27.2650    4.5120   -8.5160 O.3       1 A59        -0.3934
     19 C11       -31.3200    5.8700   -8.2110 C.ar      1 A59        -0.0537
     20 C10       -32.0510    5.0400   -7.3400 C.ar      1 A59        -0.0213
     21 C8        -30.2600    5.1680   -5.6610 C.ar      1 A59        -0.0373
     22 C1        -33.9660    4.7550   -8.9010 C.ar      1 A59        -0.0577
     23 C23       -35.2780    4.2720   -9.1480 C.ar      1 A59        -0.0551
     24 C3        -35.9810    3.5830   -8.1460 C.ar      1 A59        -0.0294
     25 C24       -37.3960    3.1110   -8.4430 C.3       1 A59        -0.0157
     26 C25       -37.4640    1.6690   -8.9440 C.3       1 A59        -0.0422
     27 C26       -38.9380    1.3890   -9.3260 C.3       1 A59        -0.0513
     28 C27       -39.1050   -0.1370   -9.2660 C.3       1 A59        -0.0557
     29 C28       -40.4890   -0.5650   -9.7910 C.3       1 A59        -0.0653
     30 C4        -35.4170    3.3460   -6.8860 C.ar      1 A59        -0.0144
     31 C16       -32.3580    0.7810   -3.5100 C.ar      1 A59        -0.0445
     32 H1        -29.4551    7.0202   -8.4050 H         1 A59         0.0634
     33 H2        -37.2351    2.7903   -5.7879 H         1 A59         0.0678
     34 H3        -36.4057    1.1637   -4.3564 H         1 A59         0.0601
     35 H4        -30.6527   -0.0404   -4.5965 H         1 A59         0.0688
     36 H5        -34.1974    1.5485   -2.7090 H         1 A59         0.0700
     37 H6        -31.8611    0.0609   -6.7674 H         1 A59         0.0821
     38 H7        -26.6972    4.4882   -6.1525 H         1 A59         0.0527
     39 H8        -25.6079    5.9126   -6.0459 H         1 A59         0.0527
     40 H9        -33.6594    3.6731   -5.6573 H         1 A59         0.0628
     41 H10       -32.1251    4.1097   -5.4156 H         1 A59         0.0616
     42 H11       -25.4243    5.4643   -8.3414 H         1 A59         0.0573
     43 H12       -26.8577    6.5465   -8.3738 H         1 A59         0.0573
     44 H13       -26.9234    3.6860   -8.1942 H         1 A59         0.2095
     45 H14       -31.7089    6.1310   -9.1886 H         1 A59         0.0616
     46 H15       -29.8547    4.8721   -4.7001 H         1 A59         0.0634
     47 H16       -33.4224    5.3015   -9.6632 H         1 A59         0.0628
     48 H17       -35.7397    4.4358  -10.1150 H         1 A59         0.0565
     49 H18       -37.8280    3.7678   -9.2124 H         1 A59         0.0444
     50 H19       -37.9897    3.1874   -7.5201 H         1 A59         0.0444
     51 H20       -37.1421    0.9783   -8.1507 H         1 A59         0.0290
     52 H21       -36.8159    1.5443   -9.8240 H         1 A59         0.0290
     53 H22       -39.1469    1.7572  -10.3413 H         1 A59         0.0267
     54 H23       -39.6178    1.8768   -8.6119 H         1 A59         0.0267
     55 H24       -38.9981   -0.4693   -8.2229 H         1 A59         0.0263
     56 H25       -38.3255   -0.6082   -9.8827 H         1 A59         0.0263
     57 H26       -40.5794   -1.6599   -9.7360 H         1 A59         0.0230
     58 H27       -40.6015   -0.2398  -10.8358 H         1 A59         0.0230
     59 H28       -41.2741   -0.1009   -9.1760 H         1 A59         0.0230
     60 H29       -31.8521    0.7921   -2.5513 H         1 A59         0.0726
@<TRIPOS>BOND
     1   12    1 ar 
     2    1   19 ar 
     3    2    3 2  
     4   30    2 1  
     5    3    6 1  
     6    7    4 ar 
     7   31    4 ar 
     8    6    5 ar 
     9    5   31 ar 
    10    6    9 ar 
    11    9    7 ar 
    12   15    8 1  
    13    8   17 1  
    14   11   10 ar 
    15   10   30 ar 
    16   20   11 1  
    17   11   22 ar 
    18   12   15 1  
    19   21   12 ar 
    20   13   20 ar 
    21   13   21 ar 
    22   15   14 2  
    23   15   16 2  
    24   17   18 1  
    25   19   20 ar 
    26   22   23 ar 
    27   23   24 ar 
    28   24   25 1  
    29   24   30 ar 
    30   25   26 1  
    31   26   27 1  
    32   27   28 1  
    33   28   29 1  
    34    1   32 1  
    35    2   33 1  
    36    3   34 1  
    37    4   35 1  
    38    5   36 1  
    39    7   37 1  
    40    8   38 1  
    41    8   39 1  
    42   10   40 1  
    43   13   41 1  
    44   17   42 1  
    45   17   43 1  
    46   18   44 1  
    47   19   45 1  
    48   21   46 1  
    49   22   47 1  
    50   23   48 1  
    51   25   49 1  
    52   25   50 1  
    53   26   51 1  
    54   26   52 1  
    55   27   53 1  
    56   27   54 1  
    57   28   55 1  
    58   28   56 1  
    59   29   57 1  
    60   29   58 1  
    61   29   59 1  
    62   31   60 1  
@<TRIPOS>SUBSTRUCTURE
     1 A59         1

