### 
### Created by X-TOOL on Mon Aug  2 16:14:13 2021
### 

@<TRIPOS>MOLECULE
6ift_ligand
   50    52     1     0     0
SMALL
GAST_HUCK


@<TRIPOS>ATOM
      1 N          42.4230   11.3160   11.9290 N.4       1 SAM         0.2328
      2 CA         41.8040   12.4430   11.2740 C.3       1 SAM         0.0327
      3 C          40.7530   11.9120   10.4080 C.2       1 SAM         0.0846
      4 O          40.8130   10.7520    9.9850 O.co2     1 SAM        -0.5643
      5 OXT        39.9080   12.7280   10.1330 O.co2     1 SAM        -0.5643
      6 CB         42.8390   13.2690   10.4860 C.3       1 SAM         0.0473
      7 CG         43.6430   12.5250    9.4150 C.3       1 SAM         0.1163
      8 SD         44.8650   13.4050    8.5780 S.3       1 SAM        -0.0103
      9 CE         45.1390   12.2690    7.3590 C.3       1 SAM         0.0995
     10 C5'        46.4000   13.4150    9.2640 C.3       1 SAM         0.1381
     11 C4'        46.6150   14.0830   10.6240 C.3       1 SAM         0.1350
     12 O4'        47.9440   13.8760   11.1670 O.3       1 SAM        -0.3344
     13 C3'        46.4170   15.5760   10.6800 C.3       1 SAM         0.1168
     14 O3'        45.6050   15.9120   11.7950 O.3       1 SAM        -0.3863
     15 C2'        47.8240   16.0920   10.8970 C.3       1 SAM         0.1386
     16 O2'        47.8920   17.3690   11.4980 O.3       1 SAM        -0.3836
     17 C1'        48.4790   15.0570   11.7740 C.3       1 SAM         0.2011
     18 N9         49.9730   14.9260   11.6480 N.pl3     1 SAM        -0.1919
     19 C8         50.7430   15.1700   10.5600 C.2       1 SAM         0.1123
     20 N7         52.0340   14.8520   10.7910 N.2       1 SAM        -0.2958
     21 C5         52.0610   14.4000   12.0870 C.ar      1 SAM         0.1045
     22 C6         53.0630   13.8710   13.0040 C.ar      1 SAM         0.1298
     23 N6         54.3210   13.7850   12.5770 N.pl3     1 SAM        -0.3152
     24 N1         52.7390   13.4750   14.2380 N.ar      1 SAM        -0.2698
     25 C2         51.4440   13.5500   14.6880 C.ar      1 SAM         0.0533
     26 N3         50.4590   14.0080   13.9330 N.ar      1 SAM        -0.2714
     27 C4         50.7240   14.4300   12.6400 C.ar      1 SAM         0.1613
     28 H1         43.1567   11.6428   12.5380 H         1 SAM         0.2010
     29 H2         42.8127   10.6968   11.2356 H         1 SAM         0.2010
     30 H3         41.7320   10.8212   12.4710 H         1 SAM         0.2010
     31 H4         41.3481   13.0964   12.0324 H         1 SAM         0.1026
     32 H5         43.5545   13.6852   11.2105 H         1 SAM         0.0385
     33 H6         42.3014   14.0898    9.9887 H         1 SAM         0.0385
     34 H7         42.9287   12.1582    8.6632 H         1 SAM         0.0843
     35 H8         44.1311   11.6697    9.9051 H         1 SAM         0.0843
     36 H9         45.9189   12.6420    6.6788 H         1 SAM         0.0803
     37 H10        44.2089   12.1045    6.7952 H         1 SAM         0.0803
     38 H11        45.4677   11.3205    7.8088 H         1 SAM         0.0803
     39 H12        47.0658   13.9220    8.5501 H         1 SAM         0.0867
     40 H13        46.7090   12.3648    9.3714 H         1 SAM         0.0867
     41 H14        45.8859   13.6223   11.3067 H         1 SAM         0.0671
     42 H15        45.9759   15.9662    9.7510 H         1 SAM         0.0649
     43 H16        46.0293   15.6207   12.5936 H         1 SAM         0.2100
     44 H17        48.3423   16.1445    9.9282 H         1 SAM         0.0676
     45 H18        47.4729   17.3395   12.3501 H         1 SAM         0.2101
     46 H19        48.1942   15.1838   12.8289 H         1 SAM         0.0996
     47 H20        50.3680   15.5713    9.6196 H         1 SAM         0.1349
     48 H21        55.0525   13.4155   13.2009 H         1 SAM         0.1820
     49 H22        54.5628   14.0880   11.6227 H         1 SAM         0.1820
     50 H23        51.2210   13.2225   15.6970 H         1 SAM         0.0996
@<TRIPOS>BOND
     1    1    2 1  
     2    2    3 1  
     3    2    6 1  
     4    3    4 ar 
     5    3    5 ar 
     6    6    7 1  
     7    7    8 1  
     8    8    9 1  
     9    8   10 1  
    10   10   11 1  
    11   11   12 1  
    12   11   13 1  
    13   12   17 1  
    14   13   14 1  
    15   13   15 1  
    16   15   16 1  
    17   15   17 1  
    18   17   18 1  
    19   18   19 1  
    20   18   27 1  
    21   19   20 2  
    22   20   21 1  
    23   21   22 ar 
    24   21   27 ar 
    25   22   23 1  
    26   22   24 ar 
    27   24   25 ar 
    28   25   26 ar 
    29   26   27 ar 
    30    1   28 1  
    31    1   29 1  
    32    1   30 1  
    33    2   31 1  
    34    6   32 1  
    35    6   33 1  
    36    7   34 1  
    37    7   35 1  
    38    9   36 1  
    39    9   37 1  
    40    9   38 1  
    41   10   39 1  
    42   10   40 1  
    43   11   41 1  
    44   13   42 1  
    45   14   43 1  
    46   15   44 1  
    47   16   45 1  
    48   17   46 1  
    49   19   47 1  
    50   23   48 1  
    51   23   49 1  
    52   25   50 1  
@<TRIPOS>SUBSTRUCTURE
     1 SAM         1

