### 
### Created by X-TOOL on Wed Jan  1 15:39:37 2020
### 

@<TRIPOS>MOLECULE
6iiu_ligand
   49    52     1     0     0
SMALL
GAST_HUCK


@<TRIPOS>ATOM
      1 F          20.0300  162.9740  145.3630 F         1 A8X        -0.1834
      2 C11        27.6380  163.1300  147.9760 C.3       1 A8X        -0.0223
      3 C12        26.1910  162.8780  147.4460 C.3       1 A8X         0.0419
      4 C16        21.1990  162.4210  145.5920 C.ar      1 A8X         0.1325
      5 C15        21.6040  162.2650  146.9250 C.ar      1 A8X        -0.0263
      6 C14        22.8290  161.6490  147.1490 C.ar      1 A8X        -0.0370
      7 C17        21.9940  161.9690  144.4880 C.ar      1 A8X        -0.0263
      8 C18        23.2320  161.3520  144.7420 C.ar      1 A8X        -0.0370
      9 C13        23.6680  161.1980  146.0810 C.ar      1 A8X         0.1041
     10 S          25.1490  160.5580  146.4060 S.o2      1 A8X         0.0667
     11 O2         25.1330  160.0270  147.7230 O.2       1 A8X        -0.1508
     12 O3         25.6240  159.7470  145.3490 O.2       1 A8X        -0.1508
     13 N1         26.1490  161.8670  146.4270 N.am      1 A8X        -0.2437
     14 C19        25.5250  164.1940  146.9370 C.3       1 A8X        -0.0211
     15 C20        25.2540  165.1110  148.1490 C.3       1 A8X         0.0015
     16 C3         26.4840  165.1640  149.0410 C.2       1 A8X         0.0409
     17 C4         27.5440  164.2500  148.9830 C.2       1 A8X        -0.0465
     18 C5         28.4530  164.5740  150.0160 C.ar      1 A8X        -0.0317
     19 C10        27.9150  165.7280  150.6990 C.ar      1 A8X         0.0584
     20 C9         28.5910  166.2640  151.8260 C.ar      1 A8X        -0.0481
     21 C8         29.7820  165.6320  152.2440 C.ar      1 A8X        -0.0802
     22 C7         30.3190  164.5030  151.5670 C.ar      1 A8X        -0.0830
     23 C6         29.6700  163.9720  150.4570 C.ar      1 A8X        -0.0798
     24 N          26.6930  166.1300  150.0760 N.pl3     1 A8X        -0.2657
     25 C2         26.5660  167.5440  149.6260 C.3       1 A8X         0.0606
     26 C1         25.8340  168.5000  150.5180 C.3       1 A8X         0.0261
     27 C          26.9050  169.2800  151.2160 C.2       1 A8X         0.0373
     28 O          27.6790  170.0800  150.7260 O.co2     1 A8X        -0.5689
     29 O1         27.0660  169.0670  152.5150 O.co2     1 A8X        -0.5689
     30 H1         28.2998  163.4207  147.1469 H         1 A8X         0.0339
     31 H2         28.0293  162.2209  148.4561 H         1 A8X         0.0339
     32 H3         25.5946  162.5128  148.2950 H         1 A8X         0.0524
     33 H4         20.9871  162.6106  147.7467 H         1 A8X         0.0604
     34 H5         23.1616  161.5047  148.1706 H         1 A8X         0.0627
     35 H6         21.6453  162.1011  143.4702 H         1 A8X         0.0604
     36 H7         23.8461  160.9980  143.9218 H         1 A8X         0.0627
     37 H8         26.7841  161.9666  145.6610 H         1 A8X         0.1676
     38 H9         24.5768  163.9579  146.4319 H         1 A8X         0.0307
     39 H10        26.1995  164.7018  146.2319 H         1 A8X         0.0307
     40 H11        24.4035  164.7151  148.7233 H         1 A8X         0.0444
     41 H12        25.0167  166.1247  147.7939 H         1 A8X         0.0444
     42 H13        28.2049  167.1313  152.3492 H         1 A8X         0.0531
     43 H14        30.3048  166.0206  153.1104 H         1 A8X         0.0502
     44 H15        31.2405  164.0529  151.9182 H         1 A8X         0.0500
     45 H16        30.0815  163.1154  149.9356 H         1 A8X         0.0510
     46 H17        26.0440  167.5342  148.6578 H         1 A8X         0.0611
     47 H18        27.5842  167.9372  149.4897 H         1 A8X         0.0611
     48 H19        25.2173  167.9534  151.2466 H         1 A8X         0.0456
     49 H20        25.1937  169.1690  149.9244 H         1 A8X         0.0456
@<TRIPOS>BOND
     1    4    1 1  
     2    3    2 1  
     3    2   17 1  
     4   13    3 1  
     5    3   14 1  
     6    5    4 ar 
     7    7    4 ar 
     8    6    5 ar 
     9    9    6 ar 
    10    8    7 ar 
    11    9    8 ar 
    12   10    9 1  
    13   10   11 2  
    14   10   12 2  
    15   10   13 am 
    16   14   15 1  
    17   15   16 1  
    18   16   17 2  
    19   16   24 1  
    20   17   18 1  
    21   18   19 ar 
    22   18   23 ar 
    23   19   20 ar 
    24   19   24 1  
    25   20   21 ar 
    26   21   22 ar 
    27   22   23 ar 
    28   24   25 1  
    29   25   26 1  
    30   26   27 1  
    31   27   28 ar 
    32   27   29 ar 
    33    2   30 1  
    34    2   31 1  
    35    3   32 1  
    36    5   33 1  
    37    6   34 1  
    38    7   35 1  
    39    8   36 1  
    40   13   37 1  
    41   14   38 1  
    42   14   39 1  
    43   15   40 1  
    44   15   41 1  
    45   20   42 1  
    46   21   43 1  
    47   22   44 1  
    48   23   45 1  
    49   25   46 1  
    50   25   47 1  
    51   26   48 1  
    52   26   49 1  
@<TRIPOS>SUBSTRUCTURE
     1 A8X         1

