### 
### Created by X-TOOL on Wed Jan  1 15:39:37 2020
### 

@<TRIPOS>MOLECULE
6iiv_ligand
   38    39     1     0     0
SMALL
GAST_HUCK


@<TRIPOS>ATOM
      1 C4         26.2690  163.5180  143.8840 C.ar      1 A90        -0.0665
      2 C14        26.3900  165.6720  146.8600 C.3       1 A90         0.0304
      3 C5         26.4530  162.2450  144.4330 C.ar      1 A90        -0.0480
      4 C6         26.4730  161.1680  143.5470 C.3       1 A90        -0.0053
      5 C11        21.2470  159.2570  142.2940 C.ar      1 A90         0.0405
      6 C7         26.2770  159.8050  144.2060 C.3       1 A90         0.0353
      7 C8         23.7530  158.2000  142.8800 C.ar      1 A90         0.1083
      8 C9         23.2940  158.1950  141.5610 C.ar      1 A90        -0.0346
      9 C10        22.0350  158.7140  141.2740 C.ar      1 A90        -0.0460
     10 C12        21.7100  159.2770  143.6090 C.ar      1 A90        -0.0460
     11 C13        22.9560  158.7230  143.9040 C.ar      1 A90        -0.0346
     12 C3         26.2640  164.6500  144.7010 C.ar      1 A90        -0.0651
     13 O2         27.8660  165.3280  148.6980 O.co2     1 A90        -0.5666
     14 C15        27.7210  165.9020  147.6000 C.2       1 A90         0.0453
     15 O3         28.5660  166.6420  147.0620 O.co2     1 A90        -0.5666
     16 C2         26.4260  164.5210  146.0770 C.ar      1 A90        -0.0368
     17 C1         26.5900  163.2440  146.6400 C.ar      1 A90        -0.0651
     18 C          26.6280  162.1080  145.8220 C.ar      1 A90        -0.0665
     19 N          26.4820  158.7560  143.2030 N.am      1 A90        -0.2456
     20 S          25.3650  157.5650  143.2340 S.o2      1 A90         0.0684
     21 O          25.7500  156.5470  142.1590 O.2       1 A90        -0.1503
     22 O1         25.3830  156.9030  144.6110 O.2       1 A90        -0.1503
     23 CL         19.6870  159.9270  141.9110 Cl        1 A90        -0.0707
     24 H1         26.1290  163.6267  142.8146 H         1 A90         0.0540
     25 H2         26.1888  166.5375  146.2116 H         1 A90         0.0575
     26 H3         25.5830  165.5735  147.6010 H         1 A90         0.0575
     27 H4         27.4449  161.1644  143.0319 H         1 A90         0.0429
     28 H5         25.6684  161.3130  142.8110 H         1 A90         0.0429
     29 H6         25.2565  159.7342  144.6103 H         1 A90         0.0496
     30 H7         27.0042  159.6820  145.0221 H         1 A90         0.0496
     31 H8         23.9127  157.7906  140.7681 H         1 A90         0.0637
     32 H9         21.6636  158.6973  140.2558 H         1 A90         0.0624
     33 H10        21.1077  159.7187  144.3946 H         1 A90         0.0624
     34 H11        23.3074  158.6977  144.9291 H         1 A90         0.0637
     35 H12        26.1335  165.6325  144.2621 H         1 A90         0.0542
     36 H13        26.6877  163.1376  147.7143 H         1 A90         0.0542
     37 H14        26.7914  161.1285  146.2568 H         1 A90         0.0540
     38 H15        27.2425  158.7686  142.5538 H         1 A90         0.1674
@<TRIPOS>BOND
     1    3    1 ar 
     2    1   12 ar 
     3    2   14 1  
     4   16    2 1  
     5    4    3 1  
     6    3   18 ar 
     7    6    4 1  
     8    9    5 ar 
     9   10    5 ar 
    10    5   23 1  
    11   19    6 1  
    12    7    8 ar 
    13    7   11 ar 
    14   20    7 1  
    15    8    9 ar 
    16   11   10 ar 
    17   12   16 ar 
    18   14   13 ar 
    19   14   15 ar 
    20   17   16 ar 
    21   18   17 ar 
    22   19   20 am 
    23   20   21 2  
    24   20   22 2  
    25    1   24 1  
    26    2   25 1  
    27    2   26 1  
    28    4   27 1  
    29    4   28 1  
    30    6   29 1  
    31    6   30 1  
    32    8   31 1  
    33    9   32 1  
    34   10   33 1  
    35   11   34 1  
    36   12   35 1  
    37   17   36 1  
    38   18   37 1  
    39   19   38 1  
@<TRIPOS>SUBSTRUCTURE
     1 A90         1

