### 
### Created by X-TOOL on Mon Aug  2 16:14:14 2021
### 

@<TRIPOS>MOLECULE
6ijh_ligand
   45    49     1     0     0
SMALL
GAST_HUCK


@<TRIPOS>ATOM
      1 C1        -20.0430  -12.5010   33.1640 C.ar      1 AEO        -0.0065
      2 C2        -19.3510  -11.2640   33.1850 C.ar      1 AEO        -0.0463
      3 C3        -18.8640  -10.7580   34.3560 C.ar      1 AEO        -0.0523
      4 C4        -19.0420  -11.4300   35.5560 C.ar      1 AEO        -0.0390
      5 C5        -19.7210  -12.6300   35.5890 C.ar      1 AEO         0.0635
      6 C6        -20.2330  -13.1890   34.3960 C.ar      1 AEO         0.0178
      7 C7        -20.9590  -14.4030   34.4130 C.ar      1 AEO         0.0635
      8 C8        -21.4560  -14.9250   33.2370 C.ar      1 AEO        -0.0390
      9 C9        -21.2600  -14.2600   32.0330 C.ar      1 AEO        -0.0523
     10 C10       -20.5780  -13.0770   31.9830 C.ar      1 AEO        -0.0463
     11 C11       -19.9620  -13.3040   36.8850 C.2       1 AEO         0.2336
     12 N12       -20.7440  -14.4670   36.8630 N.am      1 AEO        -0.1833
     13 C13       -21.2280  -15.0870   35.6990 C.2       1 AEO         0.2336
     14 O14       -21.8170  -16.1480   35.7610 O.2       1 AEO        -0.3768
     15 O15       -19.5030  -12.8910   37.9340 O.2       1 AEO        -0.3768
     16 C16       -21.2940  -14.8910   38.1750 C.3       1 AEO         0.0712
     17 C17       -21.7470  -16.3420   38.2820 C.3       1 AEO         0.0484
     18 C18       -21.6890  -16.8600   39.6820 C.2       1 AEO         0.1612
     19 N19       -22.3100  -16.2720   40.7890 N.am      1 AEO        -0.1547
     20 C20       -22.0170  -17.0660   41.8780 C.2       1 AEO         0.2101
     21 N21       -21.2780  -18.0520   41.3670 N.am      1 AEO        -0.1930
     22 N22       -21.0620  -17.9440   40.0310 N.2       1 AEO        -0.1998
     23 C23       -23.1600  -15.1040   40.8570 C.ar      1 AEO         0.1049
     24 S24       -22.4650  -16.8300   43.4760 S.2       1 AEO        -0.3196
     25 C25       -22.6240  -13.8290   40.6850 C.ar      1 AEO        -0.0303
     26 C26       -23.4610  -12.7230   40.7120 C.ar      1 AEO        -0.0707
     27 C27       -24.8120  -12.8740   40.9560 C.ar      1 AEO        -0.0733
     28 C28       -25.3350  -14.1330   41.1790 C.ar      1 AEO        -0.0707
     29 C29       -24.5180  -15.2510   41.1320 C.ar      1 AEO        -0.0303
     30 H1        -19.2070  -10.7141   32.2620 H         1 AEO         0.0686
     31 H2        -18.3292   -9.8151   34.3475 H         1 AEO         0.0635
     32 H3        -18.6453  -11.0098   36.4731 H         1 AEO         0.0700
     33 H4        -22.0033  -15.8606   33.2523 H         1 AEO         0.0700
     34 H5        -21.6547  -14.6867   31.1180 H         1 AEO         0.0635
     35 H6        -20.4445  -12.5739   31.0321 H         1 AEO         0.0686
     36 H7        -22.1617  -14.2522   38.3965 H         1 AEO         0.0601
     37 H8        -20.5146  -14.7268   38.9336 H         1 AEO         0.0601
     38 H9        -21.0949  -16.9623   37.6496 H         1 AEO         0.0497
     39 H10       -22.7839  -16.4149   37.9221 H         1 AEO         0.0497
     40 H11       -20.9156  -18.8033   41.9185 H         1 AEO         0.2502
     41 H12       -21.5585  -13.7022   40.5309 H         1 AEO         0.0546
     42 H13       -23.0520  -11.7339   40.5405 H         1 AEO         0.0587
     43 H14       -25.4610  -12.0059   40.9725 H         1 AEO         0.0520
     44 H15       -26.3917  -14.2470   41.3922 H         1 AEO         0.0587
     45 H16       -24.9338  -16.2364   41.3085 H         1 AEO         0.0546
@<TRIPOS>BOND
     1    1    2 ar 
     2    1    6 ar 
     3    1   10 ar 
     4    2    3 ar 
     5    3    4 ar 
     6    4    5 ar 
     7    5    6 ar 
     8    5   11 1  
     9    6    7 ar 
    10    7    8 ar 
    11    7   13 1  
    12    8    9 ar 
    13    9   10 ar 
    14   11   12 am 
    15   11   15 2  
    16   12   13 am 
    17   12   16 1  
    18   13   14 2  
    19   16   17 1  
    20   17   18 1  
    21   18   19 1  
    22   18   22 2  
    23   19   20 am 
    24   19   23 1  
    25   20   21 am 
    26   20   24 2  
    27   21   22 1  
    28   23   25 ar 
    29   23   29 ar 
    30   25   26 ar 
    31   26   27 ar 
    32   27   28 ar 
    33   28   29 ar 
    34    2   30 1  
    35    3   31 1  
    36    4   32 1  
    37    8   33 1  
    38    9   34 1  
    39   10   35 1  
    40   16   36 1  
    41   16   37 1  
    42   17   38 1  
    43   17   39 1  
    44   21   40 1  
    45   25   41 1  
    46   26   42 1  
    47   27   43 1  
    48   28   44 1  
    49   29   45 1  
@<TRIPOS>SUBSTRUCTURE
     1 AEO         1

