### 
### Created by X-TOOL on Mon Aug  2 16:14:14 2021
### 

@<TRIPOS>MOLECULE
6iji_ligand
   53    58     1     0     0
SMALL
GAST_HUCK


@<TRIPOS>ATOM
      1 C11        19.1760   18.8490  -17.8260 C.2       1 AEL         0.2337
      2 C13        17.7390   20.7480  -17.1770 C.2       1 AEL         0.2337
      3 O15        19.3140   17.6550  -17.8900 O.2       1 AEL        -0.3768
      4 C18        15.5030   17.6100  -15.1440 C.2       1 AEL         0.1427
      5 C20        14.7420   15.7310  -14.2920 C.ar      1 AEL         0.0942
      6 C1         20.9480   22.0780  -18.6510 C.ar      1 AEL        -0.0065
      7 C2         22.1750   21.5600  -19.0920 C.ar      1 AEL        -0.0463
      8 C3         22.3920   20.2230  -19.1150 C.ar      1 AEL        -0.0523
      9 C4         21.4070   19.3350  -18.7400 C.ar      1 AEL        -0.0390
     10 C5         20.1960   19.8000  -18.2990 C.ar      1 AEL         0.0635
     11 C6         19.9550   21.1810  -18.2300 C.ar      1 AEL         0.0178
     12 C7         18.7690   21.6800  -17.6700 C.ar      1 AEL         0.0635
     13 C8         18.5850   23.0290  -17.5370 C.ar      1 AEL        -0.0390
     14 C9         19.5610   23.9070  -17.9590 C.ar      1 AEL        -0.0523
     15 C10        20.7130   23.4580  -18.5100 C.ar      1 AEL        -0.0463
     16 N12        18.0080   19.3870  -17.3020 N.am      1 AEL        -0.1827
     17 O14        16.7070   21.1220  -16.6830 O.2       1 AEL        -0.3768
     18 C16        16.9600   18.4550  -16.9280 C.3       1 AEL         0.0752
     19 C17        16.4730   18.6720  -15.5170 C.3       1 AEL         0.0575
     20 N19        15.8800   16.4920  -14.4580 N.pl3     1 AEL        -0.1825
     21 C21        13.7280   16.4530  -14.8940 C.ar      1 AEL         0.0189
     22 N22        14.2250   17.6300  -15.4260 N.2       1 AEL        -0.3152
     23 C23        14.5040   14.5580  -13.6030 C.ar      1 AEL        -0.0432
     24 C24        13.2000   14.1180  -13.5180 C.ar      1 AEL        -0.0730
     25 C25        12.1530   14.8020  -14.1310 C.ar      1 AEL        -0.0618
     26 C26        12.4330   15.9760  -14.8170 C.ar      1 AEL        -0.0640
     27 C27        17.1370   16.1750  -13.8530 C.ar      1 AEL         0.1139
     28 C28        17.2830   16.2300  -12.4850 C.ar      1 AEL        -0.0025
     29 C29        18.4770   15.8530  -11.9270 C.ar      1 AEL         0.0028
     30 N30        19.5120   15.4360  -12.6410 N.ar      1 AEL        -0.3099
     31 C31        19.3500   15.3890  -13.9680 C.ar      1 AEL         0.0028
     32 C32        18.1890   15.7450  -14.6050 C.ar      1 AEL        -0.0025
     33 C33        10.7520   14.2520  -14.0930 C.3       1 AEL        -0.0370
     34 H1         22.9571   22.2363  -19.4175 H         1 AEL         0.0686
     35 H2         23.3567   19.8452  -19.4338 H         1 AEL         0.0635
     36 H3         21.5905   18.2680  -18.7940 H         1 AEL         0.0700
     37 H4         17.6693   23.4089  -17.0986 H         1 AEL         0.0700
     38 H5         19.4032   24.9737  -17.8477 H         1 AEL         0.0635
     39 H6         21.4607   24.1676  -18.8454 H         1 AEL         0.0686
     40 H7         17.3517   17.4306  -17.0127 H         1 AEL         0.0608
     41 H8         16.1123   18.5816  -17.6175 H         1 AEL         0.0608
     42 H9         17.3295   18.6412  -14.8275 H         1 AEL         0.0558
     43 H10        15.9820   19.6539  -15.4483 H         1 AEL         0.0558
     44 H11        15.3143   14.0024  -13.1449 H         1 AEL         0.0541
     45 H12        12.9838   13.2149  -12.9587 H         1 AEL         0.0483
     46 H13        11.6293   16.5232  -15.2963 H         1 AEL         0.0467
     47 H14        16.4653   16.5667  -11.8581 H         1 AEL         0.0661
     48 H15        18.5793   15.8983  -10.8488 H         1 AEL         0.0795
     49 H16        20.1830   15.0506  -14.5736 H         1 AEL         0.0795
     50 H17        18.1097   15.6856  -15.6845 H         1 AEL         0.0661
     51 H18        10.7386   13.3232  -13.5038 H         1 AEL         0.0372
     52 H19        10.4130   14.0409  -15.1179 H         1 AEL         0.0372
     53 H20        10.0808   14.9899  -13.6294 H         1 AEL         0.0372
@<TRIPOS>BOND
     1    1    3 2  
     2    1   10 1  
     3   16    1 am 
     4    2   12 1  
     5   16    2 am 
     6    2   17 2  
     7   19    4 1  
     8    4   20 1  
     9    4   22 2  
    10   20    5 1  
    11    5   21 ar 
    12    5   23 ar 
    13    6    7 ar 
    14   11    6 ar 
    15    6   15 ar 
    16    8    7 ar 
    17    9    8 ar 
    18   10    9 ar 
    19   10   11 ar 
    20   12   11 ar 
    21   12   13 ar 
    22   13   14 ar 
    23   14   15 ar 
    24   18   16 1  
    25   18   19 1  
    26   20   27 1  
    27   21   22 1  
    28   21   26 ar 
    29   23   24 ar 
    30   24   25 ar 
    31   25   26 ar 
    32   25   33 1  
    33   27   28 ar 
    34   27   32 ar 
    35   28   29 ar 
    36   29   30 ar 
    37   30   31 ar 
    38   31   32 ar 
    39    7   34 1  
    40    8   35 1  
    41    9   36 1  
    42   13   37 1  
    43   14   38 1  
    44   15   39 1  
    45   18   40 1  
    46   18   41 1  
    47   19   42 1  
    48   19   43 1  
    49   23   44 1  
    50   24   45 1  
    51   26   46 1  
    52   28   47 1  
    53   29   48 1  
    54   31   49 1  
    55   32   50 1  
    56   33   51 1  
    57   33   52 1  
    58   33   53 1  
@<TRIPOS>SUBSTRUCTURE
     1 AEL         1

