### 
### Created by X-TOOL on Mon Aug  2 16:11:37 2021
### 

@<TRIPOS>MOLECULE
6ijl_ligand
   68    72     1     0     0
SMALL
GAST_HUCK


@<TRIPOS>ATOM
      1 CAA        74.9140  128.7340  123.1380 C.3       1 A8U         0.0644
      2 CAC        76.7090  128.8550  124.9170 C.3       1 A8U         0.0565
      3 CAD        75.9840  130.0620  125.5290 C.3       1 A8U         0.0538
      4 CAF        74.3380  129.9170  123.8110 C.3       1 A8U         0.0564
      5 CAG        75.0020  132.0770  124.5330 C.2       1 A8U         0.2106
      6 CAI        74.4100  132.6790  123.4630 C.ar      1 A8U         0.0574
      7 CAJ        73.5160  133.6820  123.6840 C.ar      1 A8U        -0.0160
      8 CAK        72.9510  134.3730  122.6450 C.ar      1 A8U         0.0578
      9 CAL        73.5030  134.3270  121.3860 C.ar      1 A8U         0.0121
     10 CAM        74.5910  133.4840  121.1540 C.ar      1 A8U        -0.0411
     11 CAN        75.0820  132.7070  122.2230 C.ar      1 A8U        -0.0364
     12 CAP        71.3980  135.9750  122.0770 C.ar      1 A8U         0.0720
     13 CAQ        71.8460  135.9430  120.7540 C.ar      1 A8U        -0.0181
     14 CAR        72.9300  135.1370  120.4150 C.ar      1 A8U        -0.0304
     15 CAT        75.7950  129.1980  121.9660 C.3       1 A8U        -0.0399
     16 CAU        75.6450  126.6550  124.2530 C.2       1 A8U         0.3224
     17 CAX        76.1010  124.5920  125.2200 C.3       1 A8U         0.0771
     18 CAY        76.9260  123.9370  124.1210 C.3       1 A8U        -0.0280
     19 CAZ        78.4010  124.1870  124.3970 C.3       1 A8U        -0.0629
     20 CBA        70.2610  136.6460  122.4960 C.ar      1 A8U         0.0291
     21 CBB        69.7750  137.7860  121.8810 C.ar      1 A8U        -0.0220
     22 CBC        68.6410  138.4160  122.3880 C.ar      1 A8U        -0.0339
     23 CBD        68.0130  137.9110  123.5250 C.ar      1 A8U        -0.0051
     24 CBE        68.5130  136.7840  124.1600 C.ar      1 A8U        -0.0339
     25 CBF        69.6590  136.1880  123.6670 C.ar      1 A8U        -0.0220
     26 CBG        66.8880  138.5300  124.0400 C.3       1 A8U        -0.0212
     27 CBH        66.0800  137.7820  125.0950 C.3       1 A8U        -0.0347
     28 CBI        67.0050  138.9250  125.4910 C.3       1 A8U        -0.0347
     29 NAB        75.6670  127.9960  124.1940 N.am      1 A8U        -0.2423
     30 NAE        75.3430  130.8040  124.4430 N.am      1 A8U        -0.2678
     31 NAO        71.8980  135.1120  122.9490 N.ar      1 A8U        -0.2779
     32 NBJ        66.1710  139.4640  123.1590 N.4       1 A8U         0.1730
     33 OAH        75.7840  132.8190  125.1480 O.2       1 A8U        -0.3829
     34 OAV        76.3460  126.0140  125.2360 O.3       1 A8U        -0.2638
     35 OAW        74.7800  126.0510  123.6130 O.2       1 A8U        -0.3774
     36 H1         74.1127  128.0914  122.7443 H         1 A8U         0.0575
     37 H2         77.1918  128.2669  125.7114 H         1 A8U         0.0542
     38 H3         77.4703  129.1997  124.2017 H         1 A8U         0.0542
     39 H4         76.7077  130.7089  126.0465 H         1 A8U         0.0542
     40 H5         75.2234  129.7168  126.2447 H         1 A8U         0.0542
     41 H6         73.6465  129.5675  124.5918 H         1 A8U         0.0544
     42 H7         73.7820  130.5025  123.0640 H         1 A8U         0.0544
     43 H8         73.2462  133.9386  124.7020 H         1 A8U         0.0724
     44 H9         75.0486  133.4279  120.1729 H         1 A8U         0.0660
     45 H10        75.9864  132.1243  122.0906 H         1 A8U         0.0689
     46 H11        71.3531  136.5415  119.9964 H         1 A8U         0.0733
     47 H12        73.3219  135.1421  119.4043 H         1 A8U         0.0773
     48 H13        76.2262  128.3206  121.4617 H         1 A8U         0.0252
     49 H14        76.6053  129.8369  122.3469 H         1 A8U         0.0252
     50 H15        75.1837  129.7682  121.2510 H         1 A8U         0.0252
     51 H16        76.3825  124.1624  126.1927 H         1 A8U         0.0611
     52 H17        75.0327  124.4080  125.0331 H         1 A8U         0.0611
     53 H18        76.6540  124.3701  123.1471 H         1 A8U         0.0288
     54 H19        76.7310  122.8545  124.1082 H         1 A8U         0.0288
     55 H20        79.0064  123.7173  123.6078 H         1 A8U         0.0231
     56 H21        78.6701  123.7544  125.3719 H         1 A8U         0.0231
     57 H22        78.5931  125.2700  124.4108 H         1 A8U         0.0231
     58 H23        70.2752  138.1877  121.0072 H         1 A8U         0.0720
     59 H24        68.2469  139.2991  121.8982 H         1 A8U         0.0845
     60 H25        68.0123  136.3761  125.0306 H         1 A8U         0.0845
     61 H26        70.0964  135.3512  124.1995 H         1 A8U         0.0720
     62 H27        66.3399  136.7458  125.3570 H         1 A8U         0.0212
     63 H28        64.9889  137.9112  125.1487 H         1 A8U         0.0212
     64 H29        66.5812  139.8797  125.8358 H         1 A8U         0.0212
     65 H30        67.9321  138.7142  126.0442 H         1 A8U         0.0212
     66 H31        66.1568  139.0967  122.2204 H         1 A8U         0.1954
     67 H32        66.6392  140.3567  123.1634 H         1 A8U         0.1954
     68 H33        65.2256  139.5788  123.4892 H         1 A8U         0.1954
@<TRIPOS>BOND
     1    1    4 1  
     2    1   15 1  
     3   29    1 1  
     4    2    3 1  
     5   29    2 1  
     6    3   30 1  
     7    4   30 1  
     8    5    6 1  
     9   30    5 am 
    10    5   33 2  
    11    6    7 ar 
    12    6   11 ar 
    13    7    8 ar 
    14    8    9 ar 
    15    8   31 ar 
    16   10    9 ar 
    17    9   14 ar 
    18   11   10 ar 
    19   12   13 ar 
    20   12   20 1  
    21   31   12 ar 
    22   14   13 ar 
    23   16   29 am 
    24   34   16 1  
    25   16   35 2  
    26   17   18 1  
    27   17   34 1  
    28   18   19 1  
    29   20   21 ar 
    30   20   25 ar 
    31   21   22 ar 
    32   22   23 ar 
    33   23   24 ar 
    34   23   26 1  
    35   24   25 ar 
    36   26   27 1  
    37   26   28 1  
    38   26   32 1  
    39   27   28 1  
    40    1   36 1  
    41    2   37 1  
    42    2   38 1  
    43    3   39 1  
    44    3   40 1  
    45    4   41 1  
    46    4   42 1  
    47    7   43 1  
    48   10   44 1  
    49   11   45 1  
    50   13   46 1  
    51   14   47 1  
    52   15   48 1  
    53   15   49 1  
    54   15   50 1  
    55   17   51 1  
    56   17   52 1  
    57   18   53 1  
    58   18   54 1  
    59   19   55 1  
    60   19   56 1  
    61   19   57 1  
    62   21   58 1  
    63   22   59 1  
    64   24   60 1  
    65   25   61 1  
    66   27   62 1  
    67   27   63 1  
    68   28   64 1  
    69   28   65 1  
    70   32   66 1  
    71   32   67 1  
    72   32   68 1  
@<TRIPOS>SUBSTRUCTURE
     1 A8U         1

