### 
### Created by X-TOOL on Mon Aug  2 16:14:14 2021
### 

@<TRIPOS>MOLECULE
6ikm_ligand
   32    31     1     0     0
SMALL
GAST_HUCK


@<TRIPOS>ATOM
      1 N1        -14.9580  -18.0800  147.9590 N.4       1 SPD         0.2185
      2 C2        -15.1070  -16.9010  148.7610 C.3       1 SPD        -0.0352
      3 C3        -16.1930  -16.0180  148.1580 C.3       1 SPD        -0.0078
      4 C4        -17.4980  -16.1830  148.9410 C.3       1 SPD        -0.0078
      5 C5        -18.6920  -15.8720  148.0230 C.3       1 SPD        -0.0335
      6 N6        -19.5650  -17.0250  147.8910 N.4       1 SPD         0.2271
      7 C7        -20.7930  -16.6230  147.2350 C.3       1 SPD        -0.0288
      8 C8        -21.3260  -17.7430  146.3330 C.3       1 SPD         0.0275
      9 C9        -22.4390  -17.1940  145.4430 C.3       1 SPD        -0.0305
     10 N10       -23.0970  -18.2580  144.7350 N.4       1 SPD         0.2187
     11 H1        -14.2403  -18.6670  148.3546 H         1 SPD         0.1994
     12 H2        -14.6983  -17.8177  147.0210 H         1 SPD         0.1994
     13 H3        -15.8305  -18.5843  147.9376 H         1 SPD         0.1994
     14 H4        -14.1556  -16.3495  148.7845 H         1 SPD         0.0813
     15 H5        -15.3911  -17.1860  149.7847 H         1 SPD         0.0813
     16 H6        -16.3581  -16.3083  147.1099 H         1 SPD         0.0319
     17 H7        -15.8730  -14.9665  148.2012 H         1 SPD         0.0319
     18 H8        -17.5027  -15.4901  149.7953 H         1 SPD         0.0319
     19 H9        -17.5772  -17.2172  149.3072 H         1 SPD         0.0319
     20 H10       -18.3164  -15.5902  147.0283 H         1 SPD         0.0814
     21 H11       -19.2645  -15.0351  148.4494 H         1 SPD         0.0814
     22 H12       -19.7766  -17.3936  148.8050 H         1 SPD         0.2013
     23 H13       -19.1058  -17.7339  147.3408 H         1 SPD         0.2013
     24 H14       -20.5983  -15.7301  146.6228 H         1 SPD         0.0816
     25 H15       -21.5482  -16.3863  147.9990 H         1 SPD         0.0816
     26 H16       -21.7232  -18.5578  146.9561 H         1 SPD         0.0369
     27 H17       -20.5094  -18.1270  145.7039 H         1 SPD         0.0369
     28 H18       -22.0061  -16.4908  144.7163 H         1 SPD         0.0815
     29 H19       -23.1750  -16.6679  146.0688 H         1 SPD         0.0815
     30 H20       -23.8266  -17.8746  144.1547 H         1 SPD         0.1994
     31 H21       -23.4985  -18.9039  145.3966 H         1 SPD         0.1994
     32 H22       -22.4274  -18.7416  144.1572 H         1 SPD         0.1994
@<TRIPOS>BOND
     1    1    2 1  
     2    2    3 1  
     3    3    4 1  
     4    4    5 1  
     5    5    6 1  
     6    6    7 1  
     7    7    8 1  
     8    8    9 1  
     9    9   10 1  
    10    1   11 1  
    11    1   12 1  
    12    1   13 1  
    13    2   14 1  
    14    2   15 1  
    15    3   16 1  
    16    3   17 1  
    17    4   18 1  
    18    4   19 1  
    19    5   20 1  
    20    5   21 1  
    21    6   22 1  
    22    6   23 1  
    23    7   24 1  
    24    7   25 1  
    25    8   26 1  
    26    8   27 1  
    27    9   28 1  
    28    9   29 1  
    29   10   30 1  
    30   10   31 1  
    31   10   32 1  
@<TRIPOS>SUBSTRUCTURE
     1 SPD         1

