### 
### Created by X-TOOL on Mon Aug  2 16:14:14 2021
### 

@<TRIPOS>MOLECULE
6ilq_ligand
   78    81     1     0     0
SMALL
GAST_HUCK


@<TRIPOS>ATOM
      1 C10       -24.8880  -19.5090    5.4930 C.2       1 AE0         0.2349
      2 C13       -24.9950  -21.3140    3.9930 C.3       1 AE0         0.0740
      3 C15       -24.0020  -17.7190    7.9170 C.2       1 AE0         0.1642
      4 C20       -23.3150  -14.6150    8.8880 C.ar      1 AE0        -0.0582
      5 C21       -23.2410  -13.2330    8.8120 C.ar      1 AE0        -0.0617
      6 C22       -22.0620  -12.5870    9.1390 C.ar      1 AE0        -0.0274
      7 C24       -21.0410  -14.6840    9.6520 C.ar      1 AE0        -0.0582
      8 C26       -21.2300  -10.4910   10.1280 C.ar      1 AE0        -0.0614
      9 C28       -21.4980   -8.3410    9.1300 C.ar      1 AE0        -0.0689
     10 C01       -22.4530  -20.5280   13.8930 C.3       1 AE0        -0.0653
     11 C02       -22.7980  -19.0540   13.6720 C.3       1 AE0        -0.0558
     12 C03       -23.9710  -18.8640   12.7130 C.3       1 AE0        -0.0492
     13 C04       -23.8170  -17.6180   11.8490 C.3       1 AE0        -0.0079
     14 C05       -24.3310  -17.8790   10.4420 C.3       1 AE0         0.1271
     15 C07       -26.1280  -18.7920    8.9030 C.2       1 AE0         0.0402
     16 C08       -25.3110  -18.3870    7.7310 C.2       1 AE0         0.0316
     17 C09       -25.8210  -18.6480    6.3250 C.3       1 AE0         0.0632
     18 C14       -26.1320  -22.2850    3.6720 C.3       1 AE0        -0.0371
     19 C18       -22.2310  -16.8430    9.4290 C.3       1 AE0         0.0675
     20 C19       -22.2120  -15.3280    9.3150 C.ar      1 AE0        -0.0210
     21 C23       -20.9710  -13.3130    9.5700 C.ar      1 AE0        -0.0617
     22 C25       -21.9070  -11.0750    9.0720 C.ar      1 AE0        -0.0118
     23 C27       -21.0200   -9.1280   10.1660 C.ar      1 AE0        -0.0689
     24 C29       -22.1740   -8.9210    8.0670 C.ar      1 AE0        -0.0525
     25 C30       -22.3940  -10.2900    8.0190 C.ar      1 AE0         0.0378
     26 C31       -23.1080  -10.8550    6.7670 C.3       1 AE0         0.1376
     27 C34       -23.5710  -12.2250    4.9140 C.2       1 AE0         0.3715
     28 C37       -27.4610  -19.4780    8.6400 C.3       1 AE0         0.0112
     29 C38       -28.4390  -19.2000    9.7750 C.3       1 AE0        -0.0482
     30 C39       -27.2350  -20.9790    8.4900 C.3       1 AE0        -0.0482
     31 N06       -25.6430  -18.5470   10.2570 N.pl3     1 AE0        -0.2923
     32 N17       -23.5280  -17.4620    9.2570 N.am      1 AE0        -0.2478
     33 N32       -24.2290  -10.3020    6.0450 N.4       1 AE0         0.4389
     34 N36       -22.7030  -12.0250    6.0520 N.am      1 AE0        -0.2043
     35 O11       -23.9330  -19.0080    5.0010 O.2       1 AE0        -0.3699
     36 O12       -25.1640  -20.8680    5.3070 O.3       1 AE0        -0.2768
     37 O16       -23.3680  -17.3980    6.9720 O.2       1 AE0        -0.4187
     38 O33       -24.5100  -11.1550    4.9160 O.3       1 AE0        -0.1929
     39 O35       -23.5110  -13.1220    4.1370 O.2       1 AE0        -0.3737
     40 H1        -25.0283  -20.4590    3.3017 H         1 AE0         0.0610
     41 H2        -24.0271  -21.8274    3.8950 H         1 AE0         0.0610
     42 H3        -24.2287  -15.1306    8.6152 H         1 AE0         0.0558
     43 H4        -24.1052  -12.6594    8.4970 H         1 AE0         0.0599
     44 H5        -20.1799  -15.2550    9.9799 H         1 AE0         0.0558
     45 H6        -20.8600  -11.1122   10.9356 H         1 AE0         0.0596
     46 H7        -21.3429   -7.2683    9.1507 H         1 AE0         0.0594
     47 H8        -21.6048  -20.6056   14.5890 H         1 AE0         0.0230
     48 H9        -22.1820  -20.9893   12.9319 H         1 AE0         0.0230
     49 H10       -23.3241  -21.0489   14.3170 H         1 AE0         0.0230
     50 H11       -21.9165  -18.5442   13.2560 H         1 AE0         0.0263
     51 H12       -23.0586  -18.6038   14.6412 H         1 AE0         0.0263
     52 H13       -24.8969  -18.7748   13.3002 H         1 AE0         0.0267
     53 H14       -24.0367  -19.7438   12.0561 H         1 AE0         0.0267
     54 H15       -22.7537  -17.3404   11.8003 H         1 AE0         0.0309
     55 H16       -24.3911  -16.7936   12.2970 H         1 AE0         0.0309
     56 H17       -23.8286  -18.8576   10.4373 H         1 AE0         0.0832
     57 H18       -26.7936  -19.1568    6.3963 H         1 AE0         0.0553
     58 H19       -25.9493  -17.6813    5.8161 H         1 AE0         0.0553
     59 H20       -26.0213  -22.6511    2.6406 H         1 AE0         0.0255
     60 H21       -27.0968  -21.7670    3.7756 H         1 AE0         0.0255
     61 H22       -26.0957  -23.1354    4.3688 H         1 AE0         0.0255
     62 H23       -21.8558  -17.1130   10.4271 H         1 AE0         0.0684
     63 H24       -21.5564  -17.2497    8.6612 H         1 AE0         0.0684
     64 H25       -20.0558  -12.8013    9.8449 H         1 AE0         0.0599
     65 H26       -20.4876   -8.6780   10.9961 H         1 AE0         0.0559
     66 H27       -22.5365   -8.2943    7.2602 H         1 AE0         0.0557
     67 H28       -23.7688  -11.4256    7.4361 H         1 AE0         0.1326
     68 H29       -27.8856  -19.0854    7.7043 H         1 AE0         0.0519
     69 H30       -29.3947  -19.7033    9.5670 H         1 AE0         0.0260
     70 H31       -28.6060  -18.1159    9.8579 H         1 AE0         0.0260
     71 H32       -28.0224  -19.5802   10.7194 H         1 AE0         0.0260
     72 H33       -26.5277  -21.1629    7.6678 H         1 AE0         0.0260
     73 H34       -28.1921  -21.4735    8.2678 H         1 AE0         0.0260
     74 H35       -26.8221  -21.3830    9.4261 H         1 AE0         0.0260
     75 H36       -26.2031  -18.8335   11.0725 H         1 AE0         0.1862
     76 H37       -24.0019   -9.3744    5.7224 H         1 AE0         0.2452
     77 H38       -25.0352  -10.2599    6.6486 H         1 AE0         0.2452
     78 H39       -21.9355  -12.6154    6.3015 H         1 AE0         0.1952
@<TRIPOS>BOND
     1   17    1 1  
     2    1   35 2  
     3    1   36 1  
     4    2   18 1  
     5   36    2 1  
     6    3   16 1  
     7   32    3 am 
     8    3   37 2  
     9    4    5 ar 
    10   20    4 ar 
    11    5    6 ar 
    12   21    6 ar 
    13    6   22 1  
    14   20    7 ar 
    15    7   21 ar 
    16   22    8 ar 
    17    8   23 ar 
    18   23    9 ar 
    19    9   24 ar 
    20   11   10 1  
    21   12   11 1  
    22   13   12 1  
    23   14   13 1  
    24   14   31 1  
    25   32   14 1  
    26   16   15 2  
    27   15   28 1  
    28   31   15 1  
    29   16   17 1  
    30   19   20 1  
    31   19   32 1  
    32   22   25 ar 
    33   24   25 ar 
    34   25   26 1  
    35   26   33 1  
    36   26   34 1  
    37   34   27 am 
    38   27   38 1  
    39   27   39 2  
    40   28   29 1  
    41   28   30 1  
    42   33   38 1  
    43    2   40 1  
    44    2   41 1  
    45    4   42 1  
    46    5   43 1  
    47    7   44 1  
    48    8   45 1  
    49    9   46 1  
    50   10   47 1  
    51   10   48 1  
    52   10   49 1  
    53   11   50 1  
    54   11   51 1  
    55   12   52 1  
    56   12   53 1  
    57   13   54 1  
    58   13   55 1  
    59   14   56 1  
    60   17   57 1  
    61   17   58 1  
    62   18   59 1  
    63   18   60 1  
    64   18   61 1  
    65   19   62 1  
    66   19   63 1  
    67   21   64 1  
    68   23   65 1  
    69   24   66 1  
    70   26   67 1  
    71   28   68 1  
    72   29   69 1  
    73   29   70 1  
    74   29   71 1  
    75   30   72 1  
    76   30   73 1  
    77   30   74 1  
    78   31   75 1  
    79   33   76 1  
    80   33   77 1  
    81   34   78 1  
@<TRIPOS>SUBSTRUCTURE
     1 AE0         1

