### 
### Created by X-TOOL on Mon Aug  2 16:14:14 2021
### 

@<TRIPOS>MOLECULE
6ilz_ligand
   51    54     1     0     0
SMALL
GAST_HUCK


@<TRIPOS>ATOM
      1 CAA        65.2450   -0.1570   59.9860 C.ar      1 AFU        -0.0065
      2 CAC        67.1960    0.9480   60.9000 C.ar      1 AFU        -0.0065
      3 CAD        66.3780    1.5970   61.8190 C.ar      1 AFU        -0.0140
      4 CAE        64.9890    1.4250   61.7960 C.ar      1 AFU         0.0862
      5 CAF        64.4450    0.4910   60.9230 C.ar      1 AFU        -0.0140
      6 CAH        64.5590    2.8690   63.6070 C.2       1 AFU         0.2364
      7 CAI        63.5360    3.2570   64.4380 C.ar      1 AFU         0.1029
      8 CAK        63.8020    4.1700   65.4460 C.ar      1 AFU         0.1319
      9 CAM        61.5880    3.9830   66.2290 C.ar      1 AFU         0.0090
     10 CAN        61.2940    3.1150   65.1830 C.ar      1 AFU        -0.0012
     11 CAO        62.2830    2.6810   64.3120 C.ar      1 AFU        -0.0255
     12 CAQ        60.0690    2.4970   65.1140 C.ar      1 AFU        -0.0300
     13 CAR        59.2790    2.4310   66.2540 C.ar      1 AFU        -0.0686
     14 CAS        58.0770    1.7290   66.2150 C.ar      1 AFU        -0.0738
     15 CAT        57.7020    1.0450   65.0620 C.ar      1 AFU        -0.0451
     16 CAU        58.5260    1.1130   63.9460 C.ar      1 AFU         0.0397
     17 CAV        59.7440    1.7710   63.9880 C.ar      1 AFU        -0.0386
     18 CAX        59.0960    0.5200   61.6580 C.3       1 AFU         0.0668
     19 CAY        58.2420    0.3880   60.4090 C.3       1 AFU        -0.0135
     20 CBA        56.6260   -0.8690   61.5760 C.3       1 AFU        -0.0135
     21 CBB        57.4220   -0.7740   62.8580 C.3       1 AFU         0.0668
     22 NAB        66.6320    0.0600   59.9690 N.ar      1 AFU        -0.3198
     23 NAG        64.1660    1.9470   62.7050 N.am      1 AFU        -0.2252
     24 NAL        62.8610    4.5550   66.3150 N.ar      1 AFU        -0.2768
     25 NAP        65.0410    4.6530   65.4840 N.pl3     1 AFU        -0.3172
     26 NAW        58.2300    0.4490   62.8400 N.pl3     1 AFU        -0.2990
     27 NAZ        57.4900   -0.8910   60.3690 N.4       1 AFU         0.2298
     28 OAJ        65.6570    3.4210   63.7140 O.2       1 AFU        -0.3751
     29 H1         64.7953   -0.8318   59.2666 H         1 AFU         0.0771
     30 H2         68.2651    1.1269   60.9022 H         1 AFU         0.0771
     31 H3         66.8231    2.2460   62.5645 H         1 AFU         0.0596
     32 H4         63.3861    0.2644   60.9721 H         1 AFU         0.0596
     33 H5         60.8347    4.2148   66.9733 H         1 AFU         0.0828
     34 H6         62.0831    1.9225   63.5639 H         1 AFU         0.0760
     35 H7         59.5955    2.9221   67.1671 H         1 AFU         0.0504
     36 H8         57.4311    1.7151   67.0855 H         1 AFU         0.0582
     37 H9         56.7836    0.4698   65.0357 H         1 AFU         0.0510
     38 H10        60.4297    1.7161   63.1502 H         1 AFU         0.0506
     39 H11        59.6223    1.4858   61.6443 H         1 AFU         0.0566
     40 H12        59.8310   -0.2977   61.6900 H         1 AFU         0.0566
     41 H13        58.8966    0.4404   59.5265 H         1 AFU         0.0833
     42 H14        57.5238    1.2207   60.3827 H         1 AFU         0.0833
     43 H15        55.9544   -0.0001   61.5129 H         1 AFU         0.0833
     44 H16        56.0293   -1.7928   61.5992 H         1 AFU         0.0833
     45 H17        58.0828   -1.6491   62.9454 H         1 AFU         0.0566
     46 H18        56.7341   -0.7467   63.7159 H         1 AFU         0.0566
     47 H19        63.2140    1.6411   62.7187 H         1 AFU         0.2300
     48 H20        65.3056    5.3358   66.2083 H         1 AFU         0.1798
     49 H21        65.7357    4.3441   64.7891 H         1 AFU         0.1798
     50 H22        58.1229   -1.6749   60.4010 H         1 AFU         0.2015
     51 H23        56.9291   -0.9459   59.5333 H         1 AFU         0.2015
@<TRIPOS>BOND
     1    5    1 ar 
     2    1   22 ar 
     3    3    2 ar 
     4    2   22 ar 
     5    4    3 ar 
     6    4    5 ar 
     7   23    4 1  
     8    7    6 1  
     9    6   23 am 
    10    6   28 2  
    11    7    8 ar 
    12   11    7 ar 
    13   24    8 ar 
    14    8   25 1  
    15   10    9 ar 
    16    9   24 ar 
    17   10   11 ar 
    18   12   10 1  
    19   12   13 ar 
    20   17   12 ar 
    21   14   13 ar 
    22   15   14 ar 
    23   16   15 ar 
    24   16   17 ar 
    25   26   16 1  
    26   19   18 1  
    27   18   26 1  
    28   27   19 1  
    29   20   21 1  
    30   20   27 1  
    31   21   26 1  
    32    1   29 1  
    33    2   30 1  
    34    3   31 1  
    35    5   32 1  
    36    9   33 1  
    37   11   34 1  
    38   13   35 1  
    39   14   36 1  
    40   15   37 1  
    41   17   38 1  
    42   18   39 1  
    43   18   40 1  
    44   19   41 1  
    45   19   42 1  
    46   20   43 1  
    47   20   44 1  
    48   21   45 1  
    49   21   46 1  
    50   23   47 1  
    51   25   48 1  
    52   25   49 1  
    53   27   50 1  
    54   27   51 1  
@<TRIPOS>SUBSTRUCTURE
     1 AFU         1

