### 
### Created by X-TOOL on Mon Aug  2 16:14:15 2021
### 

@<TRIPOS>MOLECULE
6im4_ligand
   82    82     1     0     0
SMALL
GAST_HUCK


@<TRIPOS>ATOM
      1 N         113.0470  231.7320   49.9850 N.4       1 GLY         0.2357
      2 CA        113.5820  232.3610   48.7930 C.3       1 GLY         0.0545
      3 C         114.5230  231.4550   48.0120 C.2       1 GLY         0.2236
      4 O         114.6380  230.2620   48.2740 O.2       1 GLY        -0.3910
      5 N         115.2300  232.0540   47.0670 N.am      1 GLY        -0.2612
      6 CA        116.2220  231.3660   46.2470 C.3       1 GLY         0.1320
      7 C         117.6040  231.5640   46.8380 C.2       1 GLY         0.2064
      8 O         118.0210  232.7110   47.0070 O.2       1 GLY        -0.3942
      9 CB        116.1940  231.9230   44.8170 C.3       1 GLY        -0.0034
     10 CG        117.1360  231.1680   43.8560 C.3       1 GLY        -0.0024
     11 SD        117.1920  231.9690   42.2500 S.3       1 GLY        -0.1639
     12 CE        118.2460  233.3820   42.5890 C.3       1 GLY        -0.0181
     13 N         118.3680  230.5140   47.1530 N.am      1 GLY        -0.2498
     14 CA        119.7320  230.7360   47.6410 C.3       1 GLY         0.1338
     15 C         120.6300  231.2570   46.5400 C.2       1 GLY         0.2041
     16 O         120.5080  230.8620   45.3790 O.2       1 GLY        -0.3944
     17 CB        120.1850  229.3360   48.1080 C.3       1 GLY        -0.0104
     18 CG        119.3040  228.3970   47.3640 C.3       1 GLY        -0.0281
     19 CD        117.9850  229.0750   47.1970 C.3       1 GLY         0.0369
     20 N         121.5500  232.1400   46.9230 N.am      1 GLY        -0.2637
     21 CA        122.5170  232.7410   46.0160 C.3       1 GLY         0.1311
     22 C         123.8650  232.7520   46.6970 C.2       1 GLY         0.2037
     23 O         123.9610  232.9840   47.9060 O.2       1 GLY        -0.3944
     24 CB        122.2060  234.2130   45.6550 C.3       1 GLY        -0.0092
     25 CG        121.1540  234.4180   44.6030 C.3       1 GLY        -0.0156
     26 CD        120.9140  235.9520   44.4760 C.3       1 GLY         0.0627
     27 NE        120.0810  236.3220   43.3420 N.pl3     1 GLY        -0.2723
     28 CZ        118.8040  236.6800   43.4420 C.cat     1 GLY         0.2882
     29 NH1       118.2070  236.6900   44.6190 N.pl3     1 GLY        -0.2849
     30 NH2       118.1180  237.0160   42.3560 N.pl3     1 GLY        -0.2849
     31 N         124.9110  232.5560   45.9110 N.am      1 GLY        -0.2664
     32 CA        126.2260  232.5960   46.5090 C.3       1 GLY         0.1201
     33 C         127.3390  232.7030   45.4920 C.2       1 GLY         0.2002
     34 O         127.1660  232.3650   44.3200 O.2       1 GLY        -0.3947
     35 N         128.4920  233.1710   45.9440 N.am      1 GLY        -0.2700
     36 CA        129.6980  233.1540   45.1390 C.3       1 GLY         0.0916
     37 C         130.9080  232.9450   46.0520 C.2       1 GLY         0.0598
     38 O         131.9360  232.4130   45.6110 O.co2     1 GLY        -0.5666
     39 CB        129.8350  234.4480   44.3350 C.3       1 GLY        -0.0300
     40 OXT       130.8640  233.3070   47.2360 O.co2     1 GLY        -0.5666
     41 H1        112.4337  232.3767   50.4586 H         1 GLY         0.2012
     42 H2        113.8045  231.4764   50.5989 H         1 GLY         0.2012
     43 H3        112.5308  230.9058   49.7261 H         1 GLY         0.2012
     44 H4        114.1334  233.2648   49.0913 H         1 GLY         0.1061
     45 H5        112.7435  232.6422   48.1389 H         1 GLY         0.1061
     46 H6        115.0764  233.0290   46.9065 H         1 GLY         0.1884
     47 H7        115.9882  230.2914   46.2224 H         1 GLY         0.0800
     48 H8        116.4976  232.9798   44.8467 H         1 GLY         0.0320
     49 H9        115.1665  231.8473   44.4316 H         1 GLY         0.0320
     50 H10       116.7725  230.1373   43.7315 H         1 GLY         0.0378
     51 H11       118.1488  231.1504   44.2848 H         1 GLY         0.0378
     52 H12       118.3696  233.9757   41.6713 H         1 GLY         0.0340
     53 H13       119.2298  233.0312   42.9340 H         1 GLY         0.0340
     54 H14       117.7844  234.0050   43.3693 H         1 GLY         0.0340
     55 H15       119.7348  231.4475   48.4799 H         1 GLY         0.0802
     56 H16       120.0459  229.2234   49.1933 H         1 GLY         0.0313
     57 H17       121.2412  229.1633   47.8538 H         1 GLY         0.0313
     58 H18       119.1797  227.4642   47.9336 H         1 GLY         0.0287
     59 H19       119.7394  228.1703   46.3796 H         1 GLY         0.0287
     60 H20       117.4939  228.7652   46.2628 H         1 GLY         0.0524
     61 H21       117.3198  228.8661   48.0478 H         1 GLY         0.0524
     62 H22       121.5782  232.4049   47.8869 H         1 GLY         0.1883
     63 H23       122.5584  232.1425   45.0940 H         1 GLY         0.0800
     64 H24       123.1368  234.6769   45.2968 H         1 GLY         0.0313
     65 H25       121.8715  234.7220   46.5709 H         1 GLY         0.0313
     66 H26       120.2220  233.9151   44.9004 H         1 GLY         0.0301
     67 H27       121.4996  234.0108   43.6414 H         1 GLY         0.0301
     68 H28       121.8896  236.4482   44.3667 H         1 GLY         0.0689
     69 H29       120.4245  236.3042   45.3959 H         1 GLY         0.0689
     70 H30       120.5064  236.3057   42.4041 H         1 GLY         0.2642
     71 H31       117.2179  236.9678   44.6924 H         1 GLY         0.2615
     72 H32       118.7302  236.4200   45.4641 H         1 GLY         0.2615
     73 H33       118.5777  237.0104   41.4343 H         1 GLY         0.2615
     74 H34       117.1262  237.2823   42.4353 H         1 GLY         0.2615
     75 H35       124.7952  232.3853   44.9325 H         1 GLY         0.1881
     76 H36       126.3730  231.6752   47.0926 H         1 GLY         0.0763
     77 H37       126.2793  233.4670   47.1786 H         1 GLY         0.0763
     78 H38       128.5325  233.5480   46.8694 H         1 GLY         0.1875
     79 H39       129.6394  232.3124   44.4332 H         1 GLY         0.0723
     80 H40       130.7555  234.4105   43.7340 H         1 GLY         0.0270
     81 H41       129.8814  235.3045   45.0237 H         1 GLY         0.0270
     82 H42       128.9667  234.5596   43.6690 H         1 GLY         0.0270
@<TRIPOS>BOND
     1    1    2 1  
     2    2    3 1  
     3    3    4 2  
     4    3    5 am 
     5    5    6 1  
     6    6    7 1  
     7    6    9 1  
     8    7    8 2  
     9    7   13 am 
    10    9   10 1  
    11   10   11 1  
    12   11   12 1  
    13   13   14 1  
    14   13   19 1  
    15   14   15 1  
    16   14   17 1  
    17   15   16 2  
    18   15   20 am 
    19   17   18 1  
    20   18   19 1  
    21   20   21 1  
    22   21   22 1  
    23   21   24 1  
    24   22   23 2  
    25   22   31 am 
    26   24   25 1  
    27   25   26 1  
    28   26   27 1  
    29   27   28 ar 
    30   28   29 ar 
    31   28   30 ar 
    32   31   32 1  
    33   32   33 1  
    34   33   34 2  
    35   33   35 am 
    36   35   36 1  
    37   36   37 1  
    38   36   39 1  
    39   37   38 ar 
    40   37   40 ar 
    41    1   41 1  
    42    1   42 1  
    43    1   43 1  
    44    2   44 1  
    45    2   45 1  
    46    5   46 1  
    47    6   47 1  
    48    9   48 1  
    49    9   49 1  
    50   10   50 1  
    51   10   51 1  
    52   12   52 1  
    53   12   53 1  
    54   12   54 1  
    55   14   55 1  
    56   17   56 1  
    57   17   57 1  
    58   18   58 1  
    59   18   59 1  
    60   19   60 1  
    61   19   61 1  
    62   20   62 1  
    63   21   63 1  
    64   24   64 1  
    65   24   65 1  
    66   25   66 1  
    67   25   67 1  
    68   26   68 1  
    69   26   69 1  
    70   27   70 1  
    71   29   71 1  
    72   29   72 1  
    73   30   73 1  
    74   30   74 1  
    75   31   75 1  
    76   32   76 1  
    77   32   77 1  
    78   35   78 1  
    79   36   79 1  
    80   39   80 1  
    81   39   81 1  
    82   39   82 1  
@<TRIPOS>SUBSTRUCTURE
     1 GLY         1

