### 
### Created by X-TOOL on Mon Aug  2 16:14:15 2021
### 

@<TRIPOS>MOLECULE
6im6_ligand
   34    35     1     0     0
SMALL
GAST_HUCK


@<TRIPOS>ATOM
      1 C4         81.6740  158.4160   24.2360 C.ar      1 AH3        -0.0440
      2 C5         81.9660  158.2570   25.5950 C.ar      1 AH3        -0.0378
      3 C6         82.7820  157.2110   26.0160 C.ar      1 AH3        -0.0564
      4 C11        80.9540  158.5010   21.4690 C.3       1 AH3         0.0635
      5 C7         81.3630  159.2370   26.5700 C.3       1 AH3         0.0583
      6 C8         82.0960  157.6820   28.3740 C.3       1 AH3         0.0429
      7 C9         83.1100  157.0050   27.4750 C.3       1 AH3        -0.0082
      8 C10        84.6910  154.9660   23.0010 C.3       1 AH3         0.0553
      9 C12        80.8930  158.3400   19.9810 C.3       1 AH3        -0.0378
     10 C13        82.2210  160.1310   28.6810 C.2       1 AH3         0.1734
     11 N1         81.9060  159.0630   27.9250 N.am      1 AH3        -0.2648
     12 C3         82.1900  157.5470   23.2980 C.ar      1 AH3         0.1064
     13 C1         83.3050  156.3410   25.0580 C.ar      1 AH3        -0.0459
     14 C2         83.0180  156.4900   23.7190 C.ar      1 AH3         0.1060
     15 O1         83.4900  155.6780   22.7210 O.3       1 AH3        -0.3310
     16 O2         81.9820  157.6240   21.9470 O.3       1 AH3        -0.3281
     17 O3         82.0360  161.2930   28.3630 O.2       1 AH3        -0.3828
     18 H1         81.0350  159.2314   23.9169 H         1 AH3         0.0435
     19 H2         79.9873  158.2288   21.9178 H         1 AH3         0.0604
     20 H3         81.1973  159.5425   21.7260 H         1 AH3         0.0604
     21 H4         80.2740  159.0846   26.6005 H         1 AH3         0.0651
     22 H5         81.5807  160.2595   26.2278 H         1 AH3         0.0651
     23 H6         82.4626  157.6788   29.4111 H         1 AH3         0.0545
     24 H7         81.1388  157.1425   28.3218 H         1 AH3         0.0545
     25 H8         84.1058  157.4249   27.6801 H         1 AH3         0.0409
     26 H9         83.1152  155.9265   27.6912 H         1 AH3         0.0409
     27 H10        84.9659  154.3537   22.1295 H         1 AH3         0.0570
     28 H11        84.5358  154.3138   23.8731 H         1 AH3         0.0570
     29 H12        85.4991  155.6805   23.2166 H         1 AH3         0.0570
     30 H13        80.1127  158.9990   19.5726 H         1 AH3         0.0255
     31 H14        80.6557  157.2945   19.7347 H         1 AH3         0.0255
     32 H15        81.8657  158.6083   19.5430 H         1 AH3         0.0255
     33 H16        82.6764  159.9423   29.6520 H         1 AH3         0.1547
     34 H17        83.9512  155.5303   25.3746 H         1 AH3         0.0434
@<TRIPOS>BOND
     1    1    2 ar 
     2   12    1 ar 
     3    3    2 ar 
     4    2    5 1  
     5    3    7 1  
     6   13    3 ar 
     7    4    9 1  
     8   16    4 1  
     9    5   11 1  
    10    7    6 1  
    11    6   11 1  
    12   15    8 1  
    13   11   10 am 
    14   10   17 2  
    15   14   12 ar 
    16   12   16 1  
    17   14   13 ar 
    18   14   15 1  
    19    1   18 1  
    20    4   19 1  
    21    4   20 1  
    22    5   21 1  
    23    5   22 1  
    24    6   23 1  
    25    6   24 1  
    26    7   25 1  
    27    7   26 1  
    28    8   27 1  
    29    8   28 1  
    30    8   29 1  
    31    9   30 1  
    32    9   31 1  
    33    9   32 1  
    34   10   33 1  
    35   13   34 1  
@<TRIPOS>SUBSTRUCTURE
     1 AH3         1

