### 
### Created by X-TOOL on Mon Aug  2 16:14:16 2021
### 

@<TRIPOS>MOLECULE
6imb_ligand
   31    32     1     0     0
SMALL
GAST_HUCK


@<TRIPOS>ATOM
      1 C4         25.0390   -3.7770   24.7450 C.ar      1 AH9        -0.0441
      2 C5         24.3260   -2.8320   25.4910 C.ar      1 AH9        -0.0378
      3 C6         23.4510   -1.9600   24.8530 C.ar      1 AH9        -0.0564
      4 C11        26.4300   -5.6490   23.1650 C.3       1 AH9         0.0553
      5 C7         24.5330   -2.7830   26.9820 C.3       1 AH9         0.0583
      6 C8         22.6650   -1.1960   27.1070 C.3       1 AH9         0.0429
      7 C9         22.6520   -0.9330   25.6160 C.3       1 AH9        -0.0082
      8 C10        23.0150   -2.2350   20.6840 C.3       1 AH9         0.0553
      9 C12        24.7810   -0.6690   28.2490 C.2       1 AH9         0.1734
     10 N1         24.0330   -1.5100   27.5080 N.am      1 AH9        -0.2648
     11 C3         24.8830   -3.8540   23.3760 C.ar      1 AH9         0.1061
     12 C1         23.3020   -2.0470   23.4670 C.ar      1 AH9        -0.0459
     13 C2         23.9990   -2.9730   22.7270 C.ar      1 AH9         0.1060
     14 O1         23.9020   -3.1200   21.3690 O.3       1 AH9        -0.3310
     15 O2         25.5310   -4.7310   22.5510 O.3       1 AH9        -0.3310
     16 O3         24.4520    0.4660   28.5440 O.2       1 AH9        -0.3828
     17 H1         25.7200   -4.4547   25.2470 H         1 AH9         0.0435
     18 H2         26.8804   -6.2920   22.3945 H         1 AH9         0.0570
     19 H3         25.8818   -6.2715   23.8875 H         1 AH9         0.0570
     20 H4         27.2223   -5.0927   23.6872 H         1 AH9         0.0570
     21 H5         25.6061   -2.8748   27.2055 H         1 AH9         0.0651
     22 H6         23.9877   -3.6133   27.4544 H         1 AH9         0.0651
     23 H7         22.0055   -2.0449   27.3402 H         1 AH9         0.0545
     24 H8         22.3162   -0.3021   27.6449 H         1 AH9         0.0545
     25 H9         21.6113   -0.9571   25.2604 H         1 AH9         0.0409
     26 H10        23.0810    0.0622   25.4274 H         1 AH9         0.0409
     27 H11        23.0323   -2.4594   19.6073 H         1 AH9         0.0570
     28 H12        23.3358   -1.1955   20.8471 H         1 AH9         0.0570
     29 H13        21.9936   -2.3683   21.0699 H         1 AH9         0.0570
     30 H14        25.7443   -1.0283   28.6082 H         1 AH9         0.1547
     31 H15        22.6218   -1.3695   22.9635 H         1 AH9         0.0434
@<TRIPOS>BOND
     1    1    2 ar 
     2   11    1 ar 
     3    3    2 ar 
     4    2    5 1  
     5    3    7 1  
     6   12    3 ar 
     7   15    4 1  
     8    5   10 1  
     9    7    6 1  
    10    6   10 1  
    11   14    8 1  
    12   10    9 am 
    13    9   16 2  
    14   13   11 ar 
    15   11   15 1  
    16   13   12 ar 
    17   13   14 1  
    18    1   17 1  
    19    4   18 1  
    20    4   19 1  
    21    4   20 1  
    22    5   21 1  
    23    5   22 1  
    24    6   23 1  
    25    6   24 1  
    26    7   25 1  
    27    7   26 1  
    28    8   27 1  
    29    8   28 1  
    30    8   29 1  
    31    9   30 1  
    32   12   31 1  
@<TRIPOS>SUBSTRUCTURE
     1 AH9         1

