### 
### Created by X-TOOL on Mon Aug  2 16:14:16 2021
### 

@<TRIPOS>MOLECULE
6imd_ligand
   31    32     1     0     0
SMALL
GAST_HUCK


@<TRIPOS>ATOM
      1 C4         23.3090   -2.0840   23.6300 C.ar      1 AH9        -0.0441
      2 C5         23.5100   -2.1050   25.0150 C.ar      1 AH9        -0.0378
      3 C6         24.3910   -3.0240   25.5780 C.ar      1 AH9        -0.0564
      4 C11        22.8910   -2.1540   20.8240 C.3       1 AH9         0.0553
      5 C7         22.7510   -1.1160   25.8620 C.3       1 AH9         0.0583
      6 C8         23.5920   -2.2940   27.8440 C.3       1 AH9         0.0429
      7 C9         24.6320   -3.0760   27.0670 C.3       1 AH9        -0.0082
      8 C10        26.3340   -5.7260   23.0520 C.3       1 AH9         0.0553
      9 C12        23.7750    0.1620   27.7160 C.2       1 AH9         0.1734
     10 N1         23.3770   -1.0110   27.1800 N.am      1 AH9        -0.2648
     11 C3         23.9750   -2.9670   22.8030 C.ar      1 AH9         0.1061
     12 C1         25.0600   -3.9190   24.7340 C.ar      1 AH9        -0.0459
     13 C2         24.8640   -3.9000   23.3720 C.ar      1 AH9         0.1060
     14 O1         25.4780   -4.7390   22.4890 O.3       1 AH9        -0.3310
     15 O2         23.8360   -3.0350   21.4390 O.3       1 AH9        -0.3310
     16 O3         24.5450    0.2680   28.6520 O.2       1 AH9        -0.3828
     17 H1         22.6211   -1.3647   23.2006 H         1 AH9         0.0435
     18 H2         22.8886   -2.3202   19.7366 H         1 AH9         0.0570
     19 H3         23.1706   -1.1113   21.0349 H         1 AH9         0.0570
     20 H4         21.8873   -2.3533   21.2276 H         1 AH9         0.0570
     21 H5         21.7112   -1.4559   25.9774 H         1 AH9         0.0651
     22 H6         22.7626   -0.1310   25.3725 H         1 AH9         0.0651
     23 H7         23.9478   -2.1241   28.8709 H         1 AH9         0.0545
     24 H8         22.6486   -2.8590   27.8716 H         1 AH9         0.0545
     25 H9         25.6249   -2.6532   27.2799 H         1 AH9         0.0409
     26 H10        24.6027   -4.1259   27.3940 H         1 AH9         0.0409
     27 H11        26.7679   -6.3373   22.2470 H         1 AH9         0.0570
     28 H12        25.7548   -6.3701   23.7300 H         1 AH9         0.0570
     29 H13        27.1412   -5.2338   23.6143 H         1 AH9         0.0570
     30 H14        23.3791    1.0780   27.2800 H         1 AH9         0.1547
     31 H15        25.7459   -4.6411   25.1620 H         1 AH9         0.0434
@<TRIPOS>BOND
     1    1    2 ar 
     2   11    1 ar 
     3    3    2 ar 
     4    2    5 1  
     5    3    7 1  
     6   12    3 ar 
     7   15    4 1  
     8    5   10 1  
     9    7    6 1  
    10    6   10 1  
    11   14    8 1  
    12   10    9 am 
    13    9   16 2  
    14   13   11 ar 
    15   11   15 1  
    16   13   12 ar 
    17   13   14 1  
    18    1   17 1  
    19    4   18 1  
    20    4   19 1  
    21    4   20 1  
    22    5   21 1  
    23    5   22 1  
    24    6   23 1  
    25    6   24 1  
    26    7   25 1  
    27    7   26 1  
    28    8   27 1  
    29    8   28 1  
    30    8   29 1  
    31    9   30 1  
    32   12   31 1  
@<TRIPOS>SUBSTRUCTURE
     1 AH9         1

