### 
### Created by X-TOOL on Mon Aug  2 16:14:16 2021
### 

@<TRIPOS>MOLECULE
6imi_ligand
   34    35     1     0     0
SMALL
GAST_HUCK


@<TRIPOS>ATOM
      1 C4         25.0130   -3.9910   25.1930 C.ar      1 AH6        -0.0441
      2 C5         24.4910   -2.9780   26.0040 C.ar      1 AH6        -0.0378
      3 C6         23.7350   -1.9570   25.4420 C.ar      1 AH6        -0.0564
      4 C11        22.7090   -2.3350   19.9320 C.3       1 AH6        -0.0378
      5 C7         24.7740   -3.0340   27.4840 C.3       1 AH6         0.0583
      6 C8         23.0970   -1.2440   27.7520 C.3       1 AH6         0.0429
      7 C9         23.1560   -0.8530   26.2900 C.3       1 AH6        -0.0082
      8 C10        23.0060   -1.9770   21.3580 C.3       1 AH6         0.0635
      9 C12        26.1770   -5.8880   23.4530 C.3       1 AH6         0.0553
     10 C13        25.1850   -1.1720   29.0570 C.2       1 AH6         0.1734
     11 N1         24.3910   -1.7850   28.1570 N.am      1 AH6        -0.2648
     12 C3         24.7910   -3.9910   23.8310 C.ar      1 AH6         0.1061
     13 C1         23.5130   -1.9640   24.0620 C.ar      1 AH6        -0.0458
     14 C2         24.0270   -2.9570   23.2610 C.ar      1 AH6         0.1064
     15 O1         23.8260   -3.0180   21.9160 O.3       1 AH6        -0.3281
     16 O2         25.2530   -4.9300   22.9500 O.3       1 AH6        -0.3310
     17 O3         26.2930   -1.5570   29.3850 O.2       1 AH6        -0.3828
     18 H1         25.5992   -4.7859   25.6399 H         1 AH6         0.0435
     19 H2         22.0812   -1.5526   19.4807 H         1 AH6         0.0255
     20 H3         22.1764   -3.2969   19.8987 H         1 AH6         0.0255
     21 H4         23.6514   -2.4180   19.3708 H         1 AH6         0.0255
     22 H5         25.8500   -3.2052   27.6352 H         1 AH6         0.0651
     23 H6         24.2049   -3.8657   27.9248 H         1 AH6         0.0651
     24 H7         22.3177   -2.0065   27.8977 H         1 AH6         0.0545
     25 H8         22.8619   -0.3583   28.3605 H         1 AH6         0.0545
     26 H9         22.1376   -0.6302   25.9390 H         1 AH6         0.0409
     27 H10        23.7843    0.0439   26.1857 H         1 AH6         0.0409
     28 H11        22.0674   -1.8964   21.9259 H         1 AH6         0.0604
     29 H12        23.5424   -1.0175   21.3981 H         1 AH6         0.0604
     30 H13        26.4652   -6.5781   22.6464 H         1 AH6         0.0570
     31 H14        25.7085   -6.4551   24.2708 H         1 AH6         0.0570
     32 H15        27.0717   -5.3714   23.8306 H         1 AH6         0.0570
     33 H16        24.8077   -0.2645   29.5261 H         1 AH6         0.1547
     34 H17        22.9243   -1.1715   23.6144 H         1 AH6         0.0434
@<TRIPOS>BOND
     1    1    2 ar 
     2   12    1 ar 
     3    3    2 ar 
     4    2    5 1  
     5    3    7 1  
     6   13    3 ar 
     7    8    4 1  
     8    5   11 1  
     9    7    6 1  
    10    6   11 1  
    11   15    8 1  
    12   16    9 1  
    13   11   10 am 
    14   10   17 2  
    15   14   12 ar 
    16   12   16 1  
    17   14   13 ar 
    18   14   15 1  
    19    1   18 1  
    20    4   19 1  
    21    4   20 1  
    22    4   21 1  
    23    5   22 1  
    24    5   23 1  
    25    6   24 1  
    26    6   25 1  
    27    7   26 1  
    28    7   27 1  
    29    8   28 1  
    30    8   29 1  
    31    9   30 1  
    32    9   31 1  
    33    9   32 1  
    34   10   33 1  
    35   13   34 1  
@<TRIPOS>SUBSTRUCTURE
     1 AH6         1

