### 
### Created by X-TOOL on Mon Aug  2 16:14:17 2021
### 

@<TRIPOS>MOLECULE
6imo_ligand
   48    51     1     0     0
SMALL
GAST_HUCK


@<TRIPOS>ATOM
      1 C4         25.0610  157.3150   24.8740 C.ar      1 AJL        -0.0437
      2 C14        24.8980  156.6890   28.8590 C.2       1 AJL        -0.0425
      3 C5         24.3720  158.3110   25.5850 C.ar      1 AJL        -0.0336
      4 C6         23.5050  159.1600   24.9060 C.ar      1 AJL        -0.0560
      5 C11        26.3470  155.2850   23.3740 C.3       1 AJL         0.0553
      6 C7         24.5890  158.4420   27.0850 C.3       1 AJL         0.0735
      7 C8         22.6890  159.9980   27.1110 C.3       1 AJL         0.0433
      8 C9         22.7370  160.2410   25.6210 C.3       1 AJL        -0.0081
      9 C10        23.0880  158.7280   20.7510 C.3       1 AJL         0.0553
     10 C12        24.7360  160.5530   28.3840 C.2       1 AJL         0.1738
     11 C13        23.9550  157.2480   27.8340 C.3       1 AJL        -0.0056
     12 N1         24.0420  159.7140   27.5820 N.am      1 AJL        -0.2606
     13 N2         26.0680  156.4590   30.7570 N.pl3     1 AJL        -0.2890
     14 C3         24.8930  157.1700   23.5150 C.ar      1 AJL         0.1061
     15 C1         23.3400  159.0030   23.5270 C.ar      1 AJL        -0.0458
     16 C15        25.1470  157.2240   30.0910 C.2       1 AJL         0.0167
     17 C16        26.4410  155.4030   29.9650 C.ar      1 AJL         0.0603
     18 C17        25.7260  155.5100   28.7530 C.ar      1 AJL        -0.0214
     19 C18        27.3410  154.3650   30.2060 C.ar      1 AJL        -0.0443
     20 C19        27.5130  153.4340   29.2070 C.ar      1 AJL        -0.0768
     21 C2         24.0240  158.0360   22.8290 C.ar      1 AJL         0.1060
     22 C20        26.8140  153.5170   28.0020 C.ar      1 AJL        -0.0792
     23 C21        25.9270  154.5430   27.7610 C.ar      1 AJL        -0.0747
     24 O1         23.9140  157.8180   21.4820 O.3       1 AJL        -0.3310
     25 O2         25.5120  156.2400   22.7260 O.3       1 AJL        -0.3310
     26 O3         25.8220  160.3010   28.8770 O.2       1 AJL        -0.3828
     27 H1         25.7349  156.6507   25.4027 H         1 AJL         0.0435
     28 H2         26.7763  154.6045   22.6239 H         1 AJL         0.0570
     29 H3         25.7512  154.7066   24.0954 H         1 AJL         0.0570
     30 H4         27.1583  155.8064   23.9030 H         1 AJL         0.0570
     31 H5         25.6719  158.4342   27.2780 H         1 AJL         0.0701
     32 H6         22.0346  159.1402   27.3255 H         1 AJL         0.0545
     33 H7         22.2999  160.8923   27.6197 H         1 AJL         0.0545
     34 H8         21.7090  160.2662   25.2304 H         1 AJL         0.0409
     35 H9         23.2246  161.2089   25.4330 H         1 AJL         0.0409
     36 H10        23.0833  158.4458   19.6878 H         1 AJL         0.0570
     37 H11        23.4835  159.7489   20.8576 H         1 AJL         0.0570
     38 H12        22.0618  158.6893   21.1452 H         1 AJL         0.0570
     39 H13        24.2931  161.5230   28.6052 H         1 AJL         0.1547
     40 H14        23.0373  157.5864   28.3372 H         1 AJL         0.0390
     41 H15        23.7059  156.4602   27.1079 H         1 AJL         0.0390
     42 H16        26.4247  156.6475   31.7047 H         1 AJL         0.2216
     43 H17        22.6581  159.6577   22.9965 H         1 AJL         0.0434
     44 H18        24.6818  158.1260   30.4858 H         1 AJL         0.0795
     45 H19        27.8830  154.2944   31.1421 H         1 AJL         0.0541
     46 H20        28.2083  152.6165   29.3599 H         1 AJL         0.0530
     47 H21        26.9719  152.7604   27.2419 H         1 AJL         0.0510
     48 H22        25.3936  154.6006   26.8191 H         1 AJL         0.0540
@<TRIPOS>BOND
     1    1    3 ar 
     2   14    1 ar 
     3   11    2 1  
     4    2   16 2  
     5    2   18 1  
     6    4    3 ar 
     7    3    6 1  
     8    4    8 1  
     9   15    4 ar 
    10   25    5 1  
    11    6   11 1  
    12    6   12 1  
    13    8    7 1  
    14    7   12 1  
    15   24    9 1  
    16   12   10 am 
    17   10   26 2  
    18   16   13 1  
    19   17   13 1  
    20   21   14 ar 
    21   14   25 1  
    22   21   15 ar 
    23   18   17 ar 
    24   17   19 ar 
    25   18   23 ar 
    26   19   20 ar 
    27   20   22 ar 
    28   21   24 1  
    29   22   23 ar 
    30    1   27 1  
    31    5   28 1  
    32    5   29 1  
    33    5   30 1  
    34    6   31 1  
    35    7   32 1  
    36    7   33 1  
    37    8   34 1  
    38    8   35 1  
    39    9   36 1  
    40    9   37 1  
    41    9   38 1  
    42   10   39 1  
    43   11   40 1  
    44   11   41 1  
    45   13   42 1  
    46   15   43 1  
    47   16   44 1  
    48   19   45 1  
    49   20   46 1  
    50   22   47 1  
    51   23   48 1  
@<TRIPOS>SUBSTRUCTURE
     1 AJL         1

