### 
### Created by X-TOOL on Mon Aug  2 16:14:17 2021
### 

@<TRIPOS>MOLECULE
6imr_ligand
   54    57     1     0     0
SMALL
GAST_HUCK


@<TRIPOS>ATOM
      1 C4         82.8840   77.1030   24.6480 C.ar      1 AJX        -0.0438
      2 C14        84.1700   76.6810   28.2010 C.3       1 AJX        -0.0451
      3 C5         82.2850   78.1390   25.3430 C.ar      1 AJX        -0.0348
      4 C6         81.4620   79.0390   24.6830 C.ar      1 AJX        -0.0561
      5 C11        84.0170   75.0220   23.3400 C.3       1 AJX         0.0553
      6 C7         82.6900   78.2660   26.7670 C.3       1 AJX         0.0695
      7 C8         80.6360   79.6550   26.9010 C.3       1 AJX         0.0432
      8 C9         80.8430   80.1470   25.4830 C.3       1 AJX        -0.0081
      9 C10        81.0860   78.4690   20.4190 C.3       1 AJX         0.0553
     10 C12        82.4100   79.8640   28.6120 C.2       1 AJX         0.1737
     11 C13        82.8790   76.8760   27.3990 C.3       1 AJX        -0.0211
     12 N1         81.9160   79.2740   27.5020 N.am      1 AJX        -0.2618
     13 N2         80.6930   77.1530   30.6340 N.pl3     1 AJX        -0.2891
     14 C3         82.6440   76.9320   23.3190 C.ar      1 AJX         0.1061
     15 C1         81.2120   78.8650   23.3080 C.ar      1 AJX        -0.0458
     16 C15        83.8970   75.7830   29.4030 C.3       1 AJX        -0.0362
     17 C16        82.5350   76.0640   29.9590 C.2       1 AJX        -0.0462
     18 C17        81.9690   77.2860   30.1770 C.2       1 AJX         0.0164
     19 C18        80.4000   75.8210   30.7460 C.ar      1 AJX         0.0603
     20 C19        81.5360   75.0940   30.3240 C.ar      1 AJX        -0.0216
     21 C2         81.8070   77.8190   22.6250 C.ar      1 AJX         0.1060
     22 C20        79.2350   75.2020   31.1900 C.ar      1 AJX        -0.0443
     23 C21        79.2280   73.8280   31.1980 C.ar      1 AJX        -0.0768
     24 C22        80.3370   73.0860   30.7910 C.ar      1 AJX        -0.0792
     25 C23        81.4880   73.6970   30.3460 C.ar      1 AJX        -0.0747
     26 O1         81.6980   77.5200   21.2920 O.3       1 AJX        -0.3310
     27 O2         83.2030   75.9260   22.5980 O.3       1 AJX        -0.3310
     28 O3         82.0380   80.9450   29.0330 O.2       1 AJX        -0.3828
     29 H1         83.5497   76.4222   25.1661 H         1 AJX         0.0435
     30 H2         84.5350   77.6582   28.5500 H         1 AJX         0.0281
     31 H3         84.9315   76.2127   27.5601 H         1 AJX         0.0281
     32 H4         84.4179   74.2512   22.6653 H         1 AJX         0.0570
     33 H5         83.4125   74.5438   24.1248 H         1 AJX         0.0570
     34 H6         84.8491   75.5730   23.8026 H         1 AJX         0.0570
     35 H7         83.7052   78.6887   26.7409 H         1 AJX         0.0686
     36 H8         79.9678   78.7813   26.8875 H         1 AJX         0.0545
     37 H9         80.1791   80.4568   27.4996 H         1 AJX         0.0545
     38 H10        79.8751   80.4276   25.0422 H         1 AJX         0.0409
     39 H11        81.5113   81.0207   25.4868 H         1 AJX         0.0409
     40 H12        81.0805   78.0729   19.3928 H         1 AJX         0.0570
     41 H13        81.6536   79.4108   20.4454 H         1 AJX         0.0570
     42 H14        80.0522   78.6546   20.7459 H         1 AJX         0.0570
     43 H15        83.1890   79.3411   29.1648 H         1 AJX         0.1547
     44 H16        82.0304   76.6938   28.0748 H         1 AJX         0.0307
     45 H17        82.8688   76.1321   26.5887 H         1 AJX         0.0307
     46 H18        80.0531   77.9282   30.8586 H         1 AJX         0.2216
     47 H19        80.5541   79.5498   22.7853 H         1 AJX         0.0434
     48 H20        84.6529   75.9745   30.1789 H         1 AJX         0.0349
     49 H21        83.9515   74.7299   29.0898 H         1 AJX         0.0349
     50 H22        82.4695   78.2384   30.0085 H         1 AJX         0.0795
     51 H23        78.3746   75.7763   31.5139 H         1 AJX         0.0541
     52 H24        78.3371   73.3068   31.5293 H         1 AJX         0.0530
     53 H25        80.2916   72.0035   30.8259 H         1 AJX         0.0510
     54 H26        82.3377   73.1080   30.0201 H         1 AJX         0.0540
@<TRIPOS>BOND
     1    1    3 ar 
     2   14    1 ar 
     3   11    2 1  
     4    2   16 1  
     5    4    3 ar 
     6    3    6 1  
     7    4    8 1  
     8   15    4 ar 
     9   27    5 1  
    10    6   11 1  
    11    6   12 1  
    12    8    7 1  
    13    7   12 1  
    14   26    9 1  
    15   12   10 am 
    16   10   28 2  
    17   18   13 1  
    18   19   13 1  
    19   21   14 ar 
    20   14   27 1  
    21   21   15 ar 
    22   16   17 1  
    23   17   18 2  
    24   17   20 1  
    25   20   19 ar 
    26   19   22 ar 
    27   20   25 ar 
    28   21   26 1  
    29   22   23 ar 
    30   23   24 ar 
    31   24   25 ar 
    32    1   29 1  
    33    2   30 1  
    34    2   31 1  
    35    5   32 1  
    36    5   33 1  
    37    5   34 1  
    38    6   35 1  
    39    7   36 1  
    40    7   37 1  
    41    8   38 1  
    42    8   39 1  
    43    9   40 1  
    44    9   41 1  
    45    9   42 1  
    46   10   43 1  
    47   11   44 1  
    48   11   45 1  
    49   13   46 1  
    50   15   47 1  
    51   16   48 1  
    52   16   49 1  
    53   18   50 1  
    54   22   51 1  
    55   23   52 1  
    56   24   53 1  
    57   25   54 1  
@<TRIPOS>SUBSTRUCTURE
     1 AJX         1

