### 
### Created by X-TOOL on Mon Aug  2 16:14:18 2021
### 

@<TRIPOS>MOLECULE
6imt_ligand
   51    54     1     0     0
SMALL
GAST_HUCK


@<TRIPOS>ATOM
      1 C4         83.1280   76.9190   24.7000 C.ar      1 AK0        -0.0438
      2 C14        82.9520   76.5190   28.9560 C.3       1 AK0        -0.0333
      3 C5         82.3760   77.8590   25.4250 C.ar      1 AK0        -0.0347
      4 C6         81.4360   78.6340   24.7560 C.ar      1 AK0        -0.0561
      5 C11        84.4730   74.9410   23.1690 C.3       1 AK0         0.0553
      6 C7         82.6300   78.0190   26.9030 C.3       1 AK0         0.0704
      7 C8         80.6170   79.4040   26.9740 C.3       1 AK0         0.0432
      8 C9         80.6200   79.6660   25.4870 C.3       1 AK0        -0.0081
      9 C10        81.0830   78.2020   20.5610 C.3       1 AK0         0.0553
     10 C12        82.6610   80.2000   28.1230 C.2       1 AK0         0.1737
     11 C13        82.1840   76.7530   27.6590 C.3       1 AK0        -0.0179
     12 N1         81.9940   79.2330   27.4490 N.am      1 AK0        -0.2617
     13 N2         83.3270   73.1410   30.4180 N.pl3     1 AK0        -0.2909
     14 C3         82.9330   76.7560   23.3480 C.ar      1 AK0         0.1061
     15 C1         81.2620   78.4760   23.3780 C.ar      1 AK0        -0.0458
     16 C15        83.1580   75.0710   29.2830 C.2       1 AK0        -0.0484
     17 C16        83.0700   74.4820   30.5110 C.2       1 AK0         0.0145
     18 C17        83.6000   72.8280   29.1100 C.ar      1 AK0         0.0583
     19 C18        83.5060   74.0200   28.3590 C.ar      1 AK0        -0.0246
     20 C19        83.9220   71.6190   28.5060 C.ar      1 AK0        -0.0115
     21 C2         82.0040   77.5600   22.6680 C.ar      1 AK0         0.1060
     22 C20        84.1460   71.6210   27.1530 C.ar      1 AK0         0.1175
     23 C21        84.0620   72.7690   26.3800 C.ar      1 AK0        -0.0445
     24 C22        83.7450   73.9660   26.9770 C.ar      1 AK0        -0.0749
     25 F1         84.4640   70.4480   26.5330 F         1 AK0        -0.1918
     26 O1         81.8990   77.3160   21.3270 O.3       1 AK0        -0.3310
     27 O2         83.6010   75.8780   22.5410 O.3       1 AK0        -0.3310
     28 O3         83.8480   80.1270   28.3750 O.2       1 AK0        -0.3828
     29 H1         83.8695   76.3160   25.2115 H         1 AK0         0.0435
     30 H2         82.3914   76.9844   29.7801 H         1 AK0         0.0351
     31 H3         83.9381   76.9982   28.8667 H         1 AK0         0.0351
     32 H4         84.9389   74.3034   22.4032 H         1 AK0         0.0570
     33 H5         83.8974   74.3150   23.8667 H         1 AK0         0.0570
     34 H6         85.2555   75.4816   23.7216 H         1 AK0         0.0570
     35 H7         83.7155   78.1272   27.0439 H         1 AK0         0.0688
     36 H8         80.0421   78.4898   27.1830 H         1 AK0         0.0545
     37 H9         80.1539   80.2554   27.4943 H         1 AK0         0.0545
     38 H10        79.5853   79.6353   25.1149 H         1 AK0         0.0409
     39 H11        81.0480   80.6616   25.2987 H         1 AK0         0.0409
     40 H12        81.0905   77.8881   19.5068 H         1 AK0         0.0570
     41 H13        81.4774   79.2257   20.6415 H         1 AK0         0.0570
     42 H14        80.0523   78.1749   20.9443 H         1 AK0         0.0570
     43 H15        82.1108   81.0799   28.4531 H         1 AK0         0.1547
     44 H16        81.1149   76.8491   27.8994 H         1 AK0         0.0320
     45 H17        82.3355   75.8835   27.0025 H         1 AK0         0.0320
     46 H18        83.3171   72.4743   31.2030 H         1 AK0         0.2208
     47 H19        80.5302   79.0853   22.8600 H         1 AK0         0.0434
     48 H20        82.8291   75.0055   31.4350 H         1 AK0         0.0779
     49 H21        83.9937   70.7051   29.0845 H         1 AK0         0.0520
     50 H22        84.2450   72.7229   25.3125 H         1 AK0         0.0507
     51 H23        83.6796   74.8685   26.3802 H         1 AK0         0.0537
@<TRIPOS>BOND
     1    1    3 ar 
     2   14    1 ar 
     3   11    2 1  
     4    2   16 1  
     5    4    3 ar 
     6    3    6 1  
     7    4    8 1  
     8   15    4 ar 
     9   27    5 1  
    10    6   11 1  
    11    6   12 1  
    12    8    7 1  
    13    7   12 1  
    14   26    9 1  
    15   12   10 am 
    16   10   28 2  
    17   17   13 1  
    18   18   13 1  
    19   21   14 ar 
    20   14   27 1  
    21   21   15 ar 
    22   16   17 2  
    23   16   19 1  
    24   19   18 ar 
    25   18   20 ar 
    26   19   24 ar 
    27   20   22 ar 
    28   21   26 1  
    29   22   23 ar 
    30   22   25 1  
    31   23   24 ar 
    32    1   29 1  
    33    2   30 1  
    34    2   31 1  
    35    5   32 1  
    36    5   33 1  
    37    5   34 1  
    38    6   35 1  
    39    7   36 1  
    40    7   37 1  
    41    8   38 1  
    42    8   39 1  
    43    9   40 1  
    44    9   41 1  
    45    9   42 1  
    46   10   43 1  
    47   11   44 1  
    48   11   45 1  
    49   13   46 1  
    50   15   47 1  
    51   17   48 1  
    52   20   49 1  
    53   23   50 1  
    54   24   51 1  
@<TRIPOS>SUBSTRUCTURE
     1 AK0         1

