### 
### Created by X-TOOL on Mon Aug  2 16:14:18 2021
### 

@<TRIPOS>MOLECULE
6ind_ligand
   54    57     1     0     0
SMALL
GAST_HUCK


@<TRIPOS>ATOM
      1 C4         83.0210  156.6270   24.7240 C.ar      1 AKO        -0.0438
      2 C14        83.5060  156.0470   28.6590 C.3       1 AKO        -0.0336
      3 C5         82.2980  157.5340   25.5090 C.ar      1 AKO        -0.0347
      4 C6         81.3040  158.3090   24.9190 C.ar      1 AKO        -0.0561
      5 C11        84.4820  154.8820   23.1560 C.3       1 AKO         0.0553
      6 C7         82.6600  157.6610   26.9600 C.3       1 AKO         0.0704
      7 C8         80.6490  159.0590   27.2140 C.3       1 AKO         0.0432
      8 C9         80.5080  159.3000   25.7290 C.3       1 AKO        -0.0081
      9 C10        80.7690  157.9620   20.7060 C.3       1 AKO         0.0553
     10 C12        82.7790  159.6940   28.3320 C.2       1 AKO         0.1737
     11 C13        82.3250  156.3900   27.7610 C.3       1 AKO        -0.0179
     12 N1         82.0580  158.8590   27.5530 N.am      1 AKO        -0.2617
     13 N2         83.0180  153.2560   31.0420 N.pl3     1 AKO        -0.2923
     14 C3         82.7550  156.4840   23.3830 C.ar      1 AKO         0.1061
     15 C1         81.0450  158.1600   23.5470 C.ar      1 AKO        -0.0458
     16 C15        83.3670  154.7550   29.4030 C.2       1 AKO        -0.0500
     17 C16        83.0460  154.5870   30.7200 C.2       1 AKO         0.0130
     18 C17        83.3240  152.5220   29.9210 C.ar      1 AKO         0.0532
     19 C18        83.5510  153.4320   28.8650 C.ar      1 AKO        -0.0268
     20 C19        83.4210  151.1450   29.7510 C.ar      1 AKO        -0.0440
     21 C2         81.7420  157.2540   22.7800 C.ar      1 AKO         0.1060
     22 C20        83.7540  150.6640   28.4940 C.ar      1 AKO        -0.0602
     23 C21        83.9760  151.5540   27.4410 C.ar      1 AKO        -0.0758
     24 C22        83.8820  152.9170   27.6040 C.ar      1 AKO        -0.0787
     25 C23        83.8680  149.1850   28.2500 C.3       1 AKO        -0.0364
     26 O1         81.5580  157.0280   21.4390 O.3       1 AKO        -0.3310
     27 O2         83.4100  155.6110   22.5610 O.3       1 AKO        -0.3310
     28 O3         82.3890  160.7640   28.7610 O.2       1 AKO        -0.3828
     29 H1         83.8016  156.0292   25.1805 H         1 AKO         0.0435
     30 H2         83.6241  156.8560   29.3949 H         1 AKO         0.0351
     31 H3         84.4079  155.9869   28.0322 H         1 AKO         0.0351
     32 H4         84.9325  154.2151   22.4062 H         1 AKO         0.0570
     33 H5         84.0973  154.2836   23.9950 H         1 AKO         0.0570
     34 H6         85.2429  155.5851   23.5256 H         1 AKO         0.0570
     35 H7         83.7513  157.7900   27.0091 H         1 AKO         0.0688
     36 H8         80.0755  158.1633   27.4945 H         1 AKO         0.0545
     37 H9         80.2615  159.9295   27.7635 H         1 AKO         0.0545
     38 H10        79.4465  159.2125   25.4541 H         1 AKO         0.0409
     39 H11        80.8641  160.3149   25.4984 H         1 AKO         0.0409
     40 H12        80.7133  157.6483   19.6532 H         1 AKO         0.0570
     41 H13        81.2295  158.9590   20.7676 H         1 AKO         0.0570
     42 H14        79.7554  157.9994   21.1316 H         1 AKO         0.0570
     43 H15        83.7891  159.3855   28.5972 H         1 AKO         0.1547
     44 H16        81.4315  156.5671   28.3776 H         1 AKO         0.0320
     45 H17        82.1335  155.5570   27.0686 H         1 AKO         0.0320
     46 H18        82.8029  152.8686   31.9718 H         1 AKO         0.2203
     47 H19        80.2801  158.7713   23.0820 H         1 AKO         0.0434
     48 H20        82.8409  155.3983   31.4169 H         1 AKO         0.0767
     49 H21        83.2414  150.4672   30.5777 H         1 AKO         0.0467
     50 H22        84.2304  151.1585   26.4643 H         1 AKO         0.0468
     51 H23        84.0615  153.5837   26.7683 H         1 AKO         0.0533
     52 H24        83.6618  148.6423   29.1843 H         1 AKO         0.0377
     53 H25        84.8851  148.9476   27.9049 H         1 AKO         0.0377
     54 H26        83.1404  148.8828   27.4823 H         1 AKO         0.0377
@<TRIPOS>BOND
     1    1    3 ar 
     2   14    1 ar 
     3   11    2 1  
     4    2   16 1  
     5    4    3 ar 
     6    3    6 1  
     7    4    8 1  
     8   15    4 ar 
     9   27    5 1  
    10    6   11 1  
    11    6   12 1  
    12    8    7 1  
    13    7   12 1  
    14   26    9 1  
    15   12   10 am 
    16   10   28 2  
    17   17   13 1  
    18   18   13 1  
    19   21   14 ar 
    20   14   27 1  
    21   21   15 ar 
    22   16   17 2  
    23   16   19 1  
    24   19   18 ar 
    25   18   20 ar 
    26   19   24 ar 
    27   20   22 ar 
    28   21   26 1  
    29   22   23 ar 
    30   22   25 1  
    31   23   24 ar 
    32    1   29 1  
    33    2   30 1  
    34    2   31 1  
    35    5   32 1  
    36    5   33 1  
    37    5   34 1  
    38    6   35 1  
    39    7   36 1  
    40    7   37 1  
    41    8   38 1  
    42    8   39 1  
    43    9   40 1  
    44    9   41 1  
    45    9   42 1  
    46   10   43 1  
    47   11   44 1  
    48   11   45 1  
    49   13   46 1  
    50   15   47 1  
    51   17   48 1  
    52   20   49 1  
    53   23   50 1  
    54   24   51 1  
    55   25   52 1  
    56   25   53 1  
    57   25   54 1  
@<TRIPOS>SUBSTRUCTURE
     1 AKO         1

