### 
### Created by X-TOOL on Mon Aug  2 16:14:19 2021
### 

@<TRIPOS>MOLECULE
6ink_ligand
   51    54     1     0     0
SMALL
GAST_HUCK


@<TRIPOS>ATOM
      1 C4         25.2850   76.4920   24.7780 C.ar      1 AKU        -0.0438
      2 C14        25.2880   76.2940   29.1170 C.3       1 AKU        -0.0329
      3 C5         24.5660   77.4290   25.5330 C.ar      1 AKU        -0.0347
      4 C6         23.6460   78.2590   24.8970 C.ar      1 AKU        -0.0561
      5 C11        26.6360   74.5770   23.3100 C.3       1 AKU         0.0553
      6 C7         24.8870   77.5510   26.9940 C.3       1 AKU         0.0704
      7 C8         22.9710   79.0770   27.1600 C.3       1 AKU         0.0432
      8 C9         22.8890   79.3100   25.6680 C.3       1 AKU        -0.0081
      9 C10        23.1390   77.8650   20.7100 C.3       1 AKU         0.0553
     10 C12        25.1160   79.6080   28.3220 C.2       1 AKU         0.1737
     11 C13        24.4720   76.3220   27.8240 C.3       1 AKU        -0.0178
     12 N1         24.3550   78.7990   27.5460 N.am      1 AKU        -0.2617
     13 N2         25.7320   73.2710   31.2060 N.pl3     1 AKU        -0.2891
     14 C3         25.0760   76.3620   23.4310 C.ar      1 AKU         0.1061
     15 C1         23.4430   78.1270   23.5130 C.ar      1 AKU        -0.0458
     16 C15        25.5060   74.9340   29.7100 C.2       1 AKU        -0.0460
     17 C16        25.4930   74.6080   31.0360 C.2       1 AKU         0.0164
     18 C17        25.9220   72.6940   29.9780 C.ar      1 AKU         0.0603
     19 C18        25.7910   73.7100   29.0050 C.ar      1 AKU        -0.0216
     20 C19        26.1990   71.3690   29.6420 C.ar      1 AKU        -0.0443
     21 C2         24.1360   77.1890   22.7800 C.ar      1 AKU         0.1060
     22 C20        26.3430   71.0730   28.3060 C.ar      1 AKU        -0.0768
     23 C21        26.2190   72.0560   27.3260 C.ar      1 AKU        -0.0792
     24 C22        25.9450   73.3650   27.6570 C.ar      1 AKU        -0.0747
     25 O1         24.0010   76.9860   21.4340 O.3       1 AKU        -0.3310
     26 O2         25.7270   75.4530   22.6440 O.3       1 AKU        -0.3310
     27 O3         24.7170   80.6060   28.8960 O.2       1 AKU        -0.3828
     28 H1         26.0175   75.8608   25.2679 H         1 AKU         0.0435
     29 H2         24.7636   76.9094   29.8628 H         1 AKU         0.0351
     30 H3         26.2737   76.7343   28.9060 H         1 AKU         0.0351
     31 H4         27.0941   73.8973   22.5764 H         1 AKU         0.0570
     32 H5         26.0927   73.9896   24.0648 H         1 AKU         0.0570
     33 H6         27.4218   75.1690   23.8020 H         1 AKU         0.0570
     34 H7         25.9827   77.6146   27.0674 H         1 AKU         0.0688
     35 H8         22.3378   78.2192   27.4304 H         1 AKU         0.0545
     36 H9         22.6182   79.9745   27.6892 H         1 AKU         0.0545
     37 H10        21.8330   79.2858   25.3610 H         1 AKU         0.0409
     38 H11        23.3154   80.2974   25.4375 H         1 AKU         0.0409
     39 H12        23.1326   77.5795   19.6477 H         1 AKU         0.0570
     40 H13        23.5018   78.8986   20.8096 H         1 AKU         0.0570
     41 H14        22.1187   77.7938   21.1149 H         1 AKU         0.0570
     42 H15        26.1661   79.3458   28.4421 H         1 AKU         0.1547
     43 H16        23.4007   76.3852   28.0656 H         1 AKU         0.0320
     44 H17        24.6644   75.4055   27.2469 H         1 AKU         0.0320
     45 H18        25.7638   72.7787   32.1102 H         1 AKU         0.2216
     46 H19        22.7299   78.7734   23.0143 H         1 AKU         0.0434
     47 H20        25.3168   75.3141   31.8462 H         1 AKU         0.0795
     48 H21        26.2969   70.6031   30.4029 H         1 AKU         0.0541
     49 H22        26.5576   70.0527   28.0092 H         1 AKU         0.0530
     50 H23        26.3405   71.7855   26.2833 H         1 AKU         0.0510
     51 H24        25.8499   74.1183   26.8834 H         1 AKU         0.0540
@<TRIPOS>BOND
     1    1    3 ar 
     2   14    1 ar 
     3   11    2 1  
     4    2   16 1  
     5    4    3 ar 
     6    3    6 1  
     7    4    8 1  
     8   15    4 ar 
     9   26    5 1  
    10    6   11 1  
    11    6   12 1  
    12    8    7 1  
    13    7   12 1  
    14   25    9 1  
    15   12   10 am 
    16   10   27 2  
    17   17   13 1  
    18   18   13 1  
    19   21   14 ar 
    20   14   26 1  
    21   21   15 ar 
    22   16   17 2  
    23   16   19 1  
    24   19   18 ar 
    25   18   20 ar 
    26   19   24 ar 
    27   20   22 ar 
    28   21   25 1  
    29   22   23 ar 
    30   23   24 ar 
    31    1   28 1  
    32    2   29 1  
    33    2   30 1  
    34    5   31 1  
    35    5   32 1  
    36    5   33 1  
    37    6   34 1  
    38    7   35 1  
    39    7   36 1  
    40    8   37 1  
    41    8   38 1  
    42    9   39 1  
    43    9   40 1  
    44    9   41 1  
    45   10   42 1  
    46   11   43 1  
    47   11   44 1  
    48   13   45 1  
    49   15   46 1  
    50   17   47 1  
    51   20   48 1  
    52   22   49 1  
    53   23   50 1  
    54   24   51 1  
@<TRIPOS>SUBSTRUCTURE
     1 AKU         1

