### 
### Created by X-TOOL on Mon Aug  2 16:14:19 2021
### 

@<TRIPOS>MOLECULE
6inm_ligand
   51    54     1     0     0
SMALL
GAST_HUCK


@<TRIPOS>ATOM
      1 C4         25.1930   76.3470   24.7450 C.ar      1 AKU        -0.0438
      2 C14        25.4360   75.8130   28.9290 C.3       1 AKU        -0.0329
      3 C5         24.4670   77.2420   25.5400 C.ar      1 AKU        -0.0347
      4 C6         23.4530   78.0000   24.9620 C.ar      1 AKU        -0.0561
      5 C11        26.6080   74.5490   23.1730 C.3       1 AKU         0.0553
      6 C7         24.8280   77.3680   27.0000 C.3       1 AKU         0.0704
      7 C8         22.7700   78.6860   27.2560 C.3       1 AKU         0.0432
      8 C9         22.6430   78.9720   25.7790 C.3       1 AKU        -0.0081
      9 C10        22.7150   77.5770   20.8340 C.3       1 AKU         0.0553
     10 C12        24.8520   79.4460   28.3410 C.2       1 AKU         0.1737
     11 C13        24.4860   76.0730   27.7640 C.3       1 AKU        -0.0178
     12 N1         24.1850   78.5460   27.5920 N.am      1 AKU        -0.2617
     13 N2         25.0910   72.6610   30.8390 N.pl3     1 AKU        -0.2891
     14 C3         24.9190   76.1980   23.4070 C.ar      1 AKU         0.1061
     15 C1         23.1790   77.8450   23.5960 C.ar      1 AKU        -0.0458
     16 C15        25.3720   74.4140   29.4630 C.2       1 AKU        -0.0460
     17 C16        25.0360   74.0250   30.7280 C.2       1 AKU         0.0164
     18 C17        25.4720   72.1290   29.6340 C.ar      1 AKU         0.0603
     19 C18        25.6600   73.2030   28.7370 C.ar      1 AKU        -0.0216
     20 C19        25.6670   70.8000   29.2560 C.ar      1 AKU        -0.0443
     21 C2         23.8910   76.9610   22.8170 C.ar      1 AKU         0.1060
     22 C20        26.0560   70.5610   27.9580 C.ar      1 AKU        -0.0768
     23 C21        26.2470   71.6060   27.0530 C.ar      1 AKU        -0.0792
     24 C22        26.0550   72.9190   27.4250 C.ar      1 AKU        -0.0747
     25 O1         23.6860   76.7580   21.4770 O.3       1 AKU        -0.3310
     26 O2         25.5870   75.3420   22.5780 O.3       1 AKU        -0.3310
     27 O3         24.3580   80.4630   28.7930 O.2       1 AKU        -0.3828
     28 H1         25.9865   75.7604   25.1937 H         1 AKU         0.0435
     29 H2         25.1828   76.5069   29.7441 H         1 AKU         0.0351
     30 H3         26.4637   76.0071   28.5881 H         1 AKU         0.0351
     31 H4         27.0667   73.9067   22.4068 H         1 AKU         0.0570
     32 H5         26.1710   73.9215   23.9637 H         1 AKU         0.0570
     33 H6         27.3756   75.2058   23.6083 H         1 AKU         0.0570
     34 H7         25.9161   77.5147   27.0667 H         1 AKU         0.0688
     35 H8         22.2392   77.7536   27.4984 H         1 AKU         0.0545
     36 H9         22.3345   79.5161   27.8315 H         1 AKU         0.0545
     37 H10        21.5854   78.8906   25.4879 H         1 AKU         0.0409
     38 H11        23.0007   79.9929   25.5797 H         1 AKU         0.0409
     39 H12        22.6552   77.3075   19.7692 H         1 AKU         0.0570
     40 H13        23.0057   78.6336   20.9289 H         1 AKU         0.0570
     41 H14        21.7339   77.4226   21.3069 H         1 AKU         0.0570
     42 H15        25.9016   79.2510   28.5561 H         1 AKU         0.1547
     43 H16        23.4615   76.1550   28.1559 H         1 AKU         0.0320
     44 H17        24.5446   75.2255   27.0653 H         1 AKU         0.0320
     45 H18        24.8801   72.1216   31.6907 H         1 AKU         0.2216
     46 H19        22.3895   78.4339   23.1433 H         1 AKU         0.0434
     47 H20        24.7628   74.7035   31.5348 H         1 AKU         0.0795
     48 H21        25.5178   69.9874   29.9577 H         1 AKU         0.0541
     49 H22        26.2174   69.5400   27.6317 H         1 AKU         0.0530
     50 H23        26.5523   71.3805   26.0376 H         1 AKU         0.0510
     51 H24        26.2078   73.7205   26.7113 H         1 AKU         0.0540
@<TRIPOS>BOND
     1    1    3 ar 
     2   14    1 ar 
     3   11    2 1  
     4    2   16 1  
     5    4    3 ar 
     6    3    6 1  
     7    4    8 1  
     8   15    4 ar 
     9   26    5 1  
    10    6   11 1  
    11    6   12 1  
    12    8    7 1  
    13    7   12 1  
    14   25    9 1  
    15   12   10 am 
    16   10   27 2  
    17   17   13 1  
    18   18   13 1  
    19   21   14 ar 
    20   14   26 1  
    21   21   15 ar 
    22   16   17 2  
    23   16   19 1  
    24   19   18 ar 
    25   18   20 ar 
    26   19   24 ar 
    27   20   22 ar 
    28   21   25 1  
    29   22   23 ar 
    30   23   24 ar 
    31    1   28 1  
    32    2   29 1  
    33    2   30 1  
    34    5   31 1  
    35    5   32 1  
    36    5   33 1  
    37    6   34 1  
    38    7   35 1  
    39    7   36 1  
    40    8   37 1  
    41    8   38 1  
    42    9   39 1  
    43    9   40 1  
    44    9   41 1  
    45   10   42 1  
    46   11   43 1  
    47   11   44 1  
    48   13   45 1  
    49   15   46 1  
    50   17   47 1  
    51   20   48 1  
    52   22   49 1  
    53   23   50 1  
    54   24   51 1  
@<TRIPOS>SUBSTRUCTURE
     1 AKU         1

