### 
### Created by X-TOOL on Mon Aug  2 16:14:20 2021
### 

@<TRIPOS>MOLECULE
6inz_ligand
   46    47     1     0     0
SMALL
GAST_HUCK


@<TRIPOS>ATOM
      1 C1         -0.2780   -7.1890  -21.3160 C.3       1 GCD         0.2075
      2 C2         -1.1720   -6.0700  -20.9050 C.3       1 GCD         0.1417
      3 C3         -2.4590   -6.1850  -21.7380 C.3       1 GCD         0.1056
      4 C4         -2.1250   -6.2660  -23.2120 C.2       1 GCD        -0.0271
      5 C5         -0.9320   -6.7460  -23.6030 C.2       1 GCD         0.1115
      6 C6         -0.5200   -7.0320  -24.9870 C.2       1 GCD         0.0810
      7 O2         -1.4170   -6.2860  -19.5170 O.3       1 GCD        -0.3820
      8 O3         -3.1770   -4.9510  -21.5820 O.3       1 GCD        -0.3804
      9 O5          0.1130   -6.9940  -22.6610 O.3       1 GCD        -0.2949
     10 O6A        -1.3160   -7.0310  -25.9850 O.co2     1 GCD        -0.5623
     11 O6B         0.6770   -7.3030  -25.0940 O.co2     1 GCD        -0.5623
     12 C1          2.6330   -9.8080  -18.4790 C.3       1 GCD         0.1823
     13 C2          2.0130   -8.4060  -18.7200 C.3       1 GCD         0.1211
     14 C3          1.5090   -8.3640  -20.1540 C.3       1 GCD         0.1179
     15 C4          2.7250   -8.6490  -21.0930 C.3       1 GCD         0.1120
     16 C5          3.4820   -9.9430  -20.7050 C.3       1 GCD         0.1130
     17 C6          4.7430  -10.2410  -21.4980 C.3       1 GCD         0.0730
     18 C7          0.8990   -7.2360  -16.9600 C.2       1 GCD         0.1733
     19 C8         -0.2130   -7.2370  -15.9380 C.3       1 GCD         0.0257
     20 N2          0.9050   -8.2400  -17.8360 N.am      1 GCD        -0.2766
     21 O1          3.2050   -9.6850  -17.1840 O.3       1 GCD        -0.3651
     22 O3          0.8410   -7.0920  -20.4510 O.3       1 GCD        -0.3369
     23 O4          2.2960   -8.7560  -22.4800 O.3       1 GCD        -0.3865
     24 O5          3.7960  -10.0280  -19.2880 O.3       1 GCD        -0.3410
     25 O6          5.2250  -11.4000  -20.8670 O.3       1 GCD        -0.3924
     26 O7          1.7790   -6.3620  -17.0380 O.2       1 GCD        -0.3974
     27 H1         -0.7783   -8.1622  -21.2046 H         1 GCD         0.0990
     28 H2         -0.6985   -5.0907  -21.0687 H         1 GCD         0.0694
     29 H3         -3.0570   -7.0506  -21.4168 H         1 GCD         0.0743
     30 H4         -2.8500   -5.9359  -23.9545 H         1 GCD         0.0480
     31 H5         -0.6013   -6.2071  -19.0366 H         1 GCD         0.2103
     32 H6         -2.6249   -4.2279  -21.8557 H         1 GCD         0.2127
     33 H7          1.8919  -10.6150  -18.5761 H         1 GCD         0.0932
     34 H8          2.7605   -7.6172  -18.5497 H         1 GCD         0.0633
     35 H9          0.7703   -9.1675  -20.2909 H         1 GCD         0.0649
     36 H10         3.4226   -7.8029  -21.0066 H         1 GCD         0.0647
     37 H11         2.7822  -10.7632  -20.9229 H         1 GCD         0.0647
     38 H12         5.4662   -9.4157  -21.4218 H         1 GCD         0.0584
     39 H13         4.5127  -10.4302  -22.5568 H         1 GCD         0.0584
     40 H14        -0.1059   -6.3630  -15.2788 H         1 GCD         0.0467
     41 H15        -0.1589   -8.1575  -15.3382 H         1 GCD         0.0467
     42 H16        -1.1841   -7.1912  -16.4527 H         1 GCD         0.0467
     43 H17         0.1344   -8.8761  -17.8739 H         1 GCD         0.1857
     44 H18         3.6680  -10.4855  -16.9662 H         1 GCD         0.2126
     45 H19         1.8301   -7.9662  -22.7280 H         1 GCD         0.2100
     46 H20         4.5741  -12.0889  -20.9326 H         1 GCD         0.2095
@<TRIPOS>BOND
     1    1    2 1  
     2    1    9 1  
     3   22    1 1  
     4    2    3 1  
     5    2    7 1  
     6    3    4 1  
     7    3    8 1  
     8    5    4 2  
     9    5    6 1  
    10    9    5 1  
    11    6   10 ar 
    12    6   11 ar 
    13   13   12 1  
    14   12   21 1  
    15   12   24 1  
    16   13   14 1  
    17   20   13 1  
    18   14   15 1  
    19   14   22 1  
    20   15   16 1  
    21   15   23 1  
    22   16   17 1  
    23   24   16 1  
    24   17   25 1  
    25   18   19 1  
    26   18   20 am 
    27   18   26 2  
    28    1   27 1  
    29    2   28 1  
    30    3   29 1  
    31    4   30 1  
    32    7   31 1  
    33    8   32 1  
    34   12   33 1  
    35   13   34 1  
    36   14   35 1  
    37   15   36 1  
    38   16   37 1  
    39   17   38 1  
    40   17   39 1  
    41   19   40 1  
    42   19   41 1  
    43   19   42 1  
    44   20   43 1  
    45   21   44 1  
    46   23   45 1  
    47   25   46 1  
@<TRIPOS>SUBSTRUCTURE
     1 GCD         1

