### 
### Created by X-TOOL on Mon Aug  2 16:14:20 2021
### 

@<TRIPOS>MOLECULE
6ior_ligand
   17    16     1     0     0
SMALL
GAST_HUCK


@<TRIPOS>ATOM
      1 N          97.5200   31.6170   36.9420 N.4       1 ASN         0.2344
      2 CA         97.6950   32.8890   37.6370 C.3       1 ASN         0.0452
      3 C          97.0320   32.8570   39.0260 C.2       1 ASN         0.0869
      4 O          96.2230   31.9640   39.2980 O.co2     1 ASN        -0.5641
      5 CB         97.1360   34.0410   36.7860 C.3       1 ASN         0.0918
      6 CG         95.6670   33.8360   36.4200 C.2       1 ASN         0.1807
      7 OD1        94.8860   33.3450   37.2330 O.2       1 ASN        -0.3969
      8 ND2        95.2860   34.2010   35.1920 N.am      1 ASN        -0.3006
      9 OXT        97.2980   33.7010   39.8910 O.co2     1 ASN        -0.5641
     10 H1         97.9623   31.6647   36.0375 H         1 ASN         0.2012
     11 H2         96.5363   31.4303   36.8255 H         1 ASN         0.2012
     12 H3         97.9406   30.8778   37.4831 H         1 ASN         0.2012
     13 H4         98.7728   33.0577   37.7780 H         1 ASN         0.1051
     14 H5         97.7241   34.1130   35.8592 H         1 ASN         0.0578
     15 H6         97.2308   34.9781   37.3542 H         1 ASN         0.0578
     16 H7         94.3340   34.0851   34.9087 H         1 ASN         0.1814
     17 H8         95.9530   34.5899   34.5565 H         1 ASN         0.1814
@<TRIPOS>BOND
     1    1    2 1  
     2    2    3 1  
     3    2    5 1  
     4    3    4 ar 
     5    3    9 ar 
     6    5    6 1  
     7    6    7 2  
     8    6    8 am 
     9    1   10 1  
    10    1   11 1  
    11    1   12 1  
    12    2   13 1  
    13    5   14 1  
    14    5   15 1  
    15    8   16 1  
    16    8   17 1  
@<TRIPOS>SUBSTRUCTURE
     1 ASN         1

