### 
### Created by X-TOOL on Mon Aug  2 16:14:20 2021
### 

@<TRIPOS>MOLECULE
6ios_ligand
   17    17     1     0     0
SMALL
GAST_HUCK


@<TRIPOS>ATOM
      1 N         -11.8350   11.7820  -12.7880 N.4       1 PRO         0.2409
      2 CA        -11.0460   10.9740  -11.8520 C.3       1 PRO         0.0303
      3 C         -11.2620    9.4660  -12.0170 C.2       1 PRO         0.0845
      4 O         -12.0830    9.0290  -12.8460 O.co2     1 PRO        -0.5643
      5 CB        -11.5560   11.4330  -10.4860 C.3       1 PRO         0.0072
      6 CG        -12.9350   11.9900  -10.7490 C.3       1 PRO        -0.0059
      7 CD        -12.8350   12.6150  -12.0830 C.3       1 PRO        -0.0318
      8 OXT       -10.6210    8.6740  -11.3060 O.co2     1 PRO        -0.5643
      9 H1        -12.3141   11.1671  -13.4270 H         1 PRO         0.2030
     10 H2        -11.2132   12.3846  -13.3040 H         1 PRO         0.2030
     11 H3         -9.9746   11.1951  -11.9667 H         1 PRO         0.1025
     12 H4        -10.8985   12.2101  -10.0692 H         1 PRO         0.0340
     13 H5        -11.6088   10.5844   -9.7881 H         1 PRO         0.0340
     14 H6        -13.2033   12.7382   -9.9886 H         1 PRO         0.0320
     15 H7        -13.6849   11.1853  -10.7523 H         1 PRO         0.0320
     16 H8        -13.8043   12.5876  -12.6024 H         1 PRO         0.0814
     17 H9        -12.4911   13.6568  -12.0030 H         1 PRO         0.0814
@<TRIPOS>BOND
     1    1    2 1  
     2    1    7 1  
     3    2    3 1  
     4    2    5 1  
     5    3    4 ar 
     6    3    8 ar 
     7    5    6 1  
     8    6    7 1  
     9    1    9 1  
    10    1   10 1  
    11    2   11 1  
    12    5   12 1  
    13    5   13 1  
    14    6   14 1  
    15    6   15 1  
    16    7   16 1  
    17    7   17 1  
@<TRIPOS>SUBSTRUCTURE
     1 PRO         1

