### 
### Created by X-TOOL on Mon Aug  2 16:14:20 2021
### 

@<TRIPOS>MOLECULE
6iot_ligand
   27    26     1     0     0
SMALL
GAST_HUCK


@<TRIPOS>ATOM
      1 N          18.5830   13.5760   92.4390 N.4       1 ARG         0.2327
      2 CA         18.5410   12.6770   91.2920 C.3       1 ARG         0.0284
      3 C          17.4020   13.0450   90.3500 C.2       1 ARG         0.0844
      4 O          17.6200   13.3470   89.1770 O.co2     1 ARG        -0.5643
      5 CB         18.3880   11.2260   91.7520 C.3       1 ARG         0.0055
      6 CG         18.8400   10.2010   90.7300 C.3       1 ARG        -0.0131
      7 CD         20.2580   10.4900   90.2750 C.3       1 ARG         0.0628
      8 NE         21.1930   10.5550   91.3940 N.pl3     1 ARG        -0.2723
      9 CZ         21.9070    9.5250   91.8340 C.cat     1 ARG         0.2882
     10 NH1        22.7330    9.6790   92.8590 N.pl3     1 ARG        -0.2849
     11 NH2        21.7980    8.3410   91.2480 N.pl3     1 ARG        -0.2849
     12 OXT        16.2360   13.0500   90.7440 O.co2     1 ARG        -0.5643
     13 H1         19.3436   13.3117   93.0454 H         1 ARG         0.2010
     14 H2         17.7134   13.5158   92.9451 H         1 ARG         0.2010
     15 H3         18.7212   14.5220   92.1196 H         1 ARG         0.2010
     16 H4         19.4900   12.7717   90.7439 H         1 ARG         0.1024
     17 H5         17.3265   11.0450   91.9764 H         1 ARG         0.0340
     18 H6         18.9846   11.0887   92.6659 H         1 ARG         0.0340
     19 H7         18.1671   10.2364   89.8605 H         1 ARG         0.0302
     20 H8         18.8026    9.1989   91.1821 H         1 ARG         0.0302
     21 H9         20.2709   11.4544   89.7461 H         1 ARG         0.0689
     22 H10        20.5800    9.6918   89.5901 H         1 ARG         0.0689
     23 H11        21.3066   11.4592   91.8741 H         1 ARG         0.2642
     24 H12        23.2861    8.8795   93.1993 H         1 ARG         0.2615
     25 H13        22.8218   10.5981   93.3153 H         1 ARG         0.2615
     26 H14        21.1570    8.2178   90.4512 H         1 ARG         0.2615
     27 H15        22.3543    7.5442   91.5895 H         1 ARG         0.2615
@<TRIPOS>BOND
     1    1    2 1  
     2    2    3 1  
     3    2    5 1  
     4    3    4 ar 
     5    3   12 ar 
     6    5    6 1  
     7    6    7 1  
     8    7    8 1  
     9    8    9 ar 
    10    9   10 ar 
    11    9   11 ar 
    12    1   13 1  
    13    1   14 1  
    14    1   15 1  
    15    2   16 1  
    16    5   17 1  
    17    5   18 1  
    18    6   19 1  
    19    6   20 1  
    20    7   21 1  
    21    7   22 1  
    22    8   23 1  
    23   10   24 1  
    24   10   25 1  
    25   11   26 1  
    26   11   27 1  
@<TRIPOS>SUBSTRUCTURE
     1 ARG         1

