### 
### Created by X-TOOL on Mon Aug  2 16:14:21 2021
### 

@<TRIPOS>MOLECULE
6iou_ligand
   14    13     1     0     0
SMALL
GAST_HUCK


@<TRIPOS>ATOM
      1 N           9.0140    3.2690   15.8700 N.4       1 SER         0.2343
      2 CA          9.5440    2.8860   17.1810 C.3       1 SER         0.0519
      3 C           9.7430    1.3860   17.3250 C.2       1 SER         0.0867
      4 O           9.2560    0.5970   16.5150 O.co2     1 SER        -0.5642
      5 CB          8.6380    3.3950   18.3030 C.3       1 SER         0.0987
      6 OG          7.3190    2.9170   18.1730 O.3       1 SER        -0.3876
      7 OXT        10.4310    0.9380   18.2420 O.co2     1 SER        -0.5642
      8 H1          8.9030    4.2701   15.8319 H         1 SER         0.2011
      9 H2          8.1199    2.8262   15.7266 H         1 SER         0.2011
     10 H3          9.6544    2.9743   15.1495 H         1 SER         0.2011
     11 H4         10.5277    3.3655   17.2920 H         1 SER         0.1047
     12 H5          8.6217    4.4945   18.2754 H         1 SER         0.0633
     13 H6          9.0444    3.0584   19.2682 H         1 SER         0.0633
     14 H7          6.9581    3.2083   17.3439 H         1 SER         0.2098
@<TRIPOS>BOND
     1    1    2 1  
     2    2    3 1  
     3    2    5 1  
     4    3    4 ar 
     5    3    7 ar 
     6    5    6 1  
     7    1    8 1  
     8    1    9 1  
     9    1   10 1  
    10    2   11 1  
    11    5   12 1  
    12    5   13 1  
    13    6   14 1  
@<TRIPOS>SUBSTRUCTURE
     1 SER         1

