### 
### Created by X-TOOL on Mon Aug  2 16:14:22 2021
### 

@<TRIPOS>MOLECULE
6iql_ligand
   43    46     1     0     0
SMALL
GAST_HUCK


@<TRIPOS>ATOM
      1 C1         16.1170   16.1000   22.1040 C.ar      1 L74        -0.0511
      2 C10        22.2270   13.8820   26.6730 C.3       1 L74         0.0670
      3 C11        23.5300   13.8040   24.6720 C.3       1 L74         0.0670
      4 C12        22.1760   14.0870   24.0060 C.3       1 L74        -0.0109
      5 C13        23.7980   12.0100   26.3450 C.ar      1 L74         0.0410
      6 C14        24.4240   11.6460   27.5300 C.ar      1 L74        -0.0436
      7 C15        24.7410   10.3010   27.7590 C.ar      1 L74        -0.0597
      8 C16        24.4280    9.3320   26.7970 C.ar      1 L74         0.0261
      9 C17        23.8000    9.7020   25.6080 C.ar      1 L74        -0.0597
     10 C18        23.4840   11.0400   25.3810 C.ar      1 L74        -0.0436
     11 C2         16.3450   17.1330   21.2070 C.ar      1 L74        -0.0063
     12 C3         17.1660   15.5750   22.8890 C.ar      1 L74        -0.0552
     13 C4         18.4560   16.1510   22.7180 C.ar      1 L74         0.0104
     14 C5         18.6370   17.1610   21.8300 C.ar      1 L74         0.1320
     15 C6         20.6380   16.7890   22.7420 C.2       1 L74         0.0272
     16 C7         19.7680   15.9100   23.3160 C.2       1 L74         0.0059
     17 C8         20.1500   14.8570   24.4050 C.3       1 L74        -0.0130
     18 C9         21.6730   15.1530   26.0240 C.3       1 L74        -0.0109
     19 N1         17.5660   17.6250   21.0950 N.ar      1 L74        -0.2874
     20 N2         19.9500   17.5340   21.8610 N.pl3     1 L74        -0.2743
     21 N3         21.4150   15.0110   24.6660 N.4       1 L74         0.2449
     22 N4         23.4560   13.3800   26.0770 N.pl3     1 L74        -0.2984
     23 CL1        24.8280    7.6200   27.0780 Cl        1 L74        -0.0830
     24 H1         15.1186   15.6898   22.2036 H         1 L74         0.0593
     25 H2         21.4620   13.0956   26.5939 H         1 L74         0.0567
     26 H3         22.4237   14.0968   27.7337 H         1 L74         0.0567
     27 H4         24.1321   14.7234   24.6246 H         1 L74         0.0567
     28 H5         24.0308   13.0079   24.1016 H         1 L74         0.0567
     29 H6         21.6108   13.1446   23.9569 H         1 L74         0.0834
     30 H7         22.3621   14.4564   22.9868 H         1 L74         0.0834
     31 H8         24.6657   12.3977   28.2727 H         1 L74         0.0516
     32 H9         25.2292   10.0095   28.6819 H         1 L74         0.0589
     33 H10        23.5587    8.9519   24.8636 H         1 L74         0.0589
     34 H11        22.9950   11.3318   24.4586 H         1 L74         0.0516
     35 H12        15.5342   17.5304   20.6073 H         1 L74         0.0747
     36 H13        16.9962   14.7676   23.5921 H         1 L74         0.0672
     37 H14        21.7019   16.8723   22.9592 H         1 L74         0.0827
     38 H15        19.9648   13.8407   24.0271 H         1 L74         0.0901
     39 H16        19.5550   15.0240   25.3150 H         1 L74         0.0901
     40 H17        22.4074   15.9611   26.1569 H         1 L74         0.0834
     41 H18        20.7349   15.4231   26.5309 H         1 L74         0.0834
     42 H19        20.3580   18.2852   21.2864 H         1 L74         0.2255
     43 H20        21.6706   15.8982   24.2615 H         1 L74         0.2043
@<TRIPOS>BOND
     1    1   11 ar 
     2   12    1 ar 
     3    2   18 1  
     4   22    2 1  
     5    4    3 1  
     6    3   22 1  
     7   21    4 1  
     8    5    6 ar 
     9    5   10 ar 
    10   22    5 1  
    11    6    7 ar 
    12    7    8 ar 
    13    9    8 ar 
    14    8   23 1  
    15   10    9 ar 
    16   19   11 ar 
    17   13   12 ar 
    18   13   14 ar 
    19   16   13 1  
    20   14   19 ar 
    21   20   14 1  
    22   16   15 2  
    23   15   20 1  
    24   17   16 1  
    25   17   21 1  
    26   18   21 1  
    27    1   24 1  
    28    2   25 1  
    29    2   26 1  
    30    3   27 1  
    31    3   28 1  
    32    4   29 1  
    33    4   30 1  
    34    6   31 1  
    35    7   32 1  
    36    9   33 1  
    37   10   34 1  
    38   11   35 1  
    39   12   36 1  
    40   15   37 1  
    41   17   38 1  
    42   17   39 1  
    43   18   40 1  
    44   18   41 1  
    45   20   42 1  
    46   21   43 1  
@<TRIPOS>SUBSTRUCTURE
     1 L74         1

