### 
### Created by X-TOOL on Mon Aug  2 16:12:02 2021
### 

@<TRIPOS>MOLECULE
6irt_ligand
   22    23     1     0     0
SMALL
GAST_HUCK


@<TRIPOS>ATOM
      1 C10       146.9120  144.1570  133.5250 C.2       1 AUU         0.0983
      2 C04       147.1640  142.5700  135.5020 C.3       1 AUU         0.0286
      3 C05       146.7950  142.6090  134.1460 C.3       1 AUU         0.0434
      4 C06       144.9530  141.7120  135.1980 C.3       1 AUU        -0.0175
      5 C07       145.4340  142.1300  133.9850 C.3       1 AUU         0.0098
      6 C08       146.4410  141.0460  135.7050 C.3       1 AUU        -0.0290
      7 C09       146.3290  143.1540  136.4050 C.2       1 AUU        -0.0902
      8 C11       144.9680  142.6670  136.1980 C.2       1 AUU        -0.0950
      9 N03       147.6950  141.7350  133.3930 N.4       1 AUU         0.2245
     10 O01       146.8890  144.3150  132.2750 O.co2     1 AUU        -0.5421
     11 O02       147.0240  145.1640  134.2740 O.co2     1 AUU        -0.5421
     12 H1        148.2360  142.7198  135.6979 H         1 AUU         0.0476
     13 H2        144.0494  141.0862  135.1534 H         1 AUU         0.0426
     14 H3        145.4221  141.2892  133.2759 H         1 AUU         0.0340
     15 H4        144.8016  142.9435  133.5999 H         1 AUU         0.0340
     16 H5        146.4424  140.6792  136.7420 H         1 AUU         0.0311
     17 H6        146.8372  140.2651  135.0393 H         1 AUU         0.0311
     18 H7        146.6299  143.8737  137.1649 H         1 AUU         0.0454
     19 H8        144.0929  143.0062  136.7503 H         1 AUU         0.0453
     20 H9        148.6437  142.0590  133.4981 H         1 AUU         0.2001
     21 H10       147.4407  141.7508  132.4178 H         1 AUU         0.2001
     22 H11       147.6207  140.7932  133.7445 H         1 AUU         0.2001
@<TRIPOS>BOND
     1    1    3 1  
     2    1   10 ar 
     3    1   11 ar 
     4    3    2 1  
     5    2    6 1  
     6    2    7 1  
     7    3    5 1  
     8    3    9 1  
     9    5    4 1  
    10    4    6 1  
    11    4    8 1  
    12    7    8 2  
    13    2   12 1  
    14    4   13 1  
    15    5   14 1  
    16    5   15 1  
    17    6   16 1  
    18    6   17 1  
    19    7   18 1  
    20    8   19 1  
    21    9   20 1  
    22    9   21 1  
    23    9   22 1  
@<TRIPOS>SUBSTRUCTURE
     1 AUU         1

