### 
### Created by X-TOOL on Mon Aug  2 16:14:23 2021
### 

@<TRIPOS>MOLECULE
6isd_ligand
   38    39     1     0     0
SMALL
GAST_HUCK


@<TRIPOS>ATOM
      1 OAB       -21.4170   -9.6260  -20.6350 O.3       1 MOL        -0.3889
      2 CAN       -22.7910   -9.5830  -21.0240 C.3       1 MOL         0.0780
      3 CAL       -22.8310   -9.8470  -22.4790 C.3       1 MOL        -0.0220
      4 CAK       -24.2080   -9.9070  -23.0350 C.3       1 MOL        -0.0346
      5 CAM       -24.8330   -8.5190  -22.9630 C.3       1 MOL         0.0218
      6 CAO       -24.4020   -7.5590  -21.7630 C.2       1 MOL         0.1150
      7 OAC       -24.7390   -6.4290  -21.7170 O.2       1 MOL        -0.3910
      8 CAT       -23.5060   -8.2490  -20.6530 C.3       1 MOL         0.0941
      9 CAP       -22.5020   -7.1910  -20.2620 C.3       1 MOL         0.1104
     10 OAD       -21.5260   -7.8110  -19.4590 O.3       1 MOL        -0.3763
     11 CAS       -23.1000   -5.9880  -19.4810 C.ar      1 MOL         0.0021
     12 CAQ       -22.5580   -4.7270  -19.6920 C.ar      1 MOL         0.0456
     13 CLA       -21.2510   -4.5130  -20.8480 Cl        1 MOL        -0.0770
     14 CAJ       -23.0050   -3.6340  -19.0330 C.ar      1 MOL        -0.0297
     15 CAR       -24.0220   -3.7940  -18.1190 C.ar      1 MOL         0.0814
     16 SAU       -24.5520   -2.2950  -17.2610 S.o2      1 MOL        -0.0088
     17 OAE       -25.7590   -2.5110  -16.4690 O.2       1 MOL        -0.1705
     18 OAF       -23.6080   -1.8790  -16.2180 O.2       1 MOL        -0.1705
     19 CAA       -24.7550   -0.9700  -18.4780 C.3       1 MOL         0.0587
     20 CAH       -24.5930   -5.0410  -17.8870 C.ar      1 MOL        -0.0435
     21 CAI       -24.1310   -6.1470  -18.5810 C.ar      1 MOL        -0.0553
     22 H1        -21.3478   -9.4604  -19.7022 H         1 MOL         0.2100
     23 H2        -23.3225  -10.3940  -20.5046 H         1 MOL         0.0624
     24 H3        -22.3360  -10.8103  -22.6714 H         1 MOL         0.0293
     25 H4        -22.2830   -9.0439  -22.9934 H         1 MOL         0.0293
     26 H5        -24.8122  -10.6144  -22.4481 H         1 MOL         0.0291
     27 H6        -24.1685  -10.2397  -24.0827 H         1 MOL         0.0291
     28 H7        -25.9225   -8.6550  -22.8966 H         1 MOL         0.0494
     29 H8        -24.5846   -8.0004  -23.9007 H         1 MOL         0.0494
     30 H9        -24.1521   -8.4693  -19.7904 H         1 MOL         0.0604
     31 H10       -22.0326   -6.8039  -21.1784 H         1 MOL         0.0789
     32 H11       -21.1039   -8.5036  -19.9536 H         1 MOL         0.2133
     33 H12       -22.5737   -2.6572  -19.2196 H         1 MOL         0.0624
     34 H13       -25.0779   -0.0503  -17.9682 H         1 MOL         0.0467
     35 H14       -25.5137   -1.2648  -19.2179 H         1 MOL         0.0467
     36 H15       -23.7968   -0.7898  -18.9872 H         1 MOL         0.0467
     37 H16       -25.3959   -5.1467  -17.1664 H         1 MOL         0.0620
     38 H17       -24.5739   -7.1230  -18.4185 H         1 MOL         0.0558
@<TRIPOS>BOND
     1    1    2 1  
     2    2    3 1  
     3    2    8 1  
     4    3    4 1  
     5    4    5 1  
     6    5    6 1  
     7    6    7 2  
     8    6    8 1  
     9    8    9 1  
    10    9   10 1  
    11    9   11 1  
    12   11   12 ar 
    13   11   21 ar 
    14   12   13 1  
    15   12   14 ar 
    16   14   15 ar 
    17   15   16 1  
    18   15   20 ar 
    19   16   17 2  
    20   16   18 2  
    21   16   19 1  
    22   20   21 ar 
    23    1   22 1  
    24    2   23 1  
    25    3   24 1  
    26    3   25 1  
    27    4   26 1  
    28    4   27 1  
    29    5   28 1  
    30    5   29 1  
    31    8   30 1  
    32    9   31 1  
    33   10   32 1  
    34   14   33 1  
    35   19   34 1  
    36   19   35 1  
    37   19   36 1  
    38   20   37 1  
    39   21   38 1  
@<TRIPOS>SUBSTRUCTURE
     1 MOL         1

