### 
### Created by X-TOOL on Mon Aug  2 16:14:23 2021
### 

@<TRIPOS>MOLECULE
6itj_ligand
   46    50     1     0     0
SMALL
GAST_HUCK


@<TRIPOS>ATOM
      1 C10       405.7290    0.2230   83.5890 C.cat     1 AXU         0.2494
      2 N12       405.9710   -0.7050   84.5390 N.pl3     1 AXU        -0.1416
      3 C20       407.3280    5.4990   82.3870 C.ar      1 AXU        -0.0254
      4 C21       407.8240    6.6020   81.7170 C.ar      1 AXU        -0.0657
      5 C22       409.0290    6.5330   81.0300 C.ar      1 AXU        -0.0685
      6 C24       409.2680    4.2500   81.6760 C.ar      1 AXU        -0.0254
      7 C26       407.0180    2.6890   79.3600 C.3       1 AXU        -0.0401
      8 C28       403.8630    3.3750   78.4840 C.ar      1 AXU        -0.0683
      9 C01       401.8090    3.8970   77.0640 C.3       1 AXU        -0.0366
     10 C02       402.4850    3.6460   78.3950 C.ar      1 AXU        -0.0599
     11 C03       401.6790    3.6850   79.5300 C.ar      1 AXU        -0.0699
     12 C04       402.2450    3.4520   80.7760 C.ar      1 AXU        -0.0355
     13 C05       403.6280    3.1850   80.8720 C.ar      1 AXU         0.1155
     14 C07       405.6930    2.7130   81.6070 C.2       1 AXU         0.1502
     15 C08       406.6380    2.4430   82.5940 C.2       1 AXU         0.1395
     16 C09       406.5810    1.3410   83.4700 C.2       1 AXU         0.0678
     17 C14       407.8630    0.4790   85.3000 C.2       1 AXU         0.2497
     18 C16       407.6490    1.4640   84.3170 C.2       1 AXU         0.1156
     19 C19       408.0660    4.3290   82.3680 C.ar      1 AXU         0.1118
     20 C23       409.7600    5.3510   81.0040 C.ar      1 AXU        -0.0657
     21 C25       405.7720    2.8340   80.2150 C.2       1 AXU        -0.0168
     22 C27       404.4490    3.1370   79.7610 C.ar      1 AXU        -0.0054
     23 N11       404.6370    0.0730   82.7000 N.pl3     1 AXU        -0.2739
     24 N13       407.0310   -0.5790   85.3710 N.am      1 AXU        -0.1205
     25 N17       408.3110    2.6140   83.9940 N.2       1 AXU        -0.1831
     26 N18       407.6660    3.2100   82.9740 N.pl3     1 AXU        -0.1530
     27 O06       404.4020    2.9190   81.9720 O.3       1 AXU        -0.2620
     28 O15       408.8210    0.5830   86.0490 O.2       1 AXU        -0.3810
     29 H1        405.3432   -1.5163   84.6315 H         1 AXU         0.3579
     30 H2        406.3827    5.5498   82.9150 H         1 AXU         0.0587
     31 H3        407.2660    7.5313   81.7280 H         1 AXU         0.0600
     32 H4        409.4024    7.4078   80.5100 H         1 AXU         0.0559
     33 H5        409.8226    3.3187   81.6636 H         1 AXU         0.0587
     34 H6        407.8787    2.4538   80.0033 H         1 AXU         0.0348
     35 H7        407.2070    3.6311   78.8246 H         1 AXU         0.0348
     36 H8        406.8712    1.8770   78.6326 H         1 AXU         0.0348
     37 H9        404.4736    3.3475   77.5887 H         1 AXU         0.0483
     38 H10       400.7377    4.0864   77.2268 H         1 AXU         0.0371
     39 H11       401.9314    3.0148   76.4184 H         1 AXU         0.0371
     40 H12       402.2666    4.7722   76.5796 H         1 AXU         0.0371
     41 H13       400.6193    3.8954   79.4413 H         1 AXU         0.0508
     42 H14       401.6299    3.4749   81.6683 H         1 AXU         0.0548
     43 H15       410.6993    5.2948   80.4659 H         1 AXU         0.0600
     44 H16       404.4592    0.7856   81.9779 H         1 AXU         0.3178
     45 H17       404.0206   -0.7487   82.7755 H         1 AXU         0.3178
     46 H18       407.2011   -1.2882   86.0552 H         1 AXU         0.2419
@<TRIPOS>BOND
     1    1    2 ar 
     2   16    1 1  
     3    1   23 ar 
     4    2   24 1  
     5    3    4 ar 
     6   19    3 ar 
     7    4    5 ar 
     8   20    5 ar 
     9   19    6 ar 
    10    6   20 ar 
    11   21    7 1  
    12    8   10 ar 
    13   22    8 ar 
    14   10    9 1  
    15   11   10 ar 
    16   12   11 ar 
    17   13   12 ar 
    18   13   22 ar 
    19   27   13 1  
    20   15   14 1  
    21   14   21 2  
    22   14   27 1  
    23   15   16 2  
    24   26   15 1  
    25   16   18 1  
    26   18   17 1  
    27   17   24 am 
    28   17   28 2  
    29   18   25 2  
    30   19   26 1  
    31   21   22 1  
    32   25   26 1  
    33    2   29 1  
    34    3   30 1  
    35    4   31 1  
    36    5   32 1  
    37    6   33 1  
    38    7   34 1  
    39    7   35 1  
    40    7   36 1  
    41    8   37 1  
    42    9   38 1  
    43    9   39 1  
    44    9   40 1  
    45   11   41 1  
    46   12   42 1  
    47   20   43 1  
    48   23   44 1  
    49   23   45 1  
    50   24   46 1  
@<TRIPOS>SUBSTRUCTURE
     1 AXU         1

