### 
### Created by X-TOOL on Mon Aug  2 16:14:23 2021
### 

@<TRIPOS>MOLECULE
6itp_ligand
   58    61     1     0     0
SMALL
GAST_HUCK


@<TRIPOS>ATOM
      1 C1          6.1070   -9.6990   19.6160 C.3       1 HCY        -0.0310
      2 C2          5.7800   -8.6050   20.6840 C.3       1 HCY         0.0216
      3 C3          4.9650   -7.4380   20.0710 C.2       1 HCY         0.1053
      4 C4          3.9650   -7.7470   18.9780 C.3       1 HCY         0.0244
      5 C5          3.8080   -9.1740   18.5930 C.3       1 HCY        -0.0193
      6 C6          2.5700   -9.6330   17.7670 C.3       1 HCY        -0.0473
      7 C7          2.9820  -10.4310   16.4550 C.3       1 HCY        -0.0492
      8 C8          4.0260  -11.4980   16.7330 C.3       1 HCY        -0.0321
      9 C9          5.2810  -10.9310   17.6100 C.3       1 HCY        -0.0059
     10 C10         4.8610  -10.2550   18.9400 C.3       1 HCY        -0.0196
     11 C12         6.8560  -12.5280   16.3010 C.3       1 HCY        -0.0193
     12 C11         6.3970  -11.8880   17.7580 C.3       1 HCY         0.0593
     13 C13         5.6930  -13.0580   15.5120 C.3       1 HCY         0.0075
     14 C14         4.5360  -12.0300   15.4160 C.3       1 HCY        -0.0309
     15 C15         3.4760  -12.6340   14.3880 C.3       1 HCY        -0.0480
     16 C16         4.3450  -13.4050   13.3120 C.3       1 HCY        -0.0179
     17 C17         5.8920  -13.4140   13.9190 C.3       1 HCY         0.1362
     18 C18         5.1700  -14.3530   16.1870 C.3       1 HCY        -0.0576
     19 C19         4.1660  -11.2130   19.8980 C.3       1 HCY        -0.0587
     20 C20         6.5830  -14.5630   13.6890 C.2       1 HCY         0.1839
     21 C21         8.1260  -14.5250   13.7610 C.3       1 HCY         0.1213
     22 O1          5.0710   -6.2950   20.4130 O.2       1 HCY        -0.3916
     23 O2          6.1220  -12.9230   18.6150 O.3       1 HCY        -0.3915
     24 O3          6.5900  -12.2590   13.4440 O.3       1 HCY        -0.3852
     25 O4          6.0570  -15.5940   13.4210 O.2       1 HCY        -0.3272
     26 O5          8.6610  -15.8030   13.4980 O.3       1 HCY        -0.3762
     27 H1          6.6369  -10.5261   20.1110 H         1 HCY         0.0296
     28 H2          6.7562   -9.2559   18.8464 H         1 HCY         0.0296
     29 H3          6.7225   -8.2084   21.0895 H         1 HCY         0.0494
     30 H4          5.1949   -9.0617   21.4959 H         1 HCY         0.0494
     31 H5          4.2732   -7.1925   18.0794 H         1 HCY         0.0497
     32 H6          2.9827   -7.3837   19.3141 H         1 HCY         0.0497
     33 H7          3.2782   -9.3698   19.5369 H         1 HCY         0.0331
     34 H8          1.9914   -8.7447   17.4736 H         1 HCY         0.0270
     35 H9          1.9467  -10.2851   18.3965 H         1 HCY         0.0270
     36 H10         3.3899   -9.7197   15.7218 H         1 HCY         0.0268
     37 H11         2.0856  -10.9134   16.0383 H         1 HCY         0.0268
     38 H12         3.5505  -12.3160   17.2941 H         1 HCY         0.0307
     39 H13         5.6961  -10.1138   17.0018 H         1 HCY         0.0334
     40 H14         7.5620  -13.3514   16.4844 H         1 HCY         0.0295
     41 H15         7.3530  -11.7431   15.7121 H         1 HCY         0.0295
     42 H16         7.2499  -11.3287   18.1700 H         1 HCY         0.0596
     43 H17         4.9567  -11.1434   14.9191 H         1 HCY         0.0308
     44 H18         2.8962  -11.8292   13.9125 H         1 HCY         0.0267
     45 H19         2.7912  -13.3259   14.9001 H         1 HCY         0.0267
     46 H20         4.3140  -12.8813   12.3452 H         1 HCY         0.0278
     47 H21         3.9758  -14.4332   13.1841 H         1 HCY         0.0278
     48 H22         5.0182  -14.1710   17.2612 H         1 HCY         0.0234
     49 H23         5.9057  -15.1596   16.0522 H         1 HCY         0.0234
     50 H24         4.2152  -14.6467   15.7264 H         1 HCY         0.0234
     51 H25         3.8936  -10.6770   20.8191 H         1 HCY         0.0235
     52 H26         4.8451  -12.0427   20.1439 H         1 HCY         0.0235
     53 H27         3.2572  -11.6114   19.4232 H         1 HCY         0.0235
     54 H28         8.4343  -14.2028   14.7665 H         1 HCY         0.0785
     55 H29         8.5064  -13.8121   13.0147 H         1 HCY         0.0785
     56 H30         6.8996  -13.4577   18.7238 H         1 HCY         0.2098
     57 H31         6.6192  -12.2762   12.4946 H         1 HCY         0.2077
     58 H32         8.3354  -16.4202   14.1427 H         1 HCY         0.2129
@<TRIPOS>BOND
     1    1    2 1  
     2    1   10 1  
     3    2    3 1  
     4    3    4 1  
     5    3   22 2  
     6    4    5 1  
     7    5    6 1  
     8    5   10 1  
     9    6    7 1  
    10    7    8 1  
    11    8    9 1  
    12    8   14 1  
    13    9   10 1  
    14    9   12 1  
    15   10   19 1  
    16   12   11 1  
    17   11   13 1  
    18   12   23 1  
    19   13   14 1  
    20   13   17 1  
    21   13   18 1  
    22   14   15 1  
    23   15   16 1  
    24   16   17 1  
    25   17   20 1  
    26   17   24 1  
    27   20   21 1  
    28   20   25 2  
    29   21   26 1  
    30    1   27 1  
    31    1   28 1  
    32    2   29 1  
    33    2   30 1  
    34    4   31 1  
    35    4   32 1  
    36    5   33 1  
    37    6   34 1  
    38    6   35 1  
    39    7   36 1  
    40    7   37 1  
    41    8   38 1  
    42    9   39 1  
    43   11   40 1  
    44   11   41 1  
    45   12   42 1  
    46   14   43 1  
    47   15   44 1  
    48   15   45 1  
    49   16   46 1  
    50   16   47 1  
    51   18   48 1  
    52   18   49 1  
    53   18   50 1  
    54   19   51 1  
    55   19   52 1  
    56   19   53 1  
    57   21   54 1  
    58   21   55 1  
    59   23   56 1  
    60   24   57 1  
    61   26   58 1  
@<TRIPOS>SUBSTRUCTURE
     1 HCY         1

