### 
### Created by X-TOOL on Mon Aug  2 16:14:23 2021
### 

@<TRIPOS>MOLECULE
6itq_ligand
   58    61     1     0     0
SMALL
GAST_HUCK


@<TRIPOS>ATOM
      1 C1         14.7790    1.4360   14.4920 C.3       1 HCY        -0.0310
      2 C2         13.2950    1.6700   14.0340 C.3       1 HCY         0.0216
      3 C3         12.3690    2.0480   15.2120 C.2       1 HCY         0.1053
      4 C4         12.9950    2.8130   16.3890 C.3       1 HCY         0.0244
      5 C5         14.4110    3.3070   16.1960 C.3       1 HCY        -0.0193
      6 C6         15.0390    4.4690   17.0800 C.3       1 HCY        -0.0473
      7 C7         16.4510    4.0150   17.7230 C.3       1 HCY        -0.0492
      8 C8         17.4320    3.3280   16.7730 C.3       1 HCY        -0.0321
      9 C9         16.6680    2.1450   15.9380 C.3       1 HCY        -0.0059
     10 C10        15.4020    2.6420   15.1810 C.3       1 HCY        -0.0196
     11 C12        18.9320    0.7920   15.9420 C.3       1 HCY        -0.0193
     12 C11        17.5880    1.3010   15.1070 C.3       1 HCY         0.0593
     13 C13        19.5500    1.8520   16.8060 C.3       1 HCY         0.0075
     14 C14        18.5400    2.7080   17.6060 C.3       1 HCY        -0.0309
     15 C15        19.4460    3.6010   18.6010 C.3       1 HCY        -0.0480
     16 C16        20.7220    2.7340   18.9540 C.3       1 HCY        -0.0179
     17 C17        20.5900    1.3640   17.9910 C.3       1 HCY         0.1362
     18 C18        20.3080    2.8500   15.8610 C.3       1 HCY        -0.0576
     19 C19        15.7360    3.7150   14.1170 C.3       1 HCY        -0.0587
     20 C20        21.7590    0.8920   17.5180 C.2       1 HCY         0.1839
     21 C21        21.8910   -0.6220   17.2080 C.3       1 HCY         0.1213
     22 O1         11.2050    1.7900   15.2190 O.2       1 HCY        -0.3916
     23 O2         18.0710    1.9150   13.9940 O.3       1 HCY        -0.3915
     24 O3         19.9330    0.3330   18.7480 O.3       1 HCY        -0.3852
     25 O4         22.6930    1.5850   17.3460 O.2       1 HCY        -0.3272
     26 O5         23.2420   -0.9580   17.0070 O.3       1 HCY        -0.3762
     27 H1         15.3823    1.1923   13.6051 H         1 HCY         0.0296
     28 H2         14.7971    0.5878   15.1922 H         1 HCY         0.0296
     29 H3         12.9182    0.7463   13.5706 H         1 HCY         0.0494
     30 H4         13.2774    2.4846   13.2951 H         1 HCY         0.0494
     31 H5         12.9905    2.1443   17.2624 H         1 HCY         0.0497
     32 H6         12.3608    3.6881   16.5939 H         1 HCY         0.0497
     33 H7         14.0629    4.0248   15.4387 H         1 HCY         0.0331
     34 H8         14.3398    4.7210   17.8909 H         1 HCY         0.0270
     35 H9         15.2008    5.3540   16.4471 H         1 HCY         0.0270
     36 H10        16.2368    3.3181   18.5466 H         1 HCY         0.0268
     37 H11        16.9433    4.9141   18.1221 H         1 HCY         0.0268
     38 H12        17.8527    4.0644   16.0725 H         1 HCY         0.0307
     39 H13        16.2827    1.4609   16.7084 H         1 HCY         0.0334
     40 H14        19.6852    0.4563   15.2140 H         1 HCY         0.0295
     41 H15        18.6412   -0.0521   16.5845 H         1 HCY         0.0295
     42 H16        17.0130    0.4175   14.7927 H         1 HCY         0.0596
     43 H17        17.9984    2.0122   18.2637 H         1 HCY         0.0308
     44 H18        18.8835    3.8379   19.5161 H         1 HCY         0.0267
     45 H19        19.7477    4.5347   18.1039 H         1 HCY         0.0267
     46 H20        20.7218    2.4602   20.0194 H         1 HCY         0.0278
     47 H21        21.6433    3.2864   18.7176 H         1 HCY         0.0278
     48 H22        19.6295    3.1867   15.0634 H         1 HCY         0.0234
     49 H23        21.1765    2.3440   15.4142 H         1 HCY         0.0234
     50 H24        20.6492    3.7188   16.4431 H         1 HCY         0.0234
     51 H25        14.8111    4.0316   13.6127 H         1 HCY         0.0235
     52 H26        16.4314    3.2931   13.3764 H         1 HCY         0.0235
     53 H27        16.2028    4.5830   14.6055 H         1 HCY         0.0235
     54 H28        21.3182   -0.8587   16.2993 H         1 HCY         0.0785
     55 H29        21.4936   -1.2026   18.0536 H         1 HCY         0.0785
     56 H30        18.5826    1.2946   13.4882 H         1 HCY         0.2098
     57 H31        20.4452    0.1359   19.5234 H         1 HCY         0.2077
     58 H32        23.5861   -0.4583   16.2760 H         1 HCY         0.2129
@<TRIPOS>BOND
     1    1    2 1  
     2    1   10 1  
     3    2    3 1  
     4    3    4 1  
     5    3   22 2  
     6    4    5 1  
     7    5    6 1  
     8    5   10 1  
     9    6    7 1  
    10    7    8 1  
    11    8    9 1  
    12    8   14 1  
    13    9   10 1  
    14    9   12 1  
    15   10   19 1  
    16   12   11 1  
    17   11   13 1  
    18   12   23 1  
    19   13   14 1  
    20   13   17 1  
    21   13   18 1  
    22   14   15 1  
    23   15   16 1  
    24   16   17 1  
    25   17   20 1  
    26   17   24 1  
    27   20   21 1  
    28   20   25 2  
    29   21   26 1  
    30    1   27 1  
    31    1   28 1  
    32    2   29 1  
    33    2   30 1  
    34    4   31 1  
    35    4   32 1  
    36    5   33 1  
    37    6   34 1  
    38    6   35 1  
    39    7   36 1  
    40    7   37 1  
    41    8   38 1  
    42    9   39 1  
    43   11   40 1  
    44   11   41 1  
    45   12   42 1  
    46   14   43 1  
    47   15   44 1  
    48   15   45 1  
    49   16   46 1  
    50   16   47 1  
    51   18   48 1  
    52   18   49 1  
    53   18   50 1  
    54   19   51 1  
    55   19   52 1  
    56   19   53 1  
    57   21   54 1  
    58   21   55 1  
    59   23   56 1  
    60   24   57 1  
    61   26   58 1  
@<TRIPOS>SUBSTRUCTURE
     1 HCY         1

