### 
### Created by X-TOOL on Mon Aug  2 16:10:15 2021
### 

@<TRIPOS>MOLECULE
6iuo_ligand
   59    63     1     0     0
SMALL
GAST_HUCK


@<TRIPOS>ATOM
      1 C1        -27.6680   -1.0870   21.4870 C.3       1 AWX        -0.0482
      2 C2        -27.5570   -2.0970   20.3740 C.3       1 AWX         0.0345
      3 C3        -26.7270   -1.5180   19.2450 C.2       1 AWX         0.1774
      4 O4        -25.5140   -1.3840   19.3900 O.2       1 AWX        -0.3969
      5 N5        -27.3920   -1.1610   18.1400 N.am      1 AWX        -0.2765
      6 C6        -26.7220   -0.6070   16.9690 C.3       1 AWX         0.0617
      7 C7        -26.5760    0.9120   16.9930 C.ar      1 AWX        -0.0270
      8 C8        -26.5990    1.6600   18.1730 C.ar      1 AWX        -0.0616
      9 C9        -26.4720    3.0230   18.1430 C.ar      1 AWX        -0.0314
     10 C10       -26.2730    3.7200   16.9830 C.ar      1 AWX         0.1056
     11 C11       -26.2490    2.9670   15.7950 C.ar      1 AWX        -0.0314
     12 C12       -26.4030    1.5830   15.7790 C.ar      1 AWX        -0.0616
     13 N13       -26.1710    5.0350   16.8550 N.pl3     1 AWX        -0.1567
     14 C14       -25.0660    5.7550   16.8090 C.2       1 AWX         0.1380
     15 C15       -25.3840    7.1260   16.5280 C.2       1 AWX         0.0670
     16 C16       -26.8280    7.0410   16.3120 C.2       1 AWX         0.1149
     17 N17       -27.2810    5.7900   16.4470 N.2       1 AWX        -0.1846
     18 C18       -27.4480    8.2800   15.9920 C.2       1 AWX         0.2493
     19 N19       -26.7730    9.4190   15.8730 N.am      1 AWX        -0.1206
     20 N20       -25.3830    9.5220   16.0630 N.pl3     1 AWX        -0.1417
     21 C21       -24.7290    8.4020   16.3920 C.cat     1 AWX         0.2492
     22 O22       -28.6270    8.2380   15.7700 O.2       1 AWX        -0.3812
     23 N23       -23.3360    8.4710   16.5680 N.pl3     1 AWX        -0.2739
     24 C24       -23.7330    5.3420   17.1670 C.2       1 AWX         0.1498
     25 C25       -22.7440    4.6400   16.3140 C.2       1 AWX        -0.0171
     26 C26       -21.5690    4.4790   17.2270 C.ar      1 AWX        -0.0056
     27 C27       -22.0430    5.1480   18.4690 C.ar      1 AWX         0.1154
     28 O28       -23.2850    5.6430   18.4090 O.3       1 AWX        -0.2621
     29 C29       -22.7490    4.1400   14.9050 C.3       1 AWX        -0.0402
     30 C30       -20.2880    3.9400   17.1750 C.ar      1 AWX        -0.0684
     31 C31       -19.4960    4.0470   18.3250 C.ar      1 AWX        -0.0599
     32 C32       -19.9470    4.6520   19.4830 C.ar      1 AWX        -0.0700
     33 C33       -21.2070    5.2040   19.5630 C.ar      1 AWX        -0.0356
     34 C34       -18.1150    3.5020   18.3720 C.3       1 AWX        -0.0366
     35 H1        -28.2703   -1.5081   22.3055 H         1 AWX         0.0254
     36 H2        -28.1517   -0.1749   21.1076 H         1 AWX         0.0254
     37 H3        -26.6630   -0.8409   21.8604 H         1 AWX         0.0254
     38 H4        -28.5621   -2.3430   20.0009 H         1 AWX         0.0500
     39 H5        -27.0734   -3.0091   20.7538 H         1 AWX         0.0500
     40 H6        -28.3848   -1.2784   18.1163 H         1 AWX         0.1876
     41 H7        -27.3020   -0.8838   16.0763 H         1 AWX         0.0672
     42 H8        -25.7169   -1.0493   16.9050 H         1 AWX         0.0672
     43 H9        -26.7189    1.1547   19.1245 H         1 AWX         0.0543
     44 H10       -26.5316    3.5717   19.0760 H         1 AWX         0.0572
     45 H11       -26.1048    3.4851   14.8538 H         1 AWX         0.0572
     46 H12       -26.3890    1.0365   14.8430 H         1 AWX         0.0543
     47 H13       -27.2807   10.2472   15.6356 H         1 AWX         0.2419
     48 H14       -24.8904   10.4199   15.9537 H         1 AWX         0.3579
     49 H15       -22.8064    7.6247   16.8214 H         1 AWX         0.3178
     50 H16       -22.8450    9.3678   16.4435 H         1 AWX         0.3178
     51 H17       -23.7165    4.3735   14.4365 H         1 AWX         0.0348
     52 H18       -22.5934    3.0511   14.9018 H         1 AWX         0.0348
     53 H19       -21.9409    4.6276   14.3400 H         1 AWX         0.0348
     54 H20       -19.9169    3.4558   16.2790 H         1 AWX         0.0483
     55 H21       -19.2947    4.6932   20.3478 H         1 AWX         0.0507
     56 H22       -21.5381    5.6787   20.4796 H         1 AWX         0.0548
     57 H23       -17.8669    3.0478   17.4014 H         1 AWX         0.0371
     58 H24       -18.0486    2.7390   19.1615 H         1 AWX         0.0371
     59 H25       -17.4068    4.3156   18.5878 H         1 AWX         0.0371
@<TRIPOS>BOND
     1    1    2 1  
     2    2    3 1  
     3    3    4 2  
     4    3    5 am 
     5    5    6 1  
     6    6    7 1  
     7    7    8 ar 
     8    7   12 ar 
     9    8    9 ar 
    10    9   10 ar 
    11   10   11 ar 
    12   10   13 1  
    13   11   12 ar 
    14   13   14 1  
    15   13   17 1  
    16   14   15 2  
    17   14   24 1  
    18   15   16 1  
    19   15   21 1  
    20   16   17 2  
    21   16   18 1  
    22   18   19 am 
    23   18   22 2  
    24   19   20 1  
    25   20   21 ar 
    26   21   23 ar 
    27   24   25 2  
    28   24   28 1  
    29   25   26 1  
    30   25   29 1  
    31   26   27 ar 
    32   26   30 ar 
    33   27   28 1  
    34   27   33 ar 
    35   30   31 ar 
    36   31   32 ar 
    37   31   34 1  
    38   32   33 ar 
    39    1   35 1  
    40    1   36 1  
    41    1   37 1  
    42    2   38 1  
    43    2   39 1  
    44    5   40 1  
    45    6   41 1  
    46    6   42 1  
    47    8   43 1  
    48    9   44 1  
    49   11   45 1  
    50   12   46 1  
    51   19   47 1  
    52   20   48 1  
    53   23   49 1  
    54   23   50 1  
    55   29   51 1  
    56   29   52 1  
    57   29   53 1  
    58   30   54 1  
    59   32   55 1  
    60   33   56 1  
    61   34   57 1  
    62   34   58 1  
    63   34   59 1  
@<TRIPOS>SUBSTRUCTURE
     1 AWX         1

