### 
### Created by X-TOOL on Mon Aug  2 16:14:23 2021
### 

@<TRIPOS>MOLECULE
6iup_ligand
   54    58     1     0     0
SMALL
GAST_HUCK


@<TRIPOS>ATOM
      1 C13        33.5200    2.0160  144.5130 C.2       1 AX0         0.2488
      2 C17        36.0750    1.2440  143.7690 C.cat     1 AX0         0.2489
      3 C20        34.7740   -0.5420  142.2700 C.2       1 AX0         0.1362
      4 C21        35.8440   -1.2580  141.6690 C.2       1 AX0         0.1491
      5 C24        38.7710   -3.4440  141.8960 C.ar      1 AX0        -0.0357
      6 C26        39.3470   -3.5420  139.5280 C.ar      1 AX0        -0.0600
      7 C28        38.2720   -2.7210  139.2220 C.ar      1 AX0        -0.0685
      8 C01        29.5420   -7.6140  137.5730 C.2       1 AX0        -0.0783
      9 C02        29.7100   -6.2940  137.5310 C.2       1 AX0         0.0140
     10 C03        30.6750   -5.6090  138.4550 C.2       1 AX0         0.2214
     11 C06        31.2480   -3.3620  139.7790 C.ar      1 AX0         0.0607
     12 C07        32.2330   -3.8940  140.6400 C.ar      1 AX0        -0.0434
     13 C08        32.9870   -3.0620  141.4360 C.ar      1 AX0        -0.0373
     14 C09        32.7670   -1.6780  141.3720 C.ar      1 AX0         0.0983
     15 C12        33.6900    0.9500  143.5980 C.2       1 AX0         0.1137
     16 C19        34.9300    0.5420  143.2160 C.2       1 AX0         0.0660
     17 C23        37.6830   -2.5910  141.5910 C.ar      1 AX0         0.1153
     18 C25        39.6100   -3.9060  140.8510 C.ar      1 AX0        -0.0701
     19 C27        40.2350   -4.0520  138.4690 C.3       1 AX0        -0.0366
     20 C29        37.4150   -2.2260  140.3010 C.ar      1 AX0        -0.0059
     21 C30        36.2270   -1.3730  140.3330 C.2       1 AX0        -0.0175
     22 C31        35.5750   -0.7460  139.1360 C.3       1 AX0        -0.0404
     23 C32        31.7880   -1.1460  140.5300 C.ar      1 AX0        -0.0373
     24 C33        31.0470   -1.9770  139.7350 C.ar      1 AX0        -0.0434
     25 N05        30.3990   -4.1990  138.8800 N.am      1 AX0        -0.2375
     26 N10        33.4450   -0.7610  142.1500 N.pl3     1 AX0        -0.1612
     27 N11        32.7740    0.1310  142.9350 N.2       1 AX0        -0.1865
     28 N15        34.6290    2.6530  145.0170 N.am      1 AX0        -0.1207
     29 N16        35.8920    2.2490  144.6280 N.pl3     1 AX0        -0.1417
     30 N18        37.4030    0.8490  143.3730 N.pl3     1 AX0        -0.2739
     31 O04        31.6300   -6.2020  138.8510 O.2       1 AX0        -0.3769
     32 O14        32.3940    2.3790  144.8430 O.2       1 AX0        -0.3815
     33 O22        36.7170   -2.0010  142.4080 O.3       1 AX0        -0.2623
     34 H1         38.9610   -3.7416  142.9209 H         1 AX0         0.0547
     35 H2         38.0680   -2.4481  138.1929 H         1 AX0         0.0482
     36 H3         28.8379   -8.0951  136.8957 H         1 AX0         0.0685
     37 H4         30.1086   -8.2126  138.2847 H         1 AX0         0.0685
     38 H5         29.1394   -5.7027  136.8163 H         1 AX0         0.0697
     39 H6         32.3963   -4.9651  140.6742 H         1 AX0         0.0493
     40 H7         33.7390   -3.4697  142.1019 H         1 AX0         0.0555
     41 H8         40.4571   -4.5428  141.0788 H         1 AX0         0.0507
     42 H9         39.8945   -3.6766  137.4927 H         1 AX0         0.0371
     43 H10        40.2103   -5.1517  138.4678 H         1 AX0         0.0371
     44 H11        41.2632   -3.7085  138.6556 H         1 AX0         0.0371
     45 H12        34.7027   -0.1589  139.4591 H         1 AX0         0.0347
     46 H13        35.2495   -1.5340  138.4409 H         1 AX0         0.0347
     47 H14        36.2947   -0.0854  138.6304 H         1 AX0         0.0347
     48 H15        31.6155   -0.0761  140.5064 H         1 AX0         0.0555
     49 H16        30.3007   -1.5612  139.0678 H         1 AX0         0.0493
     50 H17        29.5640   -3.7770  138.5268 H         1 AX0         0.2235
     51 H18        34.5219    3.4077  145.6643 H         1 AX0         0.2419
     52 H19        36.7143    2.7366  145.0113 H         1 AX0         0.3579
     53 H20        37.5328    0.0720  142.7094 H         1 AX0         0.3178
     54 H21        38.2224    1.3436  143.7535 H         1 AX0         0.3178
@<TRIPOS>BOND
     1   15    1 1  
     2    1   28 am 
     3    1   32 2  
     4   16    2 1  
     5    2   29 ar 
     6    2   30 ar 
     7    4    3 1  
     8    3   16 2  
     9    3   26 1  
    10    4   21 2  
    11   33    4 1  
    12   17    5 ar 
    13    5   18 ar 
    14    7    6 ar 
    15   18    6 ar 
    16    6   19 1  
    17   20    7 ar 
    18    9    8 2  
    19   10    9 1  
    20   25   10 am 
    21   10   31 2  
    22   12   11 ar 
    23   11   24 ar 
    24   11   25 1  
    25   13   12 ar 
    26   14   13 ar 
    27   14   23 ar 
    28   26   14 1  
    29   16   15 1  
    30   15   27 2  
    31   17   20 ar 
    32   17   33 1  
    33   20   21 1  
    34   21   22 1  
    35   23   24 ar 
    36   26   27 1  
    37   28   29 1  
    38    5   34 1  
    39    7   35 1  
    40    8   36 1  
    41    8   37 1  
    42    9   38 1  
    43   12   39 1  
    44   13   40 1  
    45   18   41 1  
    46   19   42 1  
    47   19   43 1  
    48   19   44 1  
    49   22   45 1  
    50   22   46 1  
    51   22   47 1  
    52   23   48 1  
    53   24   49 1  
    54   25   50 1  
    55   28   51 1  
    56   29   52 1  
    57   30   53 1  
    58   30   54 1  
@<TRIPOS>SUBSTRUCTURE
     1 AX0         1

