### 
### Created by X-TOOL on Mon Aug  2 16:14:23 2021
### 

@<TRIPOS>MOLECULE
6ixd_ligand
  117   123     1     0     0
SMALL
GAST_HUCK


@<TRIPOS>ATOM
      1 C14         8.2120   14.7490   18.3970 C.2       1 B0F         0.2006
      2 O61         8.6390   14.8780   17.2760 O.2       1 B0F        -0.3863
      3 C13         7.0120   13.7850   18.6780 C.3       1 B0F         0.0426
      4 C12         6.0700   13.7650   17.4650 C.3       1 B0F        -0.0356
      5 C11         4.6440   14.1730   17.8870 C.3       1 B0F        -0.0499
      6 C10         4.0400   15.0850   16.8240 C.3       1 B0F        -0.0388
      7 C02         2.8930   15.9800   17.4640 C.3       1 B0F         0.0302
      8 S01         1.4390   15.2440   17.2650 S.3       1 B0F        -0.1527
      9 C09         0.5150   16.3360   16.4170 C.3       1 B0F         0.0190
     10 C04         1.4510   17.5920   16.1430 C.3       1 B0F         0.0750
     11 N05         1.5990   17.7700   14.8150 N.am      1 B0F        -0.2671
     12 C06         3.0650   17.6610   14.5020 C.2       1 B0F         0.2580
     13 O08         3.5720   17.7670   13.4080 O.2       1 B0F        -0.4008
     14 N07         3.7840   17.3970   15.7890 N.am      1 B0F        -0.2668
     15 C03         2.8570   17.3520   16.7730 C.3       1 B0F         0.0775
     16 C19        12.5370   17.8890   21.6600 C.3       1 B0F        -0.0378
     17 C18        11.6690   17.6390   20.4320 C.ar      1 B0F        -0.0356
     18 C17        10.7340   16.5870   20.4400 C.ar      1 B0F        -0.0548
     19 C16         9.8980   16.4000   19.3470 C.ar      1 B0F         0.0423
     20 C58        10.9520   18.2500   18.1640 C.ar      1 B0F        -0.0356
     21 N15         8.7820   15.4690   19.5050 N.am      1 B0F        -0.2430
     22 C60         9.9580   17.2320   18.2060 C.ar      1 B0F        -0.0548
     23 C59        11.0670   19.1640   16.9490 C.3       1 B0F        -0.0378
     24 C20        11.7770   18.4400   19.2770 C.ar      1 B0F         0.0814
     25 O21        12.7450   19.4760   19.2180 O.3       1 B0F        -0.3149
     26 C22        14.0060   18.9460   18.7900 C.3       1 B0F         0.1525
     27 C23        14.8720   20.1170   18.3460 C.2       1 B0F         0.2064
     28 O57        16.0840   19.9990   18.2850 O.2       1 B0F        -0.3942
     29 C34        16.3170   24.2300   18.6410 C.2       1 B0F         0.2129
     30 N24        14.1920   21.3100   17.9940 N.am      1 B0F        -0.2750
     31 O35        16.4280   25.2730   18.0230 O.2       1 B0F        -0.3938
     32 C33        15.0190   23.4140   18.7300 C.3       1 B0F         0.1683
     33 C27        14.1130   22.0320   15.2480 C.ar      1 B0F        -0.0406
     34 C26        14.2960   23.1060   16.3630 C.3       1 B0F         0.0086
     35 C30        13.7550   20.0380   13.2960 C.ar      1 B0F        -0.0687
     36 C25        14.9510   22.4540   17.5680 C.3       1 B0F         0.0945
     37 O56        13.9620   24.3120   18.7330 O.3       1 B0F        -0.3689
     38 C28        15.2270   21.5510   14.5140 C.ar      1 B0F        -0.0603
     39 C32        12.8400   21.5280   14.9870 C.ar      1 B0F        -0.0603
     40 C29        15.0320   20.5530   13.5440 C.ar      1 B0F        -0.0686
     41 C31        12.6430   20.5240   14.0030 C.ar      1 B0F        -0.0686
     42 C38        19.4010   24.4250   18.0390 C.2       1 B0F         0.2053
     43 N36        17.4520   23.6910   19.3330 N.am      1 B0F        -0.2383
     44 O50        19.4170   23.4720   17.2890 O.2       1 B0F        -0.3943
     45 C37        18.7770   24.5010   19.2960 C.3       1 B0F         0.1486
     46 C51        19.5150   23.8920   20.4870 C.3       1 B0F         0.0532
     47 C55        17.5790   22.4810   20.1720 C.3       1 B0F         0.0831
     48 C52        19.0040   24.6720   21.7650 C.3       1 B0F        -0.0463
     49 C53        21.0010   24.1530   20.3210 C.3       1 B0F        -0.0463
     50 S54        19.1450   22.2360   20.5670 S.3       1 B0F        -0.1252
     51 N39        20.0830   25.6500   17.7020 N.am      1 B0F        -0.2691
     52 O49        21.5020   27.8050   17.7740 O.3       1 B0F        -0.3857
     53 C40        20.9050   25.8000   16.5900 C.3       1 B0F         0.1007
     54 C41        20.3220   26.4410   15.4200 C.ar      1 B0F        -0.0133
     55 C46        19.0060   26.1050   14.7620 C.ar      1 B0F        -0.0646
     56 C45        18.6570   26.8260   13.5370 C.ar      1 B0F        -0.0754
     57 C48        21.9980   26.7950   16.9420 C.3       1 B0F         0.0951
     58 C42        21.2540   27.2520   14.8280 C.ar      1 B0F        -0.0361
     59 C43        20.9150   28.0240   13.5660 C.ar      1 B0F        -0.0667
     60 C44        19.6020   27.7720   12.9480 C.ar      1 B0F        -0.0755
     61 C47        22.5040   27.3760   15.6190 C.3       1 B0F         0.0085
     62 H1          6.4610   14.1352   19.5633 H         1 B0F         0.0507
     63 H2          7.3936   12.7698   18.8615 H         1 B0F         0.0507
     64 H3          6.0464   12.7504   17.0408 H         1 B0F         0.0290
     65 H4          6.4398   14.4710   16.7068 H         1 B0F         0.0290
     66 H5          4.6847   14.7069   18.8479 H         1 B0F         0.0267
     67 H6          4.0215   13.2724   17.9939 H         1 B0F         0.0267
     68 H7          3.6151   14.4713   16.0161 H         1 B0F         0.0277
     69 H8          4.8254   15.7374   16.4146 H         1 B0F         0.0277
     70 H9          3.0924   16.1148   18.5373 H         1 B0F         0.0435
     71 H10        -0.3613   16.6359   17.0105 H         1 B0F         0.0399
     72 H11         0.1806   15.8953   15.4663 H         1 B0F         0.0399
     73 H12         0.9961   18.4896   16.5873 H         1 B0F         0.0584
     74 H13         0.8660   17.9432   14.1571 H         1 B0F         0.1849
     75 H14         4.7704   17.2760   15.9006 H         1 B0F         0.1849
     76 H15         3.0678   18.1376   17.5135 H         1 B0F         0.0587
     77 H16        12.2900   17.1532   22.4395 H         1 B0F         0.0364
     78 H17        12.3497   18.9037   22.0411 H         1 B0F         0.0364
     79 H18        13.5976   17.7903   21.3856 H         1 B0F         0.0364
     80 H19        10.6667   15.9253   21.2960 H         1 B0F         0.0360
     81 H20         8.4000   15.3270   20.4182 H         1 B0F         0.2219
     82 H21         9.2645   17.0982   17.3836 H         1 B0F         0.0360
     83 H22        10.3380   18.8532   16.1861 H         1 B0F         0.0364
     84 H23        12.0834   19.0962   16.5340 H         1 B0F         0.0364
     85 H24        10.8624   20.2020   17.2503 H         1 B0F         0.0364
     86 H25        13.8553   18.2517   17.9503 H         1 B0F         0.0847
     87 H26        14.4914   18.4151   19.6222 H         1 B0F         0.0847
     88 H27        13.1942   21.3553   18.0416 H         1 B0F         0.1859
     89 H28        15.0057   22.8377   19.6669 H         1 B0F         0.0863
     90 H29        13.3147   23.5117   16.6501 H         1 B0F         0.0451
     91 H30        14.9348   23.9204   15.9906 H         1 B0F         0.0451
     92 H31        13.6230   19.2592   12.5537 H         1 B0F         0.0559
     93 H32        15.9685   22.1391   17.2931 H         1 B0F         0.0630
     94 H33        14.0451   24.8947   19.4787 H         1 B0F         0.2134
     95 H34        16.2182   21.9488   14.6992 H         1 B0F         0.0557
     96 H35        11.9899   21.9074   15.5423 H         1 B0F         0.0557
     97 H36        15.8799   20.1783   12.9821 H         1 B0F         0.0599
     98 H37        11.6503   20.1386   13.8005 H         1 B0F         0.0599
     99 H38        18.5820   25.5648   19.4967 H         1 B0F         0.0816
    100 H39        17.2036   21.6102   19.6145 H         1 B0F         0.0640
    101 H40        16.9879   22.6110   21.0905 H         1 B0F         0.0640
    102 H41        19.5036   24.2750   22.6610 H         1 B0F         0.0245
    103 H42        17.9162   24.5415   21.8636 H         1 B0F         0.0245
    104 H43        19.2369   25.7418   21.6591 H         1 B0F         0.0245
    105 H44        21.3708   23.6162   19.4350 H         1 B0F         0.0245
    106 H45        21.5374   23.7997   21.2140 H         1 B0F         0.0245
    107 H46        21.1718   25.2322   20.1936 H         1 B0F         0.0245
    108 H47        19.9575   26.4388   18.3037 H         1 B0F         0.1881
    109 H48        22.2005   28.4146   17.9811 H         1 B0F         0.2103
    110 H49        21.3148   24.8161   16.3180 H         1 B0F         0.0732
    111 H50        18.3432   25.3568   15.1815 H         1 B0F         0.0538
    112 H51        17.6954   26.6578   13.0657 H         1 B0F         0.0541
    113 H52        22.8195   26.2779   17.4593 H         1 B0F         0.0659
    114 H53        21.6125   28.7337   13.1360 H         1 B0F         0.0537
    115 H54        19.3318   28.2980   12.0395 H         1 B0F         0.0541
    116 H55        23.3246   26.7805   15.1923 H         1 B0F         0.0439
    117 H56        22.8260   28.4227   15.7228 H         1 B0F         0.0439
@<TRIPOS>BOND
     1    1    2 2  
     2    1    3 1  
     3   21    1 am 
     4    3    4 1  
     5    4    5 1  
     6    5    6 1  
     7    6    7 1  
     8    7    8 1  
     9    7   15 1  
    10    8    9 1  
    11   10    9 1  
    12   10   11 1  
    13   15   10 1  
    14   12   11 am 
    15   12   13 2  
    16   14   12 am 
    17   15   14 1  
    18   17   16 1  
    19   17   18 ar 
    20   24   17 ar 
    21   18   19 ar 
    22   19   21 1  
    23   22   19 ar 
    24   20   22 ar 
    25   20   23 1  
    26   24   20 ar 
    27   25   24 1  
    28   26   25 1  
    29   27   26 1  
    30   27   28 2  
    31   30   27 am 
    32   29   31 2  
    33   29   32 1  
    34   43   29 am 
    35   36   30 1  
    36   32   36 1  
    37   32   37 1  
    38   34   33 1  
    39   33   38 ar 
    40   33   39 ar 
    41   36   34 1  
    42   40   35 ar 
    43   41   35 ar 
    44   38   40 ar 
    45   39   41 ar 
    46   42   44 2  
    47   42   45 1  
    48   51   42 am 
    49   45   43 1  
    50   43   47 1  
    51   45   46 1  
    52   46   48 1  
    53   46   49 1  
    54   46   50 1  
    55   50   47 1  
    56   53   51 1  
    57   57   52 1  
    58   53   54 1  
    59   53   57 1  
    60   54   55 ar 
    61   54   58 ar 
    62   55   56 ar 
    63   56   60 ar 
    64   57   61 1  
    65   58   59 ar 
    66   58   61 1  
    67   59   60 ar 
    68    3   62 1  
    69    3   63 1  
    70    4   64 1  
    71    4   65 1  
    72    5   66 1  
    73    5   67 1  
    74    6   68 1  
    75    6   69 1  
    76    7   70 1  
    77    9   71 1  
    78    9   72 1  
    79   10   73 1  
    80   11   74 1  
    81   14   75 1  
    82   15   76 1  
    83   16   77 1  
    84   16   78 1  
    85   16   79 1  
    86   18   80 1  
    87   21   81 1  
    88   22   82 1  
    89   23   83 1  
    90   23   84 1  
    91   23   85 1  
    92   26   86 1  
    93   26   87 1  
    94   30   88 1  
    95   32   89 1  
    96   34   90 1  
    97   34   91 1  
    98   35   92 1  
    99   36   93 1  
   100   37   94 1  
   101   38   95 1  
   102   39   96 1  
   103   40   97 1  
   104   41   98 1  
   105   45   99 1  
   106   47  100 1  
   107   47  101 1  
   108   48  102 1  
   109   48  103 1  
   110   48  104 1  
   111   49  105 1  
   112   49  106 1  
   113   49  107 1  
   114   51  108 1  
   115   52  109 1  
   116   53  110 1  
   117   55  111 1  
   118   56  112 1  
   119   57  113 1  
   120   59  114 1  
   121   60  115 1  
   122   61  116 1  
   123   61  117 1  
@<TRIPOS>SUBSTRUCTURE
     1 B0F         1

