### 
### Created by X-TOOL on Mon Aug  2 16:10:15 2021
### 

@<TRIPOS>MOLECULE
6iyv_ligand
   59    61     1     0     0
SMALL
GAST_HUCK


@<TRIPOS>ATOM
      1 C           7.3850    5.8820   -2.9800 C.2       1 MOL         0.2521
      2 N           6.3770    5.0030   -5.0610 N.4       1 MOL         0.2473
      3 O           7.4630    4.7850   -2.5180 O.2       1 MOL        -0.3786
      4 CA          6.4400    6.1480   -4.1310 C.3       1 MOL         0.0738
      5 CB          5.0120    6.4410   -3.6510 C.3       1 MOL         0.0253
      6 CD          4.9960    4.9280   -5.5450 C.3       1 MOL        -0.0189
      7 CG          4.2860    6.1320   -4.9500 C.3       1 MOL         0.0558
      8 CAA        -2.3980    8.9090   -5.6500 C.2       1 MOL         0.1058
      9 CAB        -2.0660    7.7060   -4.7310 C.3       1 MOL         0.0691
     10 OAC        -1.7800    9.9310   -5.6460 O.2       1 MOL        -0.3745
     11 CAD        -0.5950    7.3820   -4.5290 C.3       1 MOL         0.0426
     12 CAE        -2.7930    7.8750   -3.3730 C.3       1 MOL         0.0717
     13 CAF        -2.5730    6.6190   -2.5370 C.3       1 MOL        -0.0364
     14 OAG        -2.3400    9.0200   -2.7150 O.3       1 MOL        -0.3893
     15 CAH         0.1860    6.9250   -5.7960 C.3       1 MOL         0.0009
     16 CAI         1.6030    7.2830   -5.3850 C.3       1 MOL         0.0784
     17 NAJ         0.2340    8.4490   -4.0090 N.2       1 MOL        -0.3226
     18 SAK         2.4930    5.8280   -4.6980 S.3       1 MOL        -0.1240
     19 CAL         1.3710    8.2960   -4.3430 C.2       1 MOL         0.0849
     20 CAM         2.5050    9.1610   -3.7950 C.2       1 MOL         0.1086
     21 CAS        -0.1850    7.6050   -7.0840 C.3       1 MOL        -0.0574
     22 OAT         2.3140    9.8830   -2.7740 O.co2     1 MOL        -0.5470
     23 OAU         3.6170    9.1690   -4.3760 O.co2     1 MOL        -0.5470
     24 NAX         8.1640    7.0200   -2.5150 N.am      1 MOL        -0.2288
     25 CAY         9.1400    7.0200   -1.4340 C.ar      1 MOL         0.0699
     26 CAZ         9.5020    5.8420   -0.8080 C.ar      1 MOL        -0.0272
     27 CBA        10.4320    5.8700    0.2200 C.ar      1 MOL        -0.0034
     28 CBB        10.9940    7.0710    0.6120 C.ar      1 MOL        -0.0630
     29 CBC        10.6350    8.2510   -0.0130 C.ar      1 MOL        -0.0720
     30 CBD         9.7020    8.2250   -1.0400 C.ar      1 MOL        -0.0387
     31 CBE        10.8370    4.5670    0.9020 C.2       1 MOL         0.0594
     32 OBF        10.3430    3.4750    0.5170 O.co2     1 MOL        -0.5608
     33 OBG        11.6750    4.5850    1.8440 O.co2     1 MOL        -0.5608
     34 H1          6.6233    4.1517   -4.5808 H         1 MOL         0.2036
     35 H2          7.0082    5.1479   -5.8334 H         1 MOL         0.2036
     36 H3          6.8136    7.0263   -4.6778 H         1 MOL         0.1104
     37 H4          4.8832    7.4884   -3.3405 H         1 MOL         0.0358
     38 H5          4.7026    5.7750   -2.8320 H         1 MOL         0.0358
     39 H6          4.5206    3.9960   -5.2054 H         1 MOL         0.0825
     40 H7          4.9717    4.9728   -6.6438 H         1 MOL         0.0825
     41 H8          4.3904    6.9874   -5.6336 H         1 MOL         0.0471
     42 H9         -3.2392    8.8176   -6.3356 H         1 MOL         0.1353
     43 H10        -2.4996    6.8222   -5.2217 H         1 MOL         0.0566
     44 H11        -0.5762    6.5557   -3.8031 H         1 MOL         0.0455
     45 H12        -3.8712    7.9881   -3.5589 H         1 MOL         0.0620
     46 H13        -3.0853    6.7280   -1.5697 H         1 MOL         0.0256
     47 H14        -1.4957    6.4755   -2.3672 H         1 MOL         0.0256
     48 H15        -2.9794    5.7473   -3.0709 H         1 MOL         0.0256
     49 H16        -1.4100    8.9362   -2.5398 H         1 MOL         0.2100
     50 H17         0.0744    5.8399   -5.9380 H         1 MOL         0.0355
     51 H18         2.1721    7.6979   -6.2300 H         1 MOL         0.0691
     52 H19        -1.2138    7.3306   -7.3604 H         1 MOL         0.0235
     53 H20         0.5055    7.2866   -7.8789 H         1 MOL         0.0235
     54 H21        -0.1183    8.6954   -6.9554 H         1 MOL         0.0235
     55 H22         8.0140    7.8897   -2.9852 H         1 MOL         0.2258
     56 H23         9.0613    4.9017   -1.1190 H         1 MOL         0.0535
     57 H24        11.7216    7.0876    1.4154 H         1 MOL         0.0521
     58 H25        11.0793    9.1899    0.2971 H         1 MOL         0.0584
     59 H26         9.4128    9.1457   -1.5337 H         1 MOL         0.0523
@<TRIPOS>BOND
     1    1    3 2  
     2    4    1 1  
     3    1   24 am 
     4    2    4 1  
     5    6    2 1  
     6    5    4 1  
     7    7    5 1  
     8    7    6 1  
     9   18    7 1  
    10    9    8 1  
    11    8   10 2  
    12   11    9 1  
    13    9   12 1  
    14   15   11 1  
    15   11   17 1  
    16   12   13 1  
    17   12   14 1  
    18   16   15 1  
    19   15   21 1  
    20   16   18 1  
    21   16   19 1  
    22   17   19 2  
    23   19   20 1  
    24   20   22 ar 
    25   20   23 ar 
    26   24   25 1  
    27   25   26 ar 
    28   25   30 ar 
    29   26   27 ar 
    30   27   28 ar 
    31   27   31 1  
    32   28   29 ar 
    33   29   30 ar 
    34   31   32 ar 
    35   31   33 ar 
    36    2   34 1  
    37    2   35 1  
    38    4   36 1  
    39    5   37 1  
    40    5   38 1  
    41    6   39 1  
    42    6   40 1  
    43    7   41 1  
    44    8   42 1  
    45    9   43 1  
    46   11   44 1  
    47   12   45 1  
    48   13   46 1  
    49   13   47 1  
    50   13   48 1  
    51   14   49 1  
    52   15   50 1  
    53   16   51 1  
    54   21   52 1  
    55   21   53 1  
    56   21   54 1  
    57   24   55 1  
    58   26   56 1  
    59   28   57 1  
    60   29   58 1  
    61   30   59 1  
@<TRIPOS>SUBSTRUCTURE
     1 MOL         1

