### 
### Created by X-TOOL on Mon Aug  2 16:10:16 2021
### 

@<TRIPOS>MOLECULE
6iyw_ligand
   30    30     1     0     0
SMALL
GAST_HUCK


@<TRIPOS>ATOM
      1 C7        137.4520  103.0840   19.7970 C.2       1 IM2         0.1057
      2 C2        139.8340  103.4990   15.7630 C.3       1 IM2         0.0751
      3 C6        138.4360  103.9910   18.9480 C.3       1 IM2         0.0688
      4 C5        138.3170  103.6560   17.5700 C.3       1 IM2         0.0400
      5 C3        139.5150  102.1490   16.3370 C.2       1 IM2         0.0846
      6 O7        136.3190  102.8680   19.4810 O.2       1 IM2        -0.3745
      7 C61       138.1100  105.5000   19.2120 C.3       1 IM2         0.0717
      8 O62       138.1570  105.7440   20.5800 O.3       1 IM2        -0.3893
      9 C62       136.7140  105.8390   18.7250 C.3       1 IM2        -0.0364
     10 N4        138.6600  102.1330   17.3560 N.2       1 IM2        -0.3229
     11 C31       140.1310  100.8670   15.7640 C.2       1 IM2         0.1086
     12 O31       141.3540  100.8240   15.4700 O.co2     1 IM2        -0.5470
     13 O32       139.4140   99.8490   15.5790 O.co2     1 IM2        -0.5470
     14 S21       139.4740  103.7390   13.9940 S.3       1 IM2        -0.1367
     15 C22       137.6750  103.7030   13.7250 C.3       1 IM2        -0.0147
     16 C1        139.3550  104.4360   16.6680 C.3       1 IM2        -0.0080
     17 H1        137.8268  102.6344   20.7153 H         1 IM2         0.1353
     18 H2        140.9294  103.5875   15.8111 H         1 IM2         0.0688
     19 H3        139.4702  103.7954   19.2676 H         1 IM2         0.0565
     20 H4        137.2913  103.8712   17.2358 H         1 IM2         0.0453
     21 H5        138.8468  106.1301   18.6922 H         1 IM2         0.0620
     22 H6        137.5172  105.1968   21.0203 H         1 IM2         0.2100
     23 H7        136.5057  106.9014   18.9196 H         1 IM2         0.0256
     24 H8        135.9789  105.2177   19.2576 H         1 IM2         0.0256
     25 H9        136.6450  105.6438   17.6447 H         1 IM2         0.0256
     26 H10       137.4612  103.8482   12.6558 H         1 IM2         0.0343
     27 H11       137.2011  104.5077   14.3062 H         1 IM2         0.0343
     28 H12       137.2750  102.7313   14.0502 H         1 IM2         0.0343
     29 H13       138.8597  105.2636   16.1392 H         1 IM2         0.0322
     30 H14       140.1767  104.8329   17.2823 H         1 IM2         0.0322
@<TRIPOS>BOND
     1    3    1 1  
     2    1    6 2  
     3    2    5 1  
     4    2   14 1  
     5   16    2 1  
     6    4    3 1  
     7    3    7 1  
     8    4   10 1  
     9    4   16 1  
    10    5   10 2  
    11    5   11 1  
    12    7    8 1  
    13    7    9 1  
    14   11   12 ar 
    15   11   13 ar 
    16   14   15 1  
    17    1   17 1  
    18    2   18 1  
    19    3   19 1  
    20    4   20 1  
    21    7   21 1  
    22    8   22 1  
    23    9   23 1  
    24    9   24 1  
    25    9   25 1  
    26   15   26 1  
    27   15   27 1  
    28   15   28 1  
    29   16   29 1  
    30   16   30 1  
@<TRIPOS>SUBSTRUCTURE
     1 IM2         1

