### 
### Created by X-TOOL on Mon Aug  2 16:14:24 2021
### 

@<TRIPOS>MOLECULE
6izq_ligand
   41    42     1     0     0
SMALL
GAST_HUCK


@<TRIPOS>ATOM
      1 C2         14.7870   18.6470   76.2690 C.3       1 XJ2         0.1343
      2 C3         15.2390   17.7140   75.1540 C.3       1 XJ2        -0.0022
      3 C5         15.0980   15.5160   74.3370 C.3       1 XJ2        -0.0448
      4 C6         14.5640   20.1110   75.7380 C.3       1 XJ2         0.0011
      5 C8         12.6620   20.7820   76.7330 C.3       1 XJ2        -0.0002
      6 C9         11.8160   21.4370   75.5780 C.ar      1 XJ2         0.0033
      7 C10        11.1500   20.5950   74.6340 C.ar      1 XJ2        -0.0618
      8 C11        10.3540   21.1460   73.5690 C.ar      1 XJ2        -0.0753
      9 C12        10.2390   22.5470   73.4550 C.ar      1 XJ2        -0.0755
     10 C13        10.8930   23.3850   74.3850 C.ar      1 XJ2        -0.0667
     11 C14        11.6970   22.8340   75.4650 C.ar      1 XJ2        -0.0358
     12 C15        12.3940   23.8270   76.4700 C.3       1 XJ2        -0.0166
     13 C16        13.5610   23.2550   77.2860 C.3       1 XJ2        -0.0038
     14 C17        14.4200   22.2410   76.5090 C.3       1 XJ2        -0.0288
     15 N4         15.1950   16.3050   75.5100 N.4       1 XJ2         0.2268
     16 N7         14.0270   20.9250   76.6630 N.4       1 XJ2         0.2482
     17 O01        15.7990   18.6420   77.2090 O.3       1 XJ2        -0.3815
     18 H1         13.8517   18.2757   76.7131 H         1 XJ2         0.0701
     19 H2         16.2743   17.9711   74.8857 H         1 XJ2         0.0841
     20 H3         14.5848   17.8718   74.2839 H         1 XJ2         0.0841
     21 H4         15.0651   14.4516   74.6128 H         1 XJ2         0.0777
     22 H5         15.9728   15.7020   73.6966 H         1 XJ2         0.0777
     23 H6         14.1808   15.7818   73.7911 H         1 XJ2         0.0777
     24 H7         13.8887   20.0711   74.8706 H         1 XJ2         0.0842
     25 H8         15.5352   20.5240   75.4279 H         1 XJ2         0.0842
     26 H9         12.4408   19.7045   76.7367 H         1 XJ2         0.0965
     27 H10        12.3296   21.2279   77.6820 H         1 XJ2         0.0965
     28 H11        11.2465   19.5189   74.7222 H         1 XJ2         0.0539
     29 H12         9.8503   20.4937   72.8648 H         1 XJ2         0.0541
     30 H13         9.6496   22.9800   72.6549 H         1 XJ2         0.0541
     31 H14        10.7939   24.4605   74.2922 H         1 XJ2         0.0537
     32 H15        11.6298   24.1793   77.1784 H         1 XJ2         0.0413
     33 H16        12.7763   24.6793   75.8892 H         1 XJ2         0.0413
     34 H17        13.1506   22.7536   78.1749 H         1 XJ2         0.0337
     35 H18        14.2065   24.0883   77.6004 H         1 XJ2         0.0337
     36 H19        15.4596   22.3327   76.8565 H         1 XJ2         0.0816
     37 H20        14.3673   22.4931   75.4396 H         1 XJ2         0.0816
     38 H21        14.3932   16.1329   76.0962 H         1 XJ2         0.2012
     39 H22        16.0354   16.0597   76.0096 H         1 XJ2         0.2012
     40 H23        14.3913   20.6247   77.5536 H         1 XJ2         0.2048
     41 H24        16.6012   18.9588   76.8107 H         1 XJ2         0.2103
@<TRIPOS>BOND
     1    1    2 1  
     2    4    1 1  
     3    1   17 1  
     4    2   15 1  
     5   15    3 1  
     6   16    4 1  
     7    5    6 1  
     8    5   16 1  
     9    6    7 ar 
    10    6   11 ar 
    11    7    8 ar 
    12    8    9 ar 
    13    9   10 ar 
    14   10   11 ar 
    15   11   12 1  
    16   12   13 1  
    17   13   14 1  
    18   14   16 1  
    19    1   18 1  
    20    2   19 1  
    21    2   20 1  
    22    3   21 1  
    23    3   22 1  
    24    3   23 1  
    25    4   24 1  
    26    4   25 1  
    27    5   26 1  
    28    5   27 1  
    29    7   28 1  
    30    8   29 1  
    31    9   30 1  
    32   10   31 1  
    33   12   32 1  
    34   12   33 1  
    35   13   34 1  
    36   13   35 1  
    37   14   36 1  
    38   14   37 1  
    39   15   38 1  
    40   15   39 1  
    41   16   40 1  
    42   17   41 1  
@<TRIPOS>SUBSTRUCTURE
     1 XJ2         1

