### 
### Created by X-TOOL on Mon Aug  2 16:14:24 2021
### 

@<TRIPOS>MOLECULE
6j0o_ligand
   51    54     1     0     0
SMALL
GAST_HUCK


@<TRIPOS>ATOM
      1 F1        -32.5240    5.8610   -8.9630 F         1 XAF        -0.1838
      2 C9        -32.7520    4.5760   -8.6430 C.ar      1 XAF         0.1381
      3 C8        -33.8670    3.8770   -9.1850 C.ar      1 XAF        -0.0301
      4 C10       -31.8860    3.9270   -7.7530 C.ar      1 XAF         0.0132
      5 C11       -32.1050    2.5580   -7.4580 C.ar      1 XAF        -0.0535
      6 C12       -33.2290    1.8110   -7.9540 C.ar      1 XAF        -0.0328
      7 C15       -33.3730    0.3680   -7.6350 C.2       1 XAF         0.0122
      8 C17       -33.1130   -0.3410   -6.4240 C.2       1 XAF         0.1145
      9 C21       -32.7840    0.2470   -5.0890 C.ar      1 XAF         0.0707
     10 C20       -33.8500    0.4930   -4.1820 C.ar      1 XAF        -0.0330
     11 C19       -33.6060    1.0470   -2.9250 C.ar      1 XAF        -0.0499
     12 N3        -31.5070    0.5480   -4.7800 N.ar      1 XAF        -0.2943
     13 C22       -31.2700    1.0800   -3.5480 C.ar      1 XAF         0.0216
     14 C23       -29.8410    1.4130   -3.1910 C.3       1 XAF        -0.0160
     15 C18       -32.2720    1.3420   -2.6300 C.ar      1 XAF        -0.0346
     16 N2        -33.2890   -1.6600   -6.5780 N.pl3     1 XAF        -0.2083
     17 N1        -33.5960   -1.8660   -7.8920 N.2       1 XAF        -0.2089
     18 C16       -33.6580   -0.6510   -8.5390 C.2       1 XAF         0.0139
     19 C7        -34.0660    2.5200   -8.8510 C.ar      1 XAF        -0.0612
     20 C1        -30.6640    4.6270   -7.2010 C.ar      1 XAF        -0.0185
     21 C6        -29.8520    5.5180   -7.9860 C.ar      1 XAF        -0.0533
     22 C5        -28.6490    6.0610   -7.4140 C.ar      1 XAF        -0.0370
     23 C4        -28.3280    5.6960   -6.1290 C.ar      1 XAF         0.0877
     24 C3        -29.0680    4.8240   -5.3190 C.ar      1 XAF        -0.0370
     25 C2        -30.2310    4.2390   -5.9120 C.ar      1 XAF        -0.0533
     26 S1        -26.8030    6.3700   -5.4740 S.o2      1 XAF        -0.0012
     27 O1        -26.7300    7.6420   -6.1530 O.2       1 XAF        -0.1694
     28 O2        -26.8090    6.1610   -4.0050 O.2       1 XAF        -0.1694
     29 C13       -25.4220    5.2490   -6.0140 C.3       1 XAF         0.0938
     30 C14       -25.1410    5.3570   -7.5300 C.3       1 XAF         0.0639
     31 O3        -25.9830    4.3910   -8.1570 O.3       1 XAF        -0.3934
     32 H1        -34.5582    4.3829   -9.8493 H         1 XAF         0.0597
     33 H2        -31.3877    2.0476   -6.8255 H         1 XAF         0.0583
     34 H3        -34.8656    0.2471   -4.4704 H         1 XAF         0.0655
     35 H4        -34.4051    1.2377   -2.2178 H         1 XAF         0.0710
     36 H5        -29.8050    1.8311   -2.1742 H         1 XAF         0.0420
     37 H6        -29.4471    2.1512   -3.9051 H         1 XAF         0.0420
     38 H7        -29.2299    0.4993   -3.2336 H         1 XAF         0.0420
     39 H8        -32.0194    1.7809   -1.6715 H         1 XAF         0.0638
     40 H9        -33.2082   -2.3800   -5.8459 H         1 XAF         0.2567
     41 H10       -33.8932   -0.5102   -9.5929 H         1 XAF         0.0697
     42 H11       -34.8997    1.9947   -9.3027 H         1 XAF         0.0581
     43 H12       -30.1435    5.7773   -8.9974 H         1 XAF         0.0618
     44 H13       -28.0163    6.7363   -7.9785 H         1 XAF         0.0635
     45 H14       -28.7750    4.6047   -4.2986 H         1 XAF         0.0635
     46 H15       -30.7885    3.4872   -5.3652 H         1 XAF         0.0618
     47 H16       -25.6960    4.2102   -5.7777 H         1 XAF         0.0527
     48 H17       -24.5090    5.5215   -5.4643 H         1 XAF         0.0527
     49 H18       -24.0840    5.1356   -7.7393 H         1 XAF         0.0573
     50 H19       -25.3829    6.3670   -7.8923 H         1 XAF         0.0573
     51 H20       -25.7690    3.5255   -7.8289 H         1 XAF         0.2095
@<TRIPOS>BOND
     1    1    2 1  
     2    2    3 ar 
     3    2    4 ar 
     4    3   19 ar 
     5    4    5 ar 
     6    4   20 1  
     7    5    6 ar 
     8    6    7 1  
     9    6   19 ar 
    10    7    8 2  
    11    7   18 1  
    12    8    9 1  
    13    8   16 1  
    14    9   10 ar 
    15    9   12 ar 
    16   10   11 ar 
    17   11   15 ar 
    18   12   13 ar 
    19   13   14 1  
    20   13   15 ar 
    21   16   17 1  
    22   17   18 2  
    23   20   21 ar 
    24   20   25 ar 
    25   21   22 ar 
    26   22   23 ar 
    27   23   24 ar 
    28   23   26 1  
    29   24   25 ar 
    30   26   27 2  
    31   26   28 2  
    32   26   29 1  
    33   29   30 1  
    34   30   31 1  
    35    3   32 1  
    36    5   33 1  
    37   10   34 1  
    38   11   35 1  
    39   14   36 1  
    40   14   37 1  
    41   14   38 1  
    42   15   39 1  
    43   16   40 1  
    44   18   41 1  
    45   19   42 1  
    46   21   43 1  
    47   22   44 1  
    48   24   45 1  
    49   25   46 1  
    50   29   47 1  
    51   29   48 1  
    52   30   49 1  
    53   30   50 1  
    54   31   51 1  
@<TRIPOS>SUBSTRUCTURE
     1 XAF         1

