### 
### Created by X-TOOL on Mon Aug  2 16:14:25 2021
### 

@<TRIPOS>MOLECULE
6j10_ligand
   32    33     1     0     0
SMALL
GAST_HUCK


@<TRIPOS>ATOM
      1 C1         -6.3240  -10.4100   21.1200 C.3       1 B4O        -0.0327
      2 C2         -6.3480  -10.1920   23.5820 C.3       1 B4O        -0.0327
      3 C3         -5.6080   -9.0930   21.1010 C.3       1 B4O        -0.0502
      4 C4         -5.3490   -9.0280   23.6320 C.3       1 B4O        -0.0502
      5 C5         -4.6880   -8.7780   22.2800 C.3       1 B4O        -0.0526
      6 O1        -10.3100  -13.3800   22.8110 O.2       1 B4O        -0.4324
      7 C9         -9.1660  -13.3360   22.3660 C.2       1 B4O         0.2085
      8 N          -8.3320  -12.2550   22.6720 N.am      1 B4O        -0.0735
      9 O          -8.8330  -11.2070   23.5140 O.3       1 B4O        -0.2257
     10 C10        -8.7370  -14.3550   21.5640 C.2       1 B4O        -0.0302
     11 C8         -7.4560  -14.3340   21.0540 C.2       1 B4O        -0.0761
     12 C11        -7.0490  -15.4790   20.1950 C.3       1 B4O        -0.0356
     13 C7         -6.5890  -13.3000   21.3450 C.2       1 B4O        -0.0379
     14 C6         -7.0220  -12.2610   22.1700 C.2       1 B4O         0.1209
     15 C          -6.0900  -11.1500   22.4060 C.3       1 B4O         0.0362
     16 H1         -5.9613  -11.0253   20.2834 H         1 B4O         0.0300
     17 H2         -7.4030  -10.2311   21.0028 H         1 B4O         0.0300
     18 H3         -7.3630   -9.7798   23.4831 H         1 B4O         0.0300
     19 H4         -6.2728  -10.7601   24.5209 H         1 B4O         0.0300
     20 H5         -6.3716   -8.3024   21.0574 H         1 B4O         0.0267
     21 H6         -4.9962   -9.0627   20.1873 H         1 B4O         0.0267
     22 H7         -4.5680   -9.2628   24.3702 H         1 B4O         0.0267
     23 H8         -5.8822   -8.1164   23.9396 H         1 B4O         0.0267
     24 H9         -4.3946   -7.7194   22.2232 H         1 B4O         0.0265
     25 H10        -3.7919   -9.4115   22.2050 H         1 B4O         0.0265
     26 H11        -9.0746  -11.5690   24.3584 H         1 B4O         0.2645
     27 H12        -9.4050  -15.1820   21.3279 H         1 B4O         0.0171
     28 H13        -6.0116  -15.3347   19.8590 H         1 B4O         0.0410
     29 H14        -7.7133  -15.5353   19.3200 H         1 B4O         0.0410
     30 H15        -7.1212  -16.4134   20.7710 H         1 B4O         0.0410
     31 H16        -5.5798  -13.2951   20.9359 H         1 B4O         0.0233
     32 H17        -5.0610  -11.5292   22.4917 H         1 B4O         0.0565
@<TRIPOS>BOND
     1    1    3 1  
     2   15    1 1  
     3    2    4 1  
     4   15    2 1  
     5    3    5 1  
     6    4    5 1  
     7    7    6 2  
     8    8    7 am 
     9    7   10 1  
    10    8    9 1  
    11   14    8 1  
    12   11   10 2  
    13   11   12 1  
    14   13   11 1  
    15   14   13 2  
    16   14   15 1  
    17    1   16 1  
    18    1   17 1  
    19    2   18 1  
    20    2   19 1  
    21    3   20 1  
    22    3   21 1  
    23    4   22 1  
    24    4   23 1  
    25    5   24 1  
    26    5   25 1  
    27    9   26 1  
    28   10   27 1  
    29   12   28 1  
    30   12   29 1  
    31   12   30 1  
    32   13   31 1  
    33   15   32 1  
@<TRIPOS>SUBSTRUCTURE
     1 B4O         1

