### 
### Created by X-TOOL on Mon Aug  2 16:14:25 2021
### 

@<TRIPOS>MOLECULE
6j1l_ligand
   58    60     1     0     0
SMALL
GAST_HUCK


@<TRIPOS>ATOM
      1 CAA        28.9030   -1.8210   -4.3040 C.ar      1 B6L        -0.0561
      2 CAB        29.6550   -0.8030   -3.7320 C.ar      1 B6L        -0.0433
      3 CAC        30.2240   -0.9830   -2.4850 C.ar      1 B6L         0.0815
      4 CAD        30.0630   -2.1690   -1.7870 C.ar      1 B6L        -0.0433
      5 CAE        29.3030   -3.1840   -2.3620 C.ar      1 B6L        -0.0561
      6 CAF        28.7210   -2.9930   -3.6050 C.ar      1 B6L        -0.0236
      7 CAH        27.9200   -4.1040   -4.2520 C.3       1 B6L         0.0774
      8 CAI        29.0060   -5.1150   -4.6130 C.2       1 B6L         0.2199
      9 CAK        30.2650   -7.1890   -3.8020 C.ar      1 B6L         0.0781
     10 CAL        30.5130   -7.9700   -2.6900 C.ar      1 B6L        -0.0308
     11 CAM        31.4250   -9.0120   -2.7570 C.ar      1 B6L        -0.0563
     12 CAN        32.0710   -9.2430   -3.9540 C.ar      1 B6L        -0.0092
     13 CAO        31.8350   -8.4610   -5.0740 C.ar      1 B6L        -0.0563
     14 CAP        30.9090   -7.4280   -5.0110 C.ar      1 B6L        -0.0308
     15 CAQ        33.0900  -10.3540   -4.1210 C.ar      1 B6L         0.0369
     16 CAR        34.3430  -10.3110   -3.5430 C.ar      1 B6L         0.1642
     17 CAS        35.2300  -11.3690   -3.7710 C.ar      1 B6L        -0.0089
     18 CAT        34.8440  -12.4150   -4.6060 C.ar      1 B6L        -0.0207
     19 CAU        33.5960  -12.4140   -5.1800 C.ar      1 B6L        -0.0453
     20 CAV        32.7210  -11.3760   -4.9470 C.ar      1 B6L        -0.0301
     21 CAX        35.7430  -13.6100   -4.9440 C.3       1 B6L         0.2298
     22 CAY        35.9220  -14.4830   -3.7230 C.3       1 B6L         0.3937
     23 CAZ        37.0220  -13.1200   -5.6170 C.3       1 B6L         0.3937
     24 CBJ        32.7940    0.4930   -2.6780 C.3       1 B6L         0.0672
     25 CBK        33.4790   -0.8730   -2.5840 C.3       1 B6L        -0.0454
     26 FAW        34.6840   -9.2650   -2.7290 F         1 B6L        -0.1759
     27 FBB        37.8000  -14.2200   -5.8420 F         1 B6L        -0.1782
     28 FBC        37.7080  -12.1920   -4.8830 F         1 B6L        -0.1782
     29 FBD        36.6510  -12.5490   -6.8120 F         1 B6L        -0.1782
     30 FBE        36.4270  -13.7730   -2.6840 F         1 B6L        -0.1782
     31 FBF        36.7840  -15.4660   -4.0540 F         1 B6L        -0.1782
     32 FBG        34.6980  -15.0190   -3.4210 F         1 B6L        -0.1782
     33 NAJ        29.2820   -6.1390   -3.6320 N.am      1 B6L        -0.2252
     34 OBA        35.1550  -14.4430   -5.9140 O.3       1 B6L        -0.4208
     35 OBH        31.5440    0.1410   -0.2500 O.2       1 B6L        -0.1702
     36 OBI        30.3550    1.7660   -2.1200 O.2       1 B6L        -0.1702
     37 OBL        29.6150   -5.0160   -5.6230 O.2       1 B6L        -0.3791
     38 SAG        31.1960    0.3900   -1.8290 S.o2      1 B6L        -0.0061
     39 H1         28.4653   -1.6944   -5.2876 H         1 B6L         0.0561
     40 H2         29.7956    0.1316   -4.2628 H         1 B6L         0.0619
     41 H3         30.5195   -2.3039   -0.8131 H         1 B6L         0.0619
     42 H4         29.1667   -4.1229   -1.8377 H         1 B6L         0.0561
     43 H5         27.3938   -3.7462   -5.1493 H         1 B6L         0.0666
     44 H6         27.1928   -4.5340   -3.5475 H         1 B6L         0.0666
     45 H7         29.9923   -7.7673   -1.7611 H         1 B6L         0.0537
     46 H8         31.6257   -9.6305   -1.8897 H         1 B6L         0.0640
     47 H9         32.3714   -8.6551   -5.9958 H         1 B6L         0.0640
     48 H10        30.6933   -6.8223   -5.8837 H         1 B6L         0.0537
     49 H11        36.2076  -11.3745   -3.3026 H         1 B6L         0.0798
     50 H12        33.2977  -13.2358   -5.8208 H         1 B6L         0.0800
     51 H13        31.7443  -11.3708   -5.4173 H         1 B6L         0.0675
     52 H14        32.6374    0.7584   -3.7339 H         1 B6L         0.0500
     53 H15        33.4218    1.2575   -2.1970 H         1 B6L         0.0500
     54 H16        34.4525   -0.8309   -3.0945 H         1 B6L         0.0245
     55 H17        32.8462   -1.6343   -3.0635 H         1 B6L         0.0245
     56 H18        33.6306   -1.1352   -1.5265 H         1 B6L         0.0245
     57 H19        28.7599   -6.1217   -2.7793 H         1 B6L         0.2322
     58 H20        35.0158  -13.9478   -6.7127 H         1 B6L         0.1929
@<TRIPOS>BOND
     1    2    1 ar 
     2    1    6 ar 
     3    3    2 ar 
     4    3    4 ar 
     5   38    3 1  
     6    4    5 ar 
     7    5    6 ar 
     8    6    7 1  
     9    7    8 1  
    10    8   33 am 
    11    8   37 2  
    12    9   10 ar 
    13    9   14 ar 
    14   33    9 1  
    15   10   11 ar 
    16   11   12 ar 
    17   13   12 ar 
    18   12   15 1  
    19   14   13 ar 
    20   15   16 ar 
    21   15   20 ar 
    22   16   17 ar 
    23   16   26 1  
    24   17   18 ar 
    25   19   18 ar 
    26   18   21 1  
    27   20   19 ar 
    28   21   22 1  
    29   21   23 1  
    30   21   34 1  
    31   22   30 1  
    32   22   31 1  
    33   22   32 1  
    34   23   27 1  
    35   23   28 1  
    36   23   29 1  
    37   24   25 1  
    38   24   38 1  
    39   38   35 2  
    40   38   36 2  
    41    1   39 1  
    42    2   40 1  
    43    4   41 1  
    44    5   42 1  
    45    7   43 1  
    46    7   44 1  
    47   10   45 1  
    48   11   46 1  
    49   13   47 1  
    50   14   48 1  
    51   17   49 1  
    52   19   50 1  
    53   20   51 1  
    54   24   52 1  
    55   24   53 1  
    56   25   54 1  
    57   25   55 1  
    58   25   56 1  
    59   33   57 1  
    60   34   58 1  
@<TRIPOS>SUBSTRUCTURE
     1 B6L         1

