### 
### Created by X-TOOL on Mon Aug  2 16:14:25 2021
### 

@<TRIPOS>MOLECULE
6j3o_ligand
   40    42     1     0     0
SMALL
GAST_HUCK


@<TRIPOS>ATOM
      1 C10         6.7820    5.0530  -28.7290 C.2       1 B4L         0.1042
      2 C13         8.1350    4.4620  -34.9880 C.3       1 B4L         0.0751
      3 C17         7.1760    2.4720  -35.9150 C.3       1 B4L        -0.0101
      4 N01         9.2390    4.9550  -34.0950 N.pl3     1 B4L        -0.3162
      5 C02         8.9840    5.1530  -32.6780 C.cat     1 B4L         0.1902
      6 C04         9.6990    5.9200  -30.6140 C.2       1 B4L         0.3044
      7 C06         8.4760    5.5080  -30.0370 C.2       1 B4L         0.2802
      8 C07         7.5380    4.9190  -30.8430 C.2       1 B4L         0.1883
      9 C09         6.4290    4.6180  -30.0020 C.2       1 B4L         0.0510
     10 N11         7.9990    5.5780  -28.7640 N.pl3     1 B4L        -0.1804
     11 C12        11.1650    6.1490  -32.5020 C.3       1 B4L         0.0212
     12 C14         8.3380    5.0260  -36.4110 C.3       1 B4L        -0.0080
     13 C16         7.3320    3.0580  -37.3350 C.3       1 B4L        -0.0320
     14 C18         8.1380    3.0100  -34.9900 C.3       1 B4L        -0.0195
     15 C19         7.5380    4.9420  -38.4410 C.3       1 B4L        -0.0430
     16 N03         9.9100    5.7280  -31.9050 N.am      1 B4L        -0.2334
     17 N08         7.8130    4.7500  -32.1720 N.pl3     1 B4L        -0.2486
     18 N15         7.3620    4.5080  -37.3280 N.4       1 B4L         0.2348
     19 O05        10.5230    6.4310  -29.9300 O.2       1 B4L        -0.3391
     20 H1          6.1560    4.9746  -27.8413 H         1 B4L         0.1564
     21 H2          7.1684    4.8157  -34.6001 H         1 B4L         0.0620
     22 H3          7.3077    1.3812  -35.9667 H         1 B4L         0.0318
     23 H4          6.1653    2.7023  -35.5470 H         1 B4L         0.0318
     24 H5         10.1717    5.1515  -34.4854 H         1 B4L         0.1792
     25 H6          5.4940    4.1434  -30.2960 H         1 B4L         0.0576
     26 H7          8.5024    5.9749  -27.9578 H         1 B4L         0.2655
     27 H8         11.1589    5.9094  -33.5756 H         1 B4L         0.0481
     28 H9         11.9982    5.6226  -32.0136 H         1 B4L         0.0481
     29 H10        11.2885    7.2339  -32.3692 H         1 B4L         0.0481
     30 H11         9.3423    4.7499  -36.7648 H         1 B4L         0.0839
     31 H12         8.2497    6.1219  -36.3768 H         1 B4L         0.0839
     32 H13         6.4843    2.7241  -37.9514 H         1 B4L         0.0814
     33 H14         8.2711    2.6862  -37.7707 H         1 B4L         0.0814
     34 H15         7.8965    2.6526  -33.9781 H         1 B4L         0.0293
     35 H16         9.1403    2.6570  -35.2741 H         1 B4L         0.0293
     36 H17         7.5565    6.0413  -38.4072 H         1 B4L         0.0778
     37 H18         6.7209    4.6091  -39.0979 H         1 B4L         0.0778
     38 H19         8.4970    4.5711  -38.8318 H         1 B4L         0.0778
     39 H20         7.1141    4.3096  -32.7872 H         1 B4L         0.2270
     40 H21         6.4578    4.8263  -37.0163 H         1 B4L         0.2031
@<TRIPOS>BOND
     1    1    9 2  
     2   10    1 1  
     3    4    2 1  
     4    2   12 1  
     5    2   14 1  
     6    3   13 1  
     7   14    3 1  
     8    5    4 ar 
     9   16    5 ar 
    10    5   17 ar 
    11    7    6 1  
    12    6   16 am 
    13    6   19 2  
    14    7    8 2  
    15    7   10 1  
    16    8    9 1  
    17    8   17 1  
    18   16   11 1  
    19   12   18 1  
    20   13   18 1  
    21   18   15 1  
    22    1   20 1  
    23    2   21 1  
    24    3   22 1  
    25    3   23 1  
    26    4   24 1  
    27    9   25 1  
    28   10   26 1  
    29   11   27 1  
    30   11   28 1  
    31   11   29 1  
    32   12   30 1  
    33   12   31 1  
    34   13   32 1  
    35   13   33 1  
    36   14   34 1  
    37   14   35 1  
    38   15   36 1  
    39   15   37 1  
    40   15   38 1  
    41   17   39 1  
    42   18   40 1  
@<TRIPOS>SUBSTRUCTURE
     1 B4L         1

