### 
### Created by X-TOOL on Mon Aug  2 16:14:25 2021
### 

@<TRIPOS>MOLECULE
6j5l_ligand
   62    66     1     0     0
SMALL
GAST_HUCK


@<TRIPOS>ATOM
      1 CAA       -19.2220  -17.7660  -27.6320 C.3       1 B9C         0.0700
      2 CAB       -19.1750  -17.3920  -29.0290 C.3       1 B9C        -0.0129
      3 NAC       -19.3050  -15.9460  -29.0550 N.4       1 B9C         0.2298
      4 CAD       -17.9840  -15.4460  -28.5470 C.3       1 B9C        -0.0129
      5 CAE       -17.8610  -15.7640  -27.0850 C.3       1 B9C         0.0700
      6 NAF       -18.1160  -17.2000  -26.8310 N.pl3     1 B9C        -0.2839
      7 CAI       -17.5740  -17.8770  -25.7710 C.ar      1 B9C         0.1142
      8 CAH       -17.3250  -17.1660  -24.5980 C.ar      1 B9C        -0.0160
      9 CAG       -16.8100  -17.7660  -23.4620 C.ar      1 B9C        -0.0469
     10 NAJ       -17.3200  -19.2020  -25.7510 N.ar      1 B9C        -0.2846
     11 CAK       -16.8420  -19.8320  -24.5910 C.ar      1 B9C         0.0037
     12 CAV       -16.5350  -19.1090  -23.4300 C.ar      1 B9C         0.0039
     13 CAZ       -16.0680  -19.7170  -22.2980 C.2       1 B9C         0.0585
     14 CBE       -15.7710  -19.1950  -21.0880 C.ar      1 B9C         0.0042
     15 CBD       -15.7560  -17.9470  -20.6290 C.ar      1 B9C        -0.0487
     16 NBA       -15.8950  -21.0250  -22.2170 N.2       1 B9C        -0.2039
     17 NBB       -15.4530  -21.3200  -20.9980 N.pl3     1 B9C        -0.2190
     18 CBF       -15.3780  -20.1960  -20.2910 C.ar      1 B9C         0.0785
     19 CBG       -15.0020  -19.9960  -19.0130 C.ar      1 B9C        -0.0421
     20 CBH       -14.9770  -18.7010  -18.4900 C.ar      1 B9C        -0.0495
     21 CBC       -15.3640  -17.6590  -19.3270 C.ar      1 B9C         0.0283
     22 NAY       -15.3970  -16.3970  -18.9070 N.pl3     1 B9C        -0.3197
     23 CAX       -16.4890  -15.9130  -18.0630 C.3       1 B9C         0.0506
     24 CAW       -17.7190  -15.7830  -18.7300 C.ar      1 B9C        -0.0045
     25 CAU       -18.8220  -16.3440  -18.0890 C.ar      1 B9C        -0.0740
     26 CAT       -20.1140  -16.2790  -18.6040 C.ar      1 B9C        -0.0860
     27 CAS       -20.2870  -15.6140  -19.7890 C.ar      1 B9C        -0.0849
     28 CAR       -19.2180  -15.0210  -20.4430 C.ar      1 B9C        -0.0518
     29 CAQ       -17.9380  -15.0910  -19.9300 C.ar      1 B9C         0.0663
     30 NAP       -16.8940  -14.5600  -20.5990 N.am      1 B9C        -0.1946
     31 SAO       -16.9030  -12.9540  -21.0500 S.o2      1 B9C         0.0561
     32 OAL       -15.8900  -12.7360  -22.1410 O.2       1 B9C        -0.1504
     33 OAM       -18.2750  -12.4700  -21.5210 O.2       1 B9C        -0.1504
     34 CAN       -16.4950  -12.0370  -19.5960 C.3       1 B9C         0.0785
     35 H1        -19.1750  -18.8629  -27.5637 H         1 B9C         0.0574
     36 H2        -20.1740  -17.4127  -27.2091 H         1 B9C         0.0574
     37 H3        -20.0038  -17.8612  -29.5794 H         1 B9C         0.0834
     38 H4        -18.2178  -17.6988  -29.4759 H         1 B9C         0.0834
     39 H5        -20.0560  -15.6441  -28.4543 H         1 B9C         0.2015
     40 H6        -19.4734  -15.6194  -29.9936 H         1 B9C         0.2015
     41 H7        -17.9228  -14.3574  -28.6924 H         1 B9C         0.0834
     42 H8        -17.1687  -15.9362  -29.0993 H         1 B9C         0.0834
     43 H9        -18.5924  -15.1641  -26.5236 H         1 B9C         0.0574
     44 H10       -16.8446  -15.5139  -26.7467 H         1 B9C         0.0574
     45 H11       -17.5427  -16.1043  -24.5747 H         1 B9C         0.0610
     46 H12       -16.6205  -17.1631  -22.5813 H         1 B9C         0.0696
     47 H13       -16.7066  -20.9075  -24.5932 H         1 B9C         0.0781
     48 H14       -16.0559  -17.1371  -21.2842 H         1 B9C         0.0455
     49 H15       -15.2095  -22.2614  -20.6582 H         1 B9C         0.2437
     50 H16       -14.7194  -20.8382  -18.3918 H         1 B9C         0.0541
     51 H17       -14.6671  -18.5144  -17.4682 H         1 B9C         0.0511
     52 H18       -14.6424  -15.7514  -19.1803 H         1 B9C         0.1746
     53 H19       -16.2065  -14.9271  -17.6653 H         1 B9C         0.0636
     54 H20       -16.6211  -16.6201  -17.2308 H         1 B9C         0.0636
     55 H21       -18.6669  -16.8548  -17.1455 H         1 B9C         0.0508
     56 H22       -20.9500  -16.7366  -18.0875 H         1 B9C         0.0453
     57 H23       -21.2781  -15.5502  -20.2234 H         1 B9C         0.0515
     58 H24       -19.3902  -14.4929  -21.3739 H         1 B9C         0.0458
     59 H25       -16.1076  -15.1342  -20.8266 H         1 B9C         0.2133
     60 H26       -16.4849  -10.9624  -19.8310 H         1 B9C         0.0487
     61 H27       -15.5015  -12.3429  -19.2362 H         1 B9C         0.0487
     62 H28       -17.2445  -12.2346  -18.8155 H         1 B9C         0.0487
@<TRIPOS>BOND
     1    1    2 1  
     2    1    6 1  
     3    2    3 1  
     4    3    4 1  
     5    4    5 1  
     6    5    6 1  
     7    6    7 1  
     8    7    8 ar 
     9    7   10 ar 
    10    8    9 ar 
    11    9   12 ar 
    12   10   11 ar 
    13   11   12 ar 
    14   12   13 1  
    15   13   14 1  
    16   13   16 2  
    17   14   15 ar 
    18   14   18 ar 
    19   15   21 ar 
    20   16   17 1  
    21   17   18 1  
    22   18   19 ar 
    23   19   20 ar 
    24   20   21 ar 
    25   21   22 1  
    26   22   23 1  
    27   23   24 1  
    28   24   25 ar 
    29   24   29 ar 
    30   25   26 ar 
    31   26   27 ar 
    32   27   28 ar 
    33   28   29 ar 
    34   29   30 1  
    35   30   31 am 
    36   31   32 2  
    37   31   33 2  
    38   31   34 1  
    39    1   35 1  
    40    1   36 1  
    41    2   37 1  
    42    2   38 1  
    43    3   39 1  
    44    3   40 1  
    45    4   41 1  
    46    4   42 1  
    47    5   43 1  
    48    5   44 1  
    49    8   45 1  
    50    9   46 1  
    51   11   47 1  
    52   15   48 1  
    53   17   49 1  
    54   19   50 1  
    55   20   51 1  
    56   22   52 1  
    57   23   53 1  
    58   23   54 1  
    59   25   55 1  
    60   26   56 1  
    61   27   57 1  
    62   28   58 1  
    63   30   59 1  
    64   34   60 1  
    65   34   61 1  
    66   34   62 1  
@<TRIPOS>SUBSTRUCTURE
     1 B9C         1

