### 
### Created by X-TOOL on Mon Aug  2 16:14:25 2021
### 

@<TRIPOS>MOLECULE
6j63_ligand
   35    36     1     0     0
SMALL
GAST_HUCK


@<TRIPOS>ATOM
      1 O1         33.9020  -21.6530    4.5850 O.2       1 NTD        -0.3875
      2 C5         33.1950  -22.1920    3.8000 C.2       1 NTD         0.1316
      3 C2         33.7070  -22.3820    2.3690 C.3       1 NTD         0.0262
      4 C3         33.0190  -23.4380    1.5670 C.3       1 NTD        -0.0209
      5 C4         31.5330  -23.3820    1.6660 C.3       1 NTD         0.0262
      6 C1         31.0710  -23.5220    3.1140 C.2       1 NTD         0.1316
      7 O5         30.1890  -24.2790    3.3650 O.2       1 NTD        -0.3875
      8 C6         31.7690  -22.6850    4.2210 C.3       1 NTD         0.1460
      9 C7         31.0740  -21.9930    5.1180 C.3       1 NTD         0.1426
     10 O7         31.4180  -20.6640    5.3510 O.3       1 NTD        -0.3670
     11 C8         29.7980  -22.5850    5.7180 C.ar      1 NTD         0.0650
     12 C13        29.8840  -23.4690    6.7860 C.ar      1 NTD        -0.0180
     13 C12        28.7330  -24.0170    7.3310 C.ar      1 NTD        -0.0326
     14 C11        27.4940  -23.6640    6.8190 C.ar      1 NTD         0.0472
     15 C14        26.2140  -24.2320    7.4170 C.3       1 NTD         0.3702
     16 F2         25.8960  -25.4070    6.7880 F         1 NTD        -0.2269
     17 F3         26.3990  -24.4530    8.7500 F         1 NTD        -0.2269
     18 F1         25.2110  -23.3240    7.2400 F         1 NTD        -0.2269
     19 C10        27.4060  -22.7740    5.7630 C.ar      1 NTD         0.0072
     20 C9         28.5530  -22.2380    5.2100 C.ar      1 NTD         0.2351
     21 N          28.4270  -21.3110    4.0970 N.2       1 NTD         0.3185
     22 ON2        28.2380  -21.7190    3.0080 O.2       1 NTD         0.1760
     23 ON1        28.5190  -19.9380    4.3190 O.2       1 NTD         0.1760
     24 H1         34.7744  -22.6420    2.4242 H         1 NTD         0.0497
     25 H2         33.5895  -21.4254    1.8387 H         1 NTD         0.0497
     26 H3         33.3554  -24.4223    1.9248 H         1 NTD         0.0315
     27 H4         33.3030  -23.3148    0.5115 H         1 NTD         0.0315
     28 H5         31.1026  -24.2011    1.0712 H         1 NTD         0.0497
     29 H6         31.1830  -22.4176    1.2693 H         1 NTD         0.0497
     30 H7         32.0646  -23.5108    4.8849 H         1 NTD         0.0817
     31 H8         31.6908  -22.3534    5.9545 H         1 NTD         0.0902
     32 H9         32.3168  -20.6194    5.6556 H         1 NTD         0.2150
     33 H10        30.8534  -23.7310    7.1943 H         1 NTD         0.0665
     34 H11        28.8016  -24.7188    8.1543 H         1 NTD         0.0870
     35 H12        26.4350  -22.4968    5.3688 H         1 NTD         0.0922
@<TRIPOS>BOND
     1    1    2 2  
     2    2    3 1  
     3    2    8 1  
     4    3    4 1  
     5    4    5 1  
     6    5    6 1  
     7    6    7 2  
     8    6    8 1  
     9    8    9 1  
    10    9   10 1  
    11    9   11 1  
    12   11   12 ar 
    13   11   20 ar 
    14   12   13 ar 
    15   13   14 ar 
    16   14   15 1  
    17   14   19 ar 
    18   15   16 1  
    19   15   17 1  
    20   15   18 1  
    21   19   20 ar 
    22   20   21 1  
    23   21   22 2  
    24   21   23 2  
    25    3   24 1  
    26    3   25 1  
    27    4   26 1  
    28    4   27 1  
    29    5   28 1  
    30    5   29 1  
    31    8   30 1  
    32    9   31 1  
    33   10   32 1  
    34   12   33 1  
    35   13   34 1  
    36   19   35 1  
@<TRIPOS>SUBSTRUCTURE
     1 NTD         1

