### 
### Created by X-TOOL on Mon Aug  2 16:10:16 2021
### 

@<TRIPOS>MOLECULE
6j6m_ligand
   66    70     1     0     0
SMALL
GAST_HUCK


@<TRIPOS>ATOM
      1 C10        -1.9250   13.6910  113.6890 C.3       1 BA0        -0.0268
      2 C11        -2.7110   12.8330  114.6930 C.3       1 BA0         0.0342
      3 C13        -1.3950   11.0970  116.1130 C.2       1 BA0         0.1782
      4 C02        -1.6450   18.3170  109.5020 C.2       1 BA0         0.1677
      5 C03        -1.9920   16.9710  110.1070 C.2       1 BA0         0.0828
      6 C04        -1.0500   16.0210  110.3940 C.2       1 BA0         0.1827
      7 C06         1.1280   14.8670  110.5660 C.3       1 BA0         0.0338
      8 C07         0.4990   14.0100  111.6220 C.3       1 BA0        -0.0003
      9 C08        -0.9260   13.6710  111.3110 C.3       1 BA0         0.0867
     10 C09        -1.7220   12.9830  112.4030 C.3       1 BA0        -0.0055
     11 C14        -1.6300   11.8810  117.3930 C.3       1 BA0         0.0346
     12 C15        -0.3670   11.9460  118.2460 C.3       1 BA0        -0.0482
     13 C17        -1.7340   10.8240  113.6000 C.3       1 BA0         0.0342
     14 C18        -1.0300   11.6840  112.5620 C.3       1 BA0        -0.0268
     15 C21        -3.2390   16.4100  110.4670 C.2       1 BA0         0.0300
     16 C22        -4.6300   16.9790  110.3790 C.ar      1 BA0        -0.0257
     17 C23        -5.1930   17.2190  109.1440 C.ar      1 BA0        -0.0613
     18 C24        -6.4710   17.7260  109.1030 C.ar      1 BA0        -0.0270
     19 C25        -5.3190   17.2140  111.5530 C.ar      1 BA0        -0.0613
     20 C26        -6.5990   17.7240  111.5050 C.ar      1 BA0        -0.0270
     21 C27        -7.1620   17.9840  110.2700 C.ar      1 BA0         0.1174
     22 C29        -8.9540   19.4030  111.0330 C.ar      1 BA0         0.1167
     23 C30        -8.2230   20.5090  111.4410 C.ar      1 BA0        -0.0283
     24 C31        -8.8020   21.4190  112.3070 C.ar      1 BA0        -0.0696
     25 C32       -10.1000   21.2270  112.7570 C.ar      1 BA0        -0.0722
     26 C33       -10.8240   20.1280  112.3350 C.ar      1 BA0        -0.0696
     27 C34       -10.2560   19.2220  111.4570 C.ar      1 BA0        -0.0283
     28 N01        -2.6430   19.3410  109.3850 N.am      1 BA0        -0.3084
     29 N05         0.3910   16.0370  110.2640 N.pl3     1 BA0        -0.2876
     30 N12        -1.9520   11.5640  114.8780 N.am      1 BA0        -0.2732
     31 N19        -1.6730   14.9380  110.9160 N.pl3     1 BA0        -0.1803
     32 N20        -3.0200   15.1560  110.9570 N.2       1 BA0        -0.2311
     33 O16        -0.7620   10.1020  116.1100 O.2       1 BA0        -0.3969
     34 O28        -8.4560   18.4720  110.1220 O.3       1 BA0        -0.2570
     35 O35        -0.5210   18.4830  109.1060 O.2       1 BA0        -0.4116
     36 H1         -0.9430   13.9347  114.1205 H         1 BA0         0.0288
     37 H2         -2.4832   14.6198  113.5002 H         1 BA0         0.0288
     38 H3         -3.7152   12.6174  114.2993 H         1 BA0         0.0522
     39 H4         -2.7994   13.3625  115.6531 H         1 BA0         0.0522
     40 H5          1.2230   14.2704  109.6467 H         1 BA0         0.0525
     41 H6          2.1276   15.1672  110.9133 H         1 BA0         0.0525
     42 H7          0.5323   14.5492  112.5802 H         1 BA0         0.0315
     43 H8          1.0735   13.0758  111.7068 H         1 BA0         0.0315
     44 H9         -0.9089   12.9906  110.4468 H         1 BA0         0.0669
     45 H10        -2.7308   12.7963  112.0063 H         1 BA0         0.0332
     46 H11        -2.4275   11.3914  117.9712 H         1 BA0         0.0500
     47 H12        -1.9400   12.9042  117.1342 H         1 BA0         0.0500
     48 H13        -0.5724   12.5191  119.1621 H         1 BA0         0.0254
     49 H14         0.4348   12.4393  117.6770 H         1 BA0         0.0254
     50 H15        -0.0527   10.9265  118.5141 H         1 BA0         0.0254
     51 H16        -1.1178    9.9358  113.8036 H         1 BA0         0.0522
     52 H17        -2.7093   10.5098  113.1998 H         1 BA0         0.0522
     53 H18         0.0061   11.8638  112.8846 H         1 BA0         0.0288
     54 H19        -1.0272   11.1558  111.5972 H         1 BA0         0.0288
     55 H20        -4.6446   17.0142  108.2316 H         1 BA0         0.0598
     56 H21        -6.9397   17.9247  108.1460 H         1 BA0         0.0557
     57 H22        -4.8549   16.9982  112.5086 H         1 BA0         0.0598
     58 H23        -7.1523   17.9170  112.4170 H         1 BA0         0.0557
     59 H24        -7.2099   20.6584  111.0854 H         1 BA0         0.0553
     60 H25        -8.2393   22.2854  112.6352 H         1 BA0         0.0591
     61 H26       -10.5470   21.9398  113.4405 H         1 BA0         0.0528
     62 H27       -11.8363   19.9759  112.6917 H         1 BA0         0.0591
     63 H28       -10.8305   18.3735  111.1033 H         1 BA0         0.0553
     64 H29        -2.4064   20.2264  108.9848 H         1 BA0         0.1790
     65 H30        -3.5752   19.1694  109.7037 H         1 BA0         0.1790
     66 H31         0.8757   16.8916  109.9547 H         1 BA0         0.1863
@<TRIPOS>BOND
     1    1    2 1  
     2   10    1 1  
     3    2   30 1  
     4    3   11 1  
     5   30    3 am 
     6    3   33 2  
     7    5    4 1  
     8    4   28 am 
     9    4   35 2  
    10    5    6 2  
    11   15    5 1  
    12    6   29 1  
    13    6   31 1  
    14    7    8 1  
    15   29    7 1  
    16    9    8 1  
    17    9   10 1  
    18   31    9 1  
    19   10   14 1  
    20   11   12 1  
    21   14   13 1  
    22   13   30 1  
    23   16   15 1  
    24   15   32 2  
    25   17   16 ar 
    26   19   16 ar 
    27   18   17 ar 
    28   21   18 ar 
    29   20   19 ar 
    30   21   20 ar 
    31   34   21 1  
    32   22   23 ar 
    33   22   27 ar 
    34   22   34 1  
    35   23   24 ar 
    36   24   25 ar 
    37   25   26 ar 
    38   26   27 ar 
    39   31   32 1  
    40    1   36 1  
    41    1   37 1  
    42    2   38 1  
    43    2   39 1  
    44    7   40 1  
    45    7   41 1  
    46    8   42 1  
    47    8   43 1  
    48    9   44 1  
    49   10   45 1  
    50   11   46 1  
    51   11   47 1  
    52   12   48 1  
    53   12   49 1  
    54   12   50 1  
    55   13   51 1  
    56   13   52 1  
    57   14   53 1  
    58   14   54 1  
    59   17   55 1  
    60   18   56 1  
    61   19   57 1  
    62   20   58 1  
    63   23   59 1  
    64   24   60 1  
    65   25   61 1  
    66   26   62 1  
    67   27   63 1  
    68   28   64 1  
    69   28   65 1  
    70   29   66 1  
@<TRIPOS>SUBSTRUCTURE
     1 BA0         1

