### 
### Created by X-TOOL on Mon Aug  2 16:14:26 2021
### 

@<TRIPOS>MOLECULE
6j81_ligand
   57    60     1     0     0
SMALL
GAST_HUCK


@<TRIPOS>ATOM
      1 C5        -34.2900    3.8250   -6.3100 C.ar      1 B8X        -0.0583
      2 C4        -35.5490    3.3240   -6.6270 C.ar      1 B8X        -0.0341
      3 C3        -36.0300    3.4580   -7.9730 C.ar      1 B8X        -0.0394
      4 C6        -33.4720    4.4220   -7.3060 C.ar      1 B8X        -0.0310
      5 C11       -31.4180    5.8200   -7.7580 C.ar      1 B8X        -0.0540
      6 C10       -32.1400    4.9090   -6.9300 C.ar      1 B8X        -0.0237
      7 C1        -33.9710    4.5570   -8.6230 C.ar      1 B8X        -0.0668
      8 C8        -30.2890    4.8780   -5.3030 C.ar      1 B8X        -0.0373
      9 C12       -30.1290    6.2370   -7.3390 C.ar      1 B8X        -0.0373
     10 O1        -27.8990    6.0590   -4.1660 O.2       1 B8X        -0.1694
     11 S1        -28.0230    6.3810   -5.5960 S.o2      1 B8X        -0.0013
     12 O2        -27.9460    7.6780   -6.2580 O.2       1 B8X        -0.1694
     13 C20       -26.6560    5.3190   -6.2480 C.3       1 B8X         0.0938
     14 C21       -26.5110    5.5180   -7.7870 C.3       1 B8X         0.0639
     15 O3        -27.4160    4.5860   -8.4060 O.3       1 B8X        -0.3934
     16 C7        -29.6300    5.8060   -6.1390 C.ar      1 B8X         0.0874
     17 C9        -31.5640    4.4530   -5.7270 C.ar      1 B8X        -0.0540
     18 C24       -37.4150    2.8940   -8.2630 C.3       1 B8X        -0.0213
     19 C25       -37.3180    1.6960   -9.2520 C.3       1 B8X        -0.0469
     20 C26       -38.6630    1.0670   -9.6180 C.3       1 B8X        -0.0636
     21 C23       -35.2570    4.0510   -8.9950 C.ar      1 B8X        -0.0652
     22 C13       -36.3950    2.6910   -5.5290 C.3       1 B8X         0.0075
     23 C30       -36.8750    1.2820   -5.6640 C.3       1 B8X        -0.0225
     24 C14       -35.8540    1.6250   -4.5770 C.3       1 B8X         0.0218
     25 C18       -34.4300    1.1100   -4.7250 C.ar      1 B8X         0.0333
     26 N1        -34.1540    0.5530   -5.9700 N.ar      1 B8X        -0.2976
     27 C19       -32.8770    0.1160   -6.2090 C.ar      1 B8X         0.0028
     28 C15       -31.8400    0.1960   -5.2250 C.ar      1 B8X        -0.0410
     29 C16       -32.1180    0.7440   -3.9350 C.ar      1 B8X        -0.0488
     30 C17       -33.4280    1.2080   -3.6980 C.ar      1 B8X        -0.0320
     31 H1        -33.9290    3.7588   -5.2900 H         1 B8X         0.0544
     32 H2        -31.8449    6.1846   -8.6853 H         1 B8X         0.0615
     33 H3        -33.3638    5.0564   -9.3693 H         1 B8X         0.0553
     34 H4        -29.8394    4.5131   -4.3866 H         1 B8X         0.0634
     35 H5        -29.5401    6.8954   -7.9673 H         1 B8X         0.0634
     36 H6        -26.8832    4.2635   -6.0374 H         1 B8X         0.0527
     37 H7        -25.7128    5.5965   -5.7548 H         1 B8X         0.0527
     38 H8        -25.4776    5.3102   -8.1015 H         1 B8X         0.0573
     39 H9        -26.7784    6.5484   -8.0639 H         1 B8X         0.0573
     40 H10       -27.1793    3.7012   -8.1536 H         1 B8X         0.2095
     41 H11       -32.1180    3.7549   -5.1099 H         1 B8X         0.0615
     42 H12       -38.0409    3.6814   -8.7082 H         1 B8X         0.0415
     43 H13       -37.8708    2.5512   -7.3224 H         1 B8X         0.0415
     44 H14       -36.6895    0.9197   -8.7912 H         1 B8X         0.0283
     45 H15       -36.8417    2.0518  -10.1775 H         1 B8X         0.0283
     46 H16       -38.4998    0.2333  -10.3168 H         1 B8X         0.0231
     47 H17       -39.3044    1.8237  -10.0934 H         1 B8X         0.0231
     48 H18       -39.1522    0.6915   -8.7071 H         1 B8X         0.0231
     49 H19       -35.6206    4.1198  -10.0139 H         1 B8X         0.0542
     50 H20       -37.0757    3.4572   -5.1296 H         1 B8X         0.0476
     51 H21       -36.5696    0.6797   -6.5323 H         1 B8X         0.0319
     52 H22       -37.9076    1.0256   -5.3848 H         1 B8X         0.0319
     53 H23       -36.1408    1.6322   -3.5151 H         1 B8X         0.0516
     54 H24       -32.6434   -0.3061   -7.1797 H         1 B8X         0.0803
     55 H25       -30.8430   -0.1595   -5.4589 H         1 B8X         0.0652
     56 H26       -31.3526    0.8007   -3.1695 H         1 B8X         0.0719
     57 H27       -33.6813    1.6408   -2.7369 H         1 B8X         0.0651
@<TRIPOS>BOND
     1    1    2 ar 
     2    4    1 ar 
     3    2    3 ar 
     4    2   22 1  
     5    3   18 1  
     6   21    3 ar 
     7    6    4 1  
     8    4    7 ar 
     9    5    6 ar 
    10    9    5 ar 
    11   17    6 ar 
    12    7   21 ar 
    13   16    8 ar 
    14    8   17 ar 
    15   16    9 ar 
    16   11   10 2  
    17   11   12 2  
    18   11   13 1  
    19   11   16 1  
    20   13   14 1  
    21   14   15 1  
    22   18   19 1  
    23   19   20 1  
    24   22   23 1  
    25   22   24 1  
    26   23   24 1  
    27   24   25 1  
    28   25   26 ar 
    29   25   30 ar 
    30   26   27 ar 
    31   27   28 ar 
    32   28   29 ar 
    33   29   30 ar 
    34    1   31 1  
    35    5   32 1  
    36    7   33 1  
    37    8   34 1  
    38    9   35 1  
    39   13   36 1  
    40   13   37 1  
    41   14   38 1  
    42   14   39 1  
    43   15   40 1  
    44   17   41 1  
    45   18   42 1  
    46   18   43 1  
    47   19   44 1  
    48   19   45 1  
    49   20   46 1  
    50   20   47 1  
    51   20   48 1  
    52   21   49 1  
    53   22   50 1  
    54   23   51 1  
    55   23   52 1  
    56   24   53 1  
    57   27   54 1  
    58   28   55 1  
    59   29   56 1  
    60   30   57 1  
@<TRIPOS>SUBSTRUCTURE
     1 B8X         1

