### 
### Created by X-TOOL on Sat Aug  7 21:31:17 2021
### 

@<TRIPOS>MOLECULE
6j9w_ligand
   45    46     1     0     0
SMALL
GAST_HUCK


@<TRIPOS>ATOM
      1 C1         -6.5720  -32.4110  -14.0950 C.3       1 TRE         0.1909
      2 C2         -7.8800  -32.1940  -13.3780 C.3       1 TRE         0.1342
      3 C3         -8.7470  -31.2120  -14.1950 C.3       1 TRE         0.1141
      4 C4         -7.9280  -29.9160  -14.3730 C.3       1 TRE         0.1119
      5 C5         -6.6190  -30.2440  -15.0670 C.3       1 TRE         0.1130
      6 C6         -5.7580  -29.0060  -15.2920 C.3       1 TRE         0.0730
      7 O1         -6.8150  -33.0670  -15.3610 O.3       1 TRE        -0.3174
      8 O2         -8.6150  -33.3930  -13.2720 O.3       1 TRE        -0.3841
      9 O3         -9.9230  -30.8280  -13.4600 O.3       1 TRE        -0.3864
     10 O4         -8.7160  -28.9020  -15.0600 O.3       1 TRE        -0.3865
     11 O5         -5.8620  -31.1800  -14.3140 O.3       1 TRE        -0.3404
     12 O6         -4.5720  -29.3070  -16.0870 O.3       1 TRE        -0.3924
     13 C1P        -5.5870  -33.5750  -15.9560 C.3       1 TRE         0.1909
     14 C2P        -5.8620  -34.1020  -17.3340 C.3       1 TRE         0.1342
     15 C3P        -6.6840  -35.3830  -17.2880 C.3       1 TRE         0.1141
     16 C4P        -6.0230  -36.3670  -16.3510 C.3       1 TRE         0.1119
     17 C5P        -5.8430  -35.7310  -14.9940 C.3       1 TRE         0.1130
     18 C6P        -5.1360  -36.7320  -14.0930 C.3       1 TRE         0.0730
     19 O2P        -6.5200  -33.1320  -18.1440 O.3       1 TRE        -0.3841
     20 O3P        -6.7910  -35.9540  -18.6170 O.3       1 TRE        -0.3864
     21 O4P        -6.8480  -37.5190  -16.2160 O.3       1 TRE        -0.3865
     22 O5P        -4.9970  -34.5700  -15.1110 O.3       1 TRE        -0.3404
     23 O6P        -5.5230  -36.5170  -12.8150 O.3       1 TRE        -0.3924
     24 H1         -5.9428  -33.0649  -13.4733 H         1 TRE         0.0938
     25 H2         -7.6834  -31.7868  -12.3753 H         1 TRE         0.0671
     26 H3         -9.0195  -31.6545  -15.1645 H         1 TRE         0.0648
     27 H4         -7.6859  -29.5223  -13.3748 H         1 TRE         0.0647
     28 H5         -6.8561  -30.6869  -16.0456 H         1 TRE         0.0647
     29 H6         -5.4410  -28.6107  -14.3157 H         1 TRE         0.0584
     30 H7         -6.3560  -28.2474  -15.8182 H         1 TRE         0.0584
     31 H8         -8.1136  -34.0274  -12.7734 H         1 TRE         0.2101
     32 H9        -10.4065  -30.1775  -13.9556 H         1 TRE         0.2100
     33 H10        -8.9272  -29.2057  -15.9350 H         1 TRE         0.2100
     34 H11        -4.0469  -29.9580  -15.6364 H         1 TRE         0.2095
     35 H12        -4.8754  -32.7411  -16.0461 H         1 TRE         0.0938
     36 H13        -4.8942  -34.3354  -17.8019 H         1 TRE         0.0671
     37 H14        -7.6928  -35.1516  -16.9154 H         1 TRE         0.0648
     38 H15        -5.0426  -36.6589  -16.7555 H         1 TRE         0.0647
     39 H16        -6.8194  -35.4513  -14.5718 H         1 TRE         0.0647
     40 H17        -4.0472  -36.6002  -14.1767 H         1 TRE         0.0584
     41 H18        -5.4057  -37.7551  -14.3938 H         1 TRE         0.0584
     42 H19        -6.0013  -32.3364  -18.1676 H         1 TRE         0.2101
     43 H20        -7.3126  -36.7471  -18.5786 H         1 TRE         0.2100
     44 H21        -6.9655  -37.9245  -17.0671 H         1 TRE         0.2100
     45 H22        -5.0861  -37.1382  -12.2443 H         1 TRE         0.2095
@<TRIPOS>BOND
     1    1    2 1  
     2    7    1 1  
     3    1   11 1  
     4    2    3 1  
     5    2    8 1  
     6    3    4 1  
     7    3    9 1  
     8    5    4 1  
     9    4   10 1  
    10    5    6 1  
    11   11    5 1  
    12    6   12 1  
    13   13    7 1  
    14   13   14 1  
    15   22   13 1  
    16   15   14 1  
    17   14   19 1  
    18   16   15 1  
    19   15   20 1  
    20   17   16 1  
    21   16   21 1  
    22   18   17 1  
    23   17   22 1  
    24   23   18 1  
    25    1   24 1  
    26    2   25 1  
    27    3   26 1  
    28    4   27 1  
    29    5   28 1  
    30    6   29 1  
    31    6   30 1  
    32    8   31 1  
    33    9   32 1  
    34   10   33 1  
    35   12   34 1  
    36   13   35 1  
    37   14   36 1  
    38   15   37 1  
    39   16   38 1  
    40   17   39 1  
    41   18   40 1  
    42   18   41 1  
    43   19   42 1  
    44   20   43 1  
    45   21   44 1  
    46   23   45 1  
@<TRIPOS>SUBSTRUCTURE
     1 TRE         1

