### 
### Created by X-TOOL on Sat Aug  7 21:31:18 2021
### 

@<TRIPOS>MOLECULE
6j9y_ligand
   45    46     1     0     0
SMALL
GAST_HUCK


@<TRIPOS>ATOM
      1 C1         -6.5680  -32.4900  -14.0560 C.3       1 MAL         0.1884
      2 C2         -7.8940  -32.1630  -13.3110 C.3       1 MAL         0.1341
      3 C3         -8.7230  -31.1960  -14.1110 C.3       1 MAL         0.1141
      4 C4         -7.9270  -29.9170  -14.2870 C.3       1 MAL         0.1119
      5 C5         -6.6340  -30.2630  -15.0390 C.3       1 MAL         0.1130
      6 C6         -5.7300  -29.0740  -15.0910 C.3       1 MAL         0.0730
      7 O1         -6.8570  -33.2500  -15.2150 O.3       1 MAL        -0.3401
      8 O2         -8.6800  -33.3570  -13.1460 O.3       1 MAL        -0.3841
      9 O3         -9.9300  -30.8590  -13.3480 O.3       1 MAL        -0.3864
     10 O4         -8.6510  -28.9490  -15.0490 O.3       1 MAL        -0.3865
     11 O5         -5.8950  -31.2500  -14.2830 O.3       1 MAL        -0.3405
     12 O6         -4.5570  -29.2500  -15.9210 O.3       1 MAL        -0.3924
     13 C1'        -5.7360  -36.6700  -16.9030 C.3       1 MAL         0.1854
     14 C2'        -5.3970  -36.5760  -15.4870 C.3       1 MAL         0.1339
     15 C3'        -6.0850  -35.4570  -14.8530 C.3       1 MAL         0.1144
     16 C4'        -5.7920  -34.1250  -15.6140 C.3       1 MAL         0.1184
     17 C5'        -6.1740  -34.4000  -17.0450 C.3       1 MAL         0.1134
     18 C6'        -6.0740  -33.2760  -17.9520 C.3       1 MAL         0.0730
     19 O1'        -7.0150  -37.2170  -16.9990 O.3       1 MAL        -0.3649
     20 O2'        -5.6100  -37.8530  -14.7470 O.3       1 MAL        -0.3841
     21 O3'        -5.6190  -35.4820  -13.4600 O.3       1 MAL        -0.3864
     22 O5'        -5.4840  -35.4550  -17.6400 O.3       1 MAL        -0.3407
     23 O6'        -4.6130  -32.9420  -17.8750 O.3       1 MAL        -0.3924
     24 H1         -5.9305  -33.1071  -13.4059 H         1 MAL         0.0938
     25 H2         -7.6597  -31.7298  -12.3274 H         1 MAL         0.0671
     26 H3         -8.9877  -31.6298  -15.0866 H         1 MAL         0.0648
     27 H4         -7.6872  -29.4967  -13.2992 H         1 MAL         0.0647
     28 H5         -6.8685  -30.6267  -16.0503 H         1 MAL         0.0647
     29 H6         -5.3963  -28.8505  -14.0669 H         1 MAL         0.0584
     30 H7         -6.3044  -28.2220  -15.4836 H         1 MAL         0.0584
     31 H8         -8.1855  -33.9933  -12.6428 H         1 MAL         0.2101
     32 H9        -10.4367  -30.2142  -13.8275 H         1 MAL         0.2100
     33 H10        -8.8590  -29.3106  -15.9025 H         1 MAL         0.2100
     34 H11        -4.8265  -29.4330  -16.8134 H         1 MAL         0.2095
     35 H12        -5.0546  -37.4134  -17.3424 H         1 MAL         0.0935
     36 H13        -4.3197  -36.3602  -15.4343 H         1 MAL         0.0671
     37 H14        -7.1718  -35.6255  -14.8723 H         1 MAL         0.0648
     38 H15        -4.7761  -33.7294  -15.4676 H         1 MAL         0.0651
     39 H16        -7.2352  -34.6877  -17.0110 H         1 MAL         0.0647
     40 H17        -6.6949  -32.4333  -17.6141 H         1 MAL         0.0584
     41 H18        -6.3657  -33.5598  -18.9739 H         1 MAL         0.0584
     42 H19        -7.2016  -37.4258  -17.9068 H         1 MAL         0.2126
     43 H20        -5.1478  -38.5551  -15.1896 H         1 MAL         0.2101
     44 H21        -5.8343  -36.3212  -13.0702 H         1 MAL         0.2100
     45 H22        -4.4279  -32.2029  -18.4425 H         1 MAL         0.2095
@<TRIPOS>BOND
     1    1    2 1  
     2    7    1 1  
     3    1   11 1  
     4    2    3 1  
     5    2    8 1  
     6    3    4 1  
     7    3    9 1  
     8    5    4 1  
     9    4   10 1  
    10    5    6 1  
    11   11    5 1  
    12    6   12 1  
    13   16    7 1  
    14   13   14 1  
    15   13   19 1  
    16   22   13 1  
    17   15   14 1  
    18   14   20 1  
    19   16   15 1  
    20   15   21 1  
    21   17   16 1  
    22   18   17 1  
    23   17   22 1  
    24   23   18 1  
    25    1   24 1  
    26    2   25 1  
    27    3   26 1  
    28    4   27 1  
    29    5   28 1  
    30    6   29 1  
    31    6   30 1  
    32    8   31 1  
    33    9   32 1  
    34   10   33 1  
    35   12   34 1  
    36   13   35 1  
    37   14   36 1  
    38   15   37 1  
    39   16   38 1  
    40   17   39 1  
    41   18   40 1  
    42   18   41 1  
    43   19   42 1  
    44   20   43 1  
    45   21   44 1  
    46   23   45 1  
@<TRIPOS>SUBSTRUCTURE
     1 MAL         1

