### 
### Created by X-TOOL on Mon Aug  2 16:10:54 2021
### 

@<TRIPOS>MOLECULE
6jad_ligand
   45    46     1     0     0
SMALL
GAST_HUCK


@<TRIPOS>ATOM
      1 C1         -6.4910  -32.4090  -14.3490 C.3       1 GLC         0.1880
      2 C2         -7.7550  -32.1320  -13.5120 C.3       1 GLC         0.1341
      3 C3         -8.6600  -31.1230  -14.1820 C.3       1 GLC         0.1141
      4 C4         -7.8270  -29.8730  -14.3990 C.3       1 GLC         0.1119
      5 C5         -6.5460  -30.1910  -15.1640 C.3       1 GLC         0.1130
      6 C6         -5.6530  -28.9620  -15.1810 C.3       1 GLC         0.0730
      7 O2         -8.4540  -33.3500  -13.2830 O.3       1 GLC        -0.3841
      8 O3         -9.8550  -30.8560  -13.3680 O.3       1 GLC        -0.3864
      9 O4         -8.6380  -28.8420  -15.0340 O.3       1 GLC        -0.3865
     10 O5         -5.8000  -31.1980  -14.5150 O.3       1 GLC        -0.3405
     11 O6         -4.4910  -29.1160  -16.0120 O.3       1 GLC        -0.3924
     12 O1         -4.0040  -37.1430  -15.1260 O.3       1 GLC        -0.3608
     13 C1         -6.0990  -36.8010  -14.0810 C.3       1 GLC         0.1006
     14 O2         -5.4380  -36.2550  -12.9140 O.3       1 GLC        -0.3896
     15 C2         -5.2610  -36.4960  -15.3150 C.3       1 GLC         0.2205
     16 O3         -5.0260  -35.0900  -15.3950 O.3       1 GLC        -0.3364
     17 C3         -5.9160  -36.8960  -16.6130 C.3       1 GLC         0.1392
     18 O4         -6.8610  -37.9620  -16.4720 O.3       1 GLC        -0.3837
     19 C4         -6.5190  -35.5740  -17.1020 C.3       1 GLC         0.1145
     20 O5         -6.8050  -35.6240  -18.5390 O.3       1 GLC        -0.3864
     21 C5         -5.4680  -34.5790  -16.6540 C.3       1 GLC         0.1138
     22 C6         -5.8790  -33.1140  -16.5400 C.3       1 GLC         0.0796
     23 O6         -6.9410  -32.9480  -15.5860 O.3       1 GLC        -0.3460
     24 H1         -5.8401  -33.1354  -13.8404 H         1 GLC         0.0937
     25 H2         -7.4425  -31.7201  -12.5411 H         1 GLC         0.0671
     26 H3         -8.9862  -31.5150  -15.1566 H         1 GLC         0.0648
     27 H4         -7.5278  -29.4928  -13.4111 H         1 GLC         0.0647
     28 H5         -6.7965  -30.5030  -16.1886 H         1 GLC         0.0647
     29 H6         -5.3219  -28.7565  -14.1523 H         1 GLC         0.0584
     30 H7         -6.2391  -28.1095  -15.5548 H         1 GLC         0.0584
     31 H8         -7.8731  -33.9729  -12.8622 H         1 GLC         0.2101
     32 H9        -10.3973  -30.2104  -13.8058 H         1 GLC         0.2100
     33 H10        -8.8880  -29.1288  -15.9045 H         1 GLC         0.2100
     34 H11        -4.7629  -29.2855  -16.9064 H         1 GLC         0.2095
     35 H12        -4.1376  -38.0819  -15.0700 H         1 GLC         0.2129
     36 H13        -7.0937  -36.3439  -14.1888 H         1 GLC         0.0612
     37 H14        -6.2061  -37.8899  -13.9682 H         1 GLC         0.0612
     38 H15        -5.9570  -36.4426  -12.1407 H         1 GLC         0.2096
     39 H16        -5.1481  -37.2326  -17.3251 H         1 GLC         0.0675
     40 H17        -7.2361  -38.1655  -17.3208 H         1 GLC         0.2101
     41 H18        -7.4654  -35.3650  -16.5818 H         1 GLC         0.0648
     42 H19        -7.4235  -36.3237  -18.7135 H         1 GLC         0.2100
     43 H20        -4.6371  -34.6166  -17.3739 H         1 GLC         0.0647
     44 H21        -6.2207  -32.7590  -17.5235 H         1 GLC         0.0587
     45 H22        -5.0104  -32.5211  -16.2176 H         1 GLC         0.0587
@<TRIPOS>BOND
     1    1    2 1  
     2    1   10 1  
     3   23    1 1  
     4    2    3 1  
     5    2    7 1  
     6    3    4 1  
     7    3    8 1  
     8    5    4 1  
     9    4    9 1  
    10    5    6 1  
    11   10    5 1  
    12    6   11 1  
    13   15   12 1  
    14   13   14 1  
    15   15   13 1  
    16   16   15 1  
    17   17   15 1  
    18   21   16 1  
    19   17   18 1  
    20   19   17 1  
    21   19   20 1  
    22   21   19 1  
    23   22   21 1  
    24   22   23 1  
    25    1   24 1  
    26    2   25 1  
    27    3   26 1  
    28    4   27 1  
    29    5   28 1  
    30    6   29 1  
    31    6   30 1  
    32    7   31 1  
    33    8   32 1  
    34    9   33 1  
    35   11   34 1  
    36   12   35 1  
    37   13   36 1  
    38   13   37 1  
    39   14   38 1  
    40   17   39 1  
    41   18   40 1  
    42   19   41 1  
    43   20   42 1  
    44   21   43 1  
    45   22   44 1  
    46   22   45 1  
@<TRIPOS>SUBSTRUCTURE
     1 GLC         1

