### 
### Created by X-TOOL on Sat Aug  7 21:31:17 2021
### 

@<TRIPOS>MOLECULE
6jag_ligand
   45    46     1     0     0
SMALL
GAST_HUCK


@<TRIPOS>ATOM
      1 C1         -6.6520  -32.4990  -13.7710 C.3       1 SUC         0.1912
      2 C2         -8.0180  -32.1690  -13.1280 C.3       1 SUC         0.1342
      3 C3         -8.8080  -31.2110  -14.0150 C.3       1 SUC         0.1141
      4 C4         -7.9450  -29.9650  -14.2510 C.3       1 SUC         0.1119
      5 C5         -6.6480  -30.3840  -14.9320 C.3       1 SUC         0.1130
      6 C6         -5.7670  -29.1520  -15.1090 C.3       1 SUC         0.0730
      7 O1         -6.8960  -33.4220  -14.8210 O.3       1 SUC        -0.3125
      8 O2         -8.8210  -33.3330  -12.9200 O.3       1 SUC        -0.3841
      9 O3        -10.0130  -30.7860  -13.2940 O.3       1 SUC        -0.3864
     10 O4         -8.6650  -28.9690  -15.0030 O.3       1 SUC        -0.3865
     11 O5         -5.9350  -31.3260  -14.1180 O.3       1 SUC        -0.3404
     12 O6         -4.5940  -29.4330  -15.9120 O.3       1 SUC        -0.3924
     13 C1'        -4.5150  -33.3730  -15.5710 C.3       1 SUC         0.1009
     14 C2'        -5.8040  -34.1770  -15.3760 C.3       1 SUC         0.2252
     15 C3'        -5.5180  -35.4370  -14.4740 C.3       1 SUC         0.1395
     16 C4'        -6.5130  -36.4510  -14.9710 C.3       1 SUC         0.1145
     17 C5'        -6.3950  -36.1750  -16.4850 C.3       1 SUC         0.1134
     18 C6'        -7.5860  -36.6220  -17.2500 C.3       1 SUC         0.0730
     19 O1'        -3.5310  -34.1790  -16.2380 O.3       1 SUC        -0.3896
     20 O2'        -6.2770  -34.7500  -16.5880 O.3       1 SUC        -0.3362
     21 O3'        -5.4370  -35.2860  -13.0590 O.3       1 SUC        -0.3837
     22 O4'        -6.1980  -37.8410  -14.6310 O.3       1 SUC        -0.3864
     23 O6'        -7.4040  -36.5230  -18.6800 O.3       1 SUC        -0.3924
     24 H1         -6.0406  -33.0200  -13.0195 H         1 SUC         0.0939
     25 H2         -7.8327  -31.6898  -12.1554 H         1 SUC         0.0671
     26 H3         -9.0729  -31.6921  -14.9681 H         1 SUC         0.0648
     27 H4         -7.6924  -29.5278  -13.2738 H         1 SUC         0.0647
     28 H5         -6.8726  -30.8328  -15.9108 H         1 SUC         0.0647
     29 H6         -5.4430  -28.8020  -14.1178 H         1 SUC         0.0584
     30 H7         -6.3543  -28.3636  -15.6024 H         1 SUC         0.0584
     31 H8         -8.3500  -33.9470  -12.3689 H         1 SUC         0.2101
     32 H9        -10.4857  -30.1494  -13.8172 H         1 SUC         0.2100
     33 H10        -8.8826  -29.3168  -15.8599 H         1 SUC         0.2100
     34 H11        -4.8646  -29.7305  -16.7727 H         1 SUC         0.2095
     35 H12        -4.1272  -33.0622  -14.5897 H         1 SUC         0.0612
     36 H13        -4.7296  -32.4821  -16.1794 H         1 SUC         0.0612
     37 H14        -4.5192  -35.7994  -14.7587 H         1 SUC         0.0675
     38 H15        -7.5231  -36.2249  -14.5986 H         1 SUC         0.0648
     39 H16        -5.5001  -36.6708  -16.8890 H         1 SUC         0.0647
     40 H17        -8.4439  -35.9971  -16.9611 H         1 SUC         0.0584
     41 H18        -7.7941  -37.6714  -16.9943 H         1 SUC         0.0584
     42 H19        -3.8647  -34.4469  -17.0861 H         1 SUC         0.2096
     43 H20        -6.2828  -35.0151  -12.7216 H         1 SUC         0.2101
     44 H21        -5.3074  -38.0369  -14.8971 H         1 SUC         0.2100
     45 H22        -6.6697  -37.0653  -18.9429 H         1 SUC         0.2095
@<TRIPOS>BOND
     1    1    2 1  
     2    7    1 1  
     3    1   11 1  
     4    2    3 1  
     5    2    8 1  
     6    3    4 1  
     7    3    9 1  
     8    5    4 1  
     9    4   10 1  
    10    5    6 1  
    11   11    5 1  
    12    6   12 1  
    13   14    7 1  
    14   14   13 1  
    15   13   19 1  
    16   14   15 1  
    17   20   14 1  
    18   16   15 1  
    19   15   21 1  
    20   17   16 1  
    21   16   22 1  
    22   18   17 1  
    23   17   20 1  
    24   23   18 1  
    25    1   24 1  
    26    2   25 1  
    27    3   26 1  
    28    4   27 1  
    29    5   28 1  
    30    6   29 1  
    31    6   30 1  
    32    8   31 1  
    33    9   32 1  
    34   10   33 1  
    35   12   34 1  
    36   13   35 1  
    37   13   36 1  
    38   15   37 1  
    39   16   38 1  
    40   17   39 1  
    41   18   40 1  
    42   18   41 1  
    43   19   42 1  
    44   21   43 1  
    45   22   44 1  
    46   23   45 1  
@<TRIPOS>SUBSTRUCTURE
     1 SUC         1

