### 
### Created by X-TOOL on Sat Aug  7 21:31:16 2021
### 

@<TRIPOS>MOLECULE
6jan_ligand
   45    46     1     0     0
SMALL
GAST_HUCK


@<TRIPOS>ATOM
      1 C1         -6.2530  -32.2160  -13.7120 C.3       1 MAL         0.1884
      2 C2         -7.5990  -31.9080  -13.0220 C.3       1 MAL         0.1341
      3 C3         -8.4420  -30.8730  -13.7990 C.3       1 MAL         0.1141
      4 C4         -7.6070  -29.6330  -14.0220 C.3       1 MAL         0.1119
      5 C5         -6.2840  -30.0180  -14.7300 C.3       1 MAL         0.1130
      6 C6         -5.4430  -28.7400  -14.8250 C.3       1 MAL         0.0730
      7 O1         -6.6390  -32.9570  -14.8460 O.3       1 MAL        -0.3401
      8 O2         -8.3780  -33.0740  -12.9200 O.3       1 MAL        -0.3841
      9 O3         -9.6080  -30.5500  -13.0210 O.3       1 MAL        -0.3864
     10 O4         -8.3830  -28.6790  -14.7520 O.3       1 MAL        -0.3865
     11 O5         -5.5580  -31.0000  -14.0170 O.3       1 MAL        -0.3405
     12 O6         -4.2340  -28.9540  -15.6010 O.3       1 MAL        -0.3924
     13 C1'        -5.4100  -36.5510  -16.6470 C.3       1 MAL         0.1854
     14 C2'        -5.1080  -36.3770  -15.1770 C.3       1 MAL         0.1339
     15 C3'        -5.8580  -35.2610  -14.5330 C.3       1 MAL         0.1144
     16 C4'        -5.7210  -33.9440  -15.3300 C.3       1 MAL         0.1184
     17 C5'        -5.9750  -34.1510  -16.8110 C.3       1 MAL         0.1134
     18 C6'        -5.5870  -32.9630  -17.6870 C.3       1 MAL         0.0730
     19 O1'        -6.7050  -36.9390  -16.7890 O.3       1 MAL        -0.3649
     20 O2'        -5.3500  -37.6380  -14.4950 O.3       1 MAL        -0.3841
     21 O3'        -5.3620  -35.1670  -13.1880 O.3       1 MAL        -0.3864
     22 O5'        -5.2110  -35.2450  -17.2940 O.3       1 MAL        -0.3407
     23 O6'        -4.1900  -32.6960  -17.6010 O.3       1 MAL        -0.3924
     24 H1         -5.6135  -32.8307  -13.0615 H         1 MAL         0.0938
     25 H2         -7.3901  -31.5174  -12.0151 H         1 MAL         0.0671
     26 H3         -8.7486  -31.2916  -14.7689 H         1 MAL         0.0648
     27 H4         -7.3544  -29.1936  -13.0457 H         1 MAL         0.0647
     28 H5         -6.5061  -30.3994  -15.7376 H         1 MAL         0.0647
     29 H6         -5.1642  -28.4195  -13.8104 H         1 MAL         0.0584
     30 H7         -6.0420  -27.9531  -15.3066 H         1 MAL         0.0584
     31 H8         -7.8915  -33.7381  -12.4458 H         1 MAL         0.2101
     32 H9        -10.1270  -29.9029  -13.4841 H         1 MAL         0.2100
     33 H10        -8.6072  -29.0389  -15.6022 H         1 MAL         0.2100
     34 H11        -3.7093  -29.6296  -15.1878 H         1 MAL         0.2095
     35 H12        -4.7410  -37.3030  -17.0907 H         1 MAL         0.0935
     36 H13        -4.0376  -36.1406  -15.0853 H         1 MAL         0.0671
     37 H14        -6.9265  -35.5198  -14.4978 H         1 MAL         0.0648
     38 H15        -4.6952  -33.5692  -15.1987 H         1 MAL         0.0651
     39 H16        -7.0468  -34.3584  -16.9460 H         1 MAL         0.0647
     40 H17        -6.1435  -32.0745  -17.3542 H         1 MAL         0.0584
     41 H18        -5.8459  -33.1877  -18.7322 H         1 MAL         0.0584
     42 H19        -6.9138  -37.0093  -17.7131 H         1 MAL         0.2126
     43 H20        -4.8607  -38.3289  -14.9260 H         1 MAL         0.2101
     44 H21        -5.4732  -36.0034  -12.7515 H         1 MAL         0.2100
     45 H22        -3.9759  -31.9540  -18.1542 H         1 MAL         0.2095
@<TRIPOS>BOND
     1    1    2 1  
     2    7    1 1  
     3    1   11 1  
     4    2    3 1  
     5    2    8 1  
     6    3    4 1  
     7    3    9 1  
     8    5    4 1  
     9    4   10 1  
    10    5    6 1  
    11   11    5 1  
    12    6   12 1  
    13   16    7 1  
    14   13   14 1  
    15   13   19 1  
    16   22   13 1  
    17   15   14 1  
    18   14   20 1  
    19   16   15 1  
    20   15   21 1  
    21   17   16 1  
    22   18   17 1  
    23   17   22 1  
    24   23   18 1  
    25    1   24 1  
    26    2   25 1  
    27    3   26 1  
    28    4   27 1  
    29    5   28 1  
    30    6   29 1  
    31    6   30 1  
    32    8   31 1  
    33    9   32 1  
    34   10   33 1  
    35   12   34 1  
    36   13   35 1  
    37   14   36 1  
    38   15   37 1  
    39   16   38 1  
    40   17   39 1  
    41   18   40 1  
    42   18   41 1  
    43   19   42 1  
    44   20   43 1  
    45   21   44 1  
    46   23   45 1  
@<TRIPOS>SUBSTRUCTURE
     1 MAL         1

