### 
### Created by X-TOOL on Mon Aug  2 16:10:54 2021
### 

@<TRIPOS>MOLECULE
6jao_ligand
   45    46     1     0     0
SMALL
GAST_HUCK


@<TRIPOS>ATOM
      1 C1         -6.6410  -32.5720  -14.5710 C.3       1 GLC         0.1880
      2 C2         -7.8880  -32.4070  -13.7090 C.3       1 GLC         0.1341
      3 C3         -8.8520  -31.4010  -14.3440 C.3       1 GLC         0.1141
      4 C4         -8.1300  -30.0600  -14.5350 C.3       1 GLC         0.1119
      5 C5         -6.7760  -30.2810  -15.3030 C.3       1 GLC         0.1130
      6 C6         -5.9040  -29.0460  -15.3530 C.3       1 GLC         0.0730
      7 O2         -8.6270  -33.6240  -13.5700 O.3       1 GLC        -0.3841
      8 O3        -10.0190  -31.1230  -13.5170 O.3       1 GLC        -0.3864
      9 O4         -8.9030  -29.0530  -15.2350 O.3       1 GLC        -0.3865
     10 O5         -6.0130  -31.3260  -14.7030 O.3       1 GLC        -0.3405
     11 O6         -4.7180  -29.2690  -16.1700 O.3       1 GLC        -0.3924
     12 O1         -4.2070  -37.2700  -15.3750 O.3       1 GLC        -0.3608
     13 C1         -6.3310  -36.8890  -14.3030 C.3       1 GLC         0.1006
     14 O2         -5.6120  -36.4710  -13.1130 O.3       1 GLC        -0.3896
     15 C2         -5.4780  -36.6330  -15.5250 C.3       1 GLC         0.2205
     16 O3         -5.1870  -35.2350  -15.6610 O.3       1 GLC        -0.3364
     17 C3         -6.1410  -37.0200  -16.8190 C.3       1 GLC         0.1392
     18 O4         -7.0700  -38.0880  -16.6690 O.3       1 GLC        -0.3837
     19 C4         -6.7530  -35.7290  -17.3130 C.3       1 GLC         0.1145
     20 O5         -6.9930  -35.7890  -18.7330 O.3       1 GLC        -0.3864
     21 C5         -5.6430  -34.7800  -16.9210 C.3       1 GLC         0.1138
     22 C6         -6.0370  -33.3230  -16.8560 C.3       1 GLC         0.0796
     23 O6         -7.0820  -33.0920  -15.8460 O.3       1 GLC        -0.3460
     24 H1         -5.9439  -33.2821  -14.1022 H         1 GLC         0.0937
     25 H2         -7.5798  -32.0515  -12.7147 H         1 GLC         0.0671
     26 H3         -9.1819  -31.7944  -15.3168 H         1 GLC         0.0648
     27 H4         -7.9020  -29.6661  -13.5336 H         1 GLC         0.0647
     28 H5         -7.0223  -30.5709  -16.3351 H         1 GLC         0.0647
     29 H6         -5.5915  -28.7862  -14.3309 H         1 GLC         0.0584
     30 H7         -6.4835  -28.2151  -15.7817 H         1 GLC         0.0584
     31 H8         -8.0715  -34.2874  -13.1777 H         1 GLC         0.2101
     32 H9        -10.5772  -30.4947  -13.9599 H         1 GLC         0.2100
     33 H10        -9.0785  -29.3489  -16.1205 H         1 GLC         0.2100
     34 H11        -4.2111  -29.9832  -15.8020 H         1 GLC         0.2095
     35 H12        -4.3328  -38.2068  -15.2795 H         1 GLC         0.2129
     36 H13        -7.2680  -36.3186  -14.3843 H         1 GLC         0.0612
     37 H14        -6.5601  -37.9627  -14.2345 H         1 GLC         0.0612
     38 H15        -6.1495  -36.6326  -12.3465 H         1 GLC         0.2096
     39 H16        -5.3750  -37.3512  -17.5355 H         1 GLC         0.0675
     40 H17        -7.4571  -38.2903  -17.5126 H         1 GLC         0.2101
     41 H18        -7.6931  -35.4883  -16.7951 H         1 GLC         0.0648
     42 H19        -7.5891  -36.5040  -18.9223 H         1 GLC         0.2100
     43 H20        -4.8308  -34.8696  -17.6574 H         1 GLC         0.0647
     44 H21        -6.4160  -33.0108  -17.8403 H         1 GLC         0.0587
     45 H22        -5.1512  -32.7243  -16.5973 H         1 GLC         0.0587
@<TRIPOS>BOND
     1    1    2 1  
     2    1   10 1  
     3   23    1 1  
     4    2    3 1  
     5    2    7 1  
     6    3    4 1  
     7    3    8 1  
     8    5    4 1  
     9    4    9 1  
    10    5    6 1  
    11   10    5 1  
    12    6   11 1  
    13   15   12 1  
    14   13   14 1  
    15   15   13 1  
    16   16   15 1  
    17   17   15 1  
    18   21   16 1  
    19   17   18 1  
    20   19   17 1  
    21   19   20 1  
    22   21   19 1  
    23   22   21 1  
    24   22   23 1  
    25    1   24 1  
    26    2   25 1  
    27    3   26 1  
    28    4   27 1  
    29    5   28 1  
    30    6   29 1  
    31    6   30 1  
    32    7   31 1  
    33    8   32 1  
    34    9   33 1  
    35   11   34 1  
    36   12   35 1  
    37   13   36 1  
    38   13   37 1  
    39   14   38 1  
    40   17   39 1  
    41   18   40 1  
    42   19   41 1  
    43   20   42 1  
    44   21   43 1  
    45   22   44 1  
    46   22   45 1  
@<TRIPOS>SUBSTRUCTURE
     1 GLC         1

