### 
### Created by X-TOOL on Sat Aug  7 21:31:16 2021
### 

@<TRIPOS>MOLECULE
6jap_ligand
   45    46     1     0     0
SMALL
GAST_HUCK


@<TRIPOS>ATOM
      1 C1         -6.8400  -32.5850  -13.8070 C.3       1 SUC         0.1912
      2 C2         -8.1780  -32.2330  -13.1380 C.3       1 SUC         0.1342
      3 C3         -9.0420  -31.2970  -14.0060 C.3       1 SUC         0.1141
      4 C4         -8.2160  -30.0500  -14.3170 C.3       1 SUC         0.1119
      5 C5         -6.8510  -30.4520  -14.9520 C.3       1 SUC         0.1130
      6 C6         -5.9770  -29.2520  -15.2050 C.3       1 SUC         0.0730
      7 O1         -7.0530  -33.5110  -14.8980 O.3       1 SUC        -0.3125
      8 O2         -8.9850  -33.4060  -12.9800 O.3       1 SUC        -0.3841
      9 O3        -10.2100  -30.9000  -13.2910 O.3       1 SUC        -0.3864
     10 O4         -8.9140  -29.0680  -15.1010 O.3       1 SUC        -0.3865
     11 O5         -6.1240  -31.3980  -14.1520 O.3       1 SUC        -0.3404
     12 O6         -4.7760  -29.5270  -15.9820 O.3       1 SUC        -0.3924
     13 C1'        -4.7230  -33.3820  -15.6480 C.3       1 SUC         0.1009
     14 C2'        -5.9730  -34.2880  -15.3880 C.3       1 SUC         0.2252
     15 C3'        -5.6090  -35.5460  -14.5450 C.3       1 SUC         0.1395
     16 C4'        -6.6110  -36.5400  -15.0850 C.3       1 SUC         0.1145
     17 C5'        -6.4970  -36.1980  -16.5810 C.3       1 SUC         0.1134
     18 C6'        -7.7230  -36.5940  -17.3350 C.3       1 SUC         0.0730
     19 O1'        -3.7180  -34.1580  -16.3070 O.3       1 SUC        -0.3896
     20 O2'        -6.4420  -34.7490  -16.6310 O.3       1 SUC        -0.3362
     21 O3'        -5.6980  -35.3800  -13.1440 O.3       1 SUC        -0.3837
     22 O4'        -6.3970  -37.9100  -14.7380 O.3       1 SUC        -0.3864
     23 O6'        -7.5670  -36.5250  -18.7600 O.3       1 SUC        -0.3924
     24 H1         -6.2276  -33.1139  -13.0619 H         1 SUC         0.0939
     25 H2         -7.9772  -31.7675  -12.1618 H         1 SUC         0.0671
     26 H3         -9.3295  -31.8070  -14.9373 H         1 SUC         0.0648
     27 H4         -7.9927  -29.5713  -13.3521 H         1 SUC         0.0647
     28 H5         -7.0678  -30.9258  -15.9207 H         1 SUC         0.0647
     29 H6         -5.6691  -28.8411  -14.2322 H         1 SUC         0.0584
     30 H7         -6.5722  -28.5029  -15.7477 H         1 SUC         0.0584
     31 H8         -8.5181  -34.0411  -12.4498 H         1 SUC         0.2101
     32 H9        -10.7174  -30.2992  -13.8241 H         1 SUC         0.2100
     33 H10        -9.0838  -29.4185  -15.9675 H         1 SUC         0.2100
     34 H11        -5.0223  -29.8723  -16.8321 H         1 SUC         0.2095
     35 H12        -4.3320  -33.0083  -14.6902 H         1 SUC         0.0612
     36 H13        -5.0091  -32.5315  -16.2842 H         1 SUC         0.0612
     37 H14        -4.5835  -35.8694  -14.7768 H         1 SUC         0.0675
     38 H15        -7.6172  -36.2832  -14.7222 H         1 SUC         0.0648
     39 H16        -5.6025  -36.6613  -17.0228 H         1 SUC         0.0647
     40 H17        -8.5438  -35.9229  -17.0419 H         1 SUC         0.0584
     41 H18        -7.9801  -37.6283  -17.0628 H         1 SUC         0.0584
     42 H19        -4.0593  -34.4803  -17.1329 H         1 SUC         0.2096
     43 H20        -6.5663  -35.0680  -12.9177 H         1 SUC         0.2101
     44 H21        -5.5224  -38.1697  -15.0029 H         1 SUC         0.2100
     45 H22        -6.8666  -37.1075  -19.0293 H         1 SUC         0.2095
@<TRIPOS>BOND
     1    1    2 1  
     2    7    1 1  
     3    1   11 1  
     4    2    3 1  
     5    2    8 1  
     6    3    4 1  
     7    3    9 1  
     8    5    4 1  
     9    4   10 1  
    10    5    6 1  
    11   11    5 1  
    12    6   12 1  
    13   14    7 1  
    14   14   13 1  
    15   13   19 1  
    16   14   15 1  
    17   20   14 1  
    18   16   15 1  
    19   15   21 1  
    20   17   16 1  
    21   16   22 1  
    22   18   17 1  
    23   17   20 1  
    24   23   18 1  
    25    1   24 1  
    26    2   25 1  
    27    3   26 1  
    28    4   27 1  
    29    5   28 1  
    30    6   29 1  
    31    6   30 1  
    32    8   31 1  
    33    9   32 1  
    34   10   33 1  
    35   12   34 1  
    36   13   35 1  
    37   13   36 1  
    38   15   37 1  
    39   16   38 1  
    40   17   39 1  
    41   18   40 1  
    42   18   41 1  
    43   19   42 1  
    44   21   43 1  
    45   22   44 1  
    46   23   45 1  
@<TRIPOS>SUBSTRUCTURE
     1 SUC         1

