### 
### Created by X-TOOL on Sat Aug  7 21:31:16 2021
### 

@<TRIPOS>MOLECULE
6jaq_ligand
   24    24     1     0     0
SMALL
GAST_HUCK


@<TRIPOS>ATOM
      1 C1         -6.5250  -32.2090  -14.0660 C.3       1 GLC         0.1854
      2 C2         -7.7860  -31.9190  -13.2750 C.3       1 GLC         0.1339
      3 C3         -8.6230  -30.8860  -14.0070 C.3       1 GLC         0.1141
      4 C4         -7.7890  -29.6290  -14.1910 C.3       1 GLC         0.1119
      5 C5         -6.4980  -29.9690  -14.9340 C.3       1 GLC         0.1130
      6 C6         -5.6010  -28.7430  -15.0220 C.3       1 GLC         0.0730
      7 O1         -6.8680  -32.8100  -15.2890 O.3       1 GLC        -0.3649
      8 O2         -8.5220  -33.1440  -13.1360 O.3       1 GLC        -0.3841
      9 O3         -9.7890  -30.6020  -13.2120 O.3       1 GLC        -0.3864
     10 O4         -8.5470  -28.6900  -14.9470 O.3       1 GLC        -0.3865
     11 O5         -5.8050  -30.9780  -14.2430 O.3       1 GLC        -0.3407
     12 O6         -4.4340  -28.9560  -15.8440 O.3       1 GLC        -0.3924
     13 H1         -5.8931  -32.9082  -13.4987 H         1 GLC         0.0935
     14 H2         -7.5195  -31.5332  -12.2799 H         1 GLC         0.0671
     15 H3         -8.9290  -31.2748  -14.9894 H         1 GLC         0.0648
     16 H4         -7.5432  -29.2006  -13.2081 H         1 GLC         0.0647
     17 H5         -6.7440  -30.3177  -15.9478 H         1 GLC         0.0647
     18 H6         -5.2709  -28.4765  -14.0071 H         1 GLC         0.0584
     19 H7         -6.1831  -27.9126  -15.4482 H         1 GLC         0.0584
     20 H8         -6.0772  -33.0002  -15.7799 H         1 GLC         0.2126
     21 H9         -7.9887  -33.7822  -12.6769 H         1 GLC         0.2101
     22 H10       -10.3150  -29.9418  -13.6480 H         1 GLC         0.2100
     23 H11        -8.7603  -29.0650  -15.7934 H         1 GLC         0.2100
     24 H12        -4.7060  -29.1792  -16.7264 H         1 GLC         0.2095
@<TRIPOS>BOND
     1    1    2 1  
     2    1    7 1  
     3   11    1 1  
     4    3    2 1  
     5    2    8 1  
     6    4    3 1  
     7    3    9 1  
     8    5    4 1  
     9    4   10 1  
    10    6    5 1  
    11    5   11 1  
    12   12    6 1  
    13    1   13 1  
    14    2   14 1  
    15    3   15 1  
    16    4   16 1  
    17    5   17 1  
    18    6   18 1  
    19    6   19 1  
    20    7   20 1  
    21    8   21 1  
    22    9   22 1  
    23   10   23 1  
    24   12   24 1  
@<TRIPOS>SUBSTRUCTURE
     1 GLC         1

