### 
### Created by X-TOOL on Mon Aug  2 16:14:28 2021
### 

@<TRIPOS>MOLECULE
6jav_ligand
   49    52     1     0     0
SMALL
GAST_HUCK


@<TRIPOS>ATOM
      1 N1          9.8030   -9.9700    1.4680 N.4       1 BC0         0.2461
      2 N3         14.4590  -12.5000    4.9430 N.ar      1 BC0        -0.2742
      3 C4         11.3180  -11.6820    3.1830 C.2       1 BC0        -0.0334
      4 C5         11.9200  -10.8930    2.2810 C.2       1 BC0         0.0559
      5 C6         13.5530  -11.9790    4.0580 C.ar      1 BC0         0.0944
      6 C7         12.2280  -12.3010    4.1900 C.ar      1 BC0         0.0343
      7 C8         11.8710  -13.1880    5.2750 C.ar      1 BC0         0.1186
      8 C10        16.4370  -15.3200    6.5060 C.3       1 BC0         0.0458
      9 C13        18.9110  -17.1570    8.9700 C.ar      1 BC0        -0.0546
     10 C15        17.2640  -18.6980    8.2330 C.ar      1 BC0        -0.0546
     11 C17         9.9440  -13.7800    6.8250 C.3       1 BC0         0.0576
     12 C20        11.1360  -10.2170    1.2200 C.3       1 BC0         0.0078
     13 C1          9.1990   -9.5650    0.4160 C.3       1 BC0        -0.0416
     14 C11        17.1530  -16.4180    7.4400 C.ar      1 BC0        -0.0301
     15 C12        18.3090  -16.1500    8.1910 C.ar      1 BC0        -0.0587
     16 C14        18.3820  -18.4250    8.9850 C.ar      1 BC0         0.0330
     17 C16        16.6560  -17.6760    7.4580 C.ar      1 BC0        -0.0587
     18 C18         8.3910  -13.7390    6.7760 C.2       1 BC0        -0.0669
     19 C19         7.7080  -14.8080    7.0940 C.2       1 BC0        -0.1155
     20 C2          9.0390  -10.9500    2.1250 C.3       1 BC0        -0.0267
     21 C3          9.8010  -11.8880    3.1220 C.3       1 BC0         0.0042
     22 C9         14.0780  -13.3350    5.9450 C.ar      1 BC0         0.1333
     23 N2         12.7920  -13.6470    6.0830 N.ar      1 BC0        -0.2569
     24 N4         10.4680  -13.5780    5.4740 N.pl3     1 BC0        -0.2909
     25 S1         13.5820  -10.9460    2.7050 S.3       1 BC0        -0.0211
     26 S2         15.2380  -14.0840    7.1990 S.3       1 BC0        -0.0535
     27 CL         19.1570  -19.7240    9.9760 Cl        1 BC0        -0.0771
     28 H1          9.8090   -9.1874    2.1032 H         1 BC0         0.2046
     29 H2         15.8915  -15.8801    5.7323 H         1 BC0         0.0571
     30 H3         17.2445  -14.7385    6.0371 H         1 BC0         0.0571
     31 H4         19.7929  -16.9314    9.5586 H         1 BC0         0.0606
     32 H5         16.8451  -19.6978    8.2319 H         1 BC0         0.0606
     33 H6         10.2754  -14.7569    7.2070 H         1 BC0         0.0706
     34 H7         10.3134  -12.9829    7.4869 H         1 BC0         0.0706
     35 H8         11.6183   -9.2485    1.0216 H         1 BC0         0.0979
     36 H9         11.1917  -10.8458    0.3192 H         1 BC0         0.0979
     37 H10         8.1405   -9.3782    0.6499 H         1 BC0         0.0778
     38 H11         9.2712  -10.3339   -0.3673 H         1 BC0         0.0778
     39 H12         9.6657   -8.6345    0.0605 H         1 BC0         0.0778
     40 H13        18.7428  -15.1568    8.1708 H         1 BC0         0.0558
     41 H14        15.7761  -17.9082    6.8690 H         1 BC0         0.0558
     42 H15         7.8755  -12.8269    6.4791 H         1 BC0         0.0693
     43 H16         6.6196  -14.7882    7.0624 H         1 BC0         0.0290
     44 H17         8.2276  -15.7180    7.3904 H         1 BC0         0.0290
     45 H18         8.5799  -11.5864    1.3541 H         1 BC0         0.0829
     46 H19         8.2503  -10.4330    2.6912 H         1 BC0         0.0829
     47 H20         9.3937  -11.7163    4.1293 H         1 BC0         0.0400
     48 H21         9.6109  -12.9291    2.8221 H         1 BC0         0.0400
     49 H22         9.8515  -13.7096    4.6595 H         1 BC0         0.1885
@<TRIPOS>BOND
     1   12    1 1  
     2    1   13 1  
     3   20    1 1  
     4    2    5 ar 
     5   22    2 ar 
     6    3    4 2  
     7    6    3 1  
     8    3   21 1  
     9    4   12 1  
    10   25    4 1  
    11    5    6 ar 
    12    5   25 1  
    13    7    6 ar 
    14   23    7 ar 
    15    7   24 1  
    16    8   14 1  
    17   26    8 1  
    18   15    9 ar 
    19    9   16 ar 
    20   10   16 ar 
    21   17   10 ar 
    22   11   18 1  
    23   24   11 1  
    24   14   15 ar 
    25   14   17 ar 
    26   16   27 1  
    27   18   19 2  
    28   21   20 1  
    29   22   23 ar 
    30   22   26 1  
    31    1   28 1  
    32    8   29 1  
    33    8   30 1  
    34    9   31 1  
    35   10   32 1  
    36   11   33 1  
    37   11   34 1  
    38   12   35 1  
    39   12   36 1  
    40   13   37 1  
    41   13   38 1  
    42   13   39 1  
    43   15   40 1  
    44   17   41 1  
    45   18   42 1  
    46   19   43 1  
    47   19   44 1  
    48   20   45 1  
    49   20   46 1  
    50   21   47 1  
    51   21   48 1  
    52   24   49 1  
@<TRIPOS>SUBSTRUCTURE
     1 BC0         1

