### 
### Created by X-TOOL on Mon Aug  2 16:14:28 2021
### 

@<TRIPOS>MOLECULE
6jaw_ligand
   50    53     1     0     0
SMALL
GAST_HUCK


@<TRIPOS>ATOM
      1 C10       -10.3060    9.9430    1.5320 C.ar      1 BBO        -0.0542
      2 C13       -14.2410   12.3730    3.3850 C.3       1 BBO        -0.0184
      3 C15       -16.0940   12.3270    5.0820 C.3       1 BBO        -0.0268
      4 C17       -19.3740   13.8080    4.3800 C.3       1 BBO         0.0878
      5 C01        -8.9340    9.7360    1.4460 C.ar      1 BBO        -0.0721
      6 C02        -8.0480   10.5180    2.1970 C.ar      1 BBO        -0.0659
      7 C03        -8.5400   11.5130    3.0410 C.ar      1 BBO        -0.0302
      8 C04        -7.6890   12.3210    3.8120 C.ar      1 BBO        -0.0659
      9 C05        -8.2420   13.3070    4.6420 C.ar      1 BBO        -0.0721
     10 C06        -9.6030   13.5030    4.7230 C.ar      1 BBO        -0.0542
     11 C07       -10.4220   12.7170    3.9720 C.ar      1 BBO         0.0429
     12 C08        -9.9060   11.7180    3.1270 C.ar      1 BBO         0.0090
     13 C09       -10.7830   10.9260    2.3650 C.ar      1 BBO         0.0429
     14 C11       -12.2880   11.1470    2.4600 C.3       1 BBO         0.1234
     15 C12       -11.9210   12.9380    4.0640 C.3       1 BBO         0.1234
     16 C14       -15.0080   11.5000    4.3790 C.3       1 BBO         0.0279
     17 C16       -18.3640   12.6540    4.4600 C.3       1 BBO        -0.0078
     18 C18       -17.6290   15.0970    5.3150 C.3       1 BBO         0.0878
     19 C19       -16.7520   14.4680    4.2420 C.3       1 BBO        -0.0078
     20 N01       -12.8090   12.1420    3.3110 N.4       1 BBO         0.3038
     21 N02       -16.9800   13.0250    4.1560 N.4       1 BBO         0.2386
     22 O01       -13.1520   10.3560    1.7070 O.3       1 BBO        -0.3396
     23 O02       -12.4130   13.9340    4.9070 O.3       1 BBO        -0.3396
     24 O03       -18.9710   15.0300    4.9430 O.3       1 BBO        -0.3693
     25 H1        -10.9904    9.3369    0.9496 H         1 BBO         0.0517
     26 H2        -14.3985   13.4242    3.6682 H         1 BBO         0.0818
     27 H3        -14.6631   12.1954    2.3849 H         1 BBO         0.0818
     28 H4        -15.6033   13.0729    5.7245 H         1 BBO         0.0816
     29 H5        -16.7006   11.6509    5.7024 H         1 BBO         0.0816
     30 H6        -20.2904   13.4873    4.8970 H         1 BBO         0.0613
     31 H7        -19.5956   13.9859    3.3174 H         1 BBO         0.0613
     32 H8         -8.5469    8.9628    0.7922 H         1 BBO         0.0593
     33 H9         -6.9797   10.3499    2.1223 H         1 BBO         0.0528
     34 H10        -6.6147   12.1840    3.7661 H         1 BBO         0.0528
     35 H11        -7.5820   13.9303    5.2345 H         1 BBO         0.0593
     36 H12       -10.0136   14.2680    5.3720 H         1 BBO         0.0517
     37 H13       -12.2343   11.8763    1.6383 H         1 BBO         0.1371
     38 H14       -11.8680   13.6601    3.2360 H         1 BBO         0.1371
     39 H15       -14.3088   11.1046    5.1305 H         1 BBO         0.0369
     40 H16       -15.4790   10.6643    3.8408 H         1 BBO         0.0369
     41 H17       -18.6746   11.8776    3.7454 H         1 BBO         0.0837
     42 H18       -18.3920   12.2452    5.4808 H         1 BBO         0.0837
     43 H19       -17.3413   16.1504    5.4475 H         1 BBO         0.0613
     44 H20       -17.4876   14.5563    6.2624 H         1 BBO         0.0613
     45 H21       -15.6957   14.6509    4.4882 H         1 BBO         0.0837
     46 H22       -16.9870   14.9275    3.2706 H         1 BBO         0.0837
     47 H23       -12.8709   11.4775    4.0664 H         1 BBO         0.2126
     48 H24       -16.7702   12.7289    3.2156 H         1 BBO         0.2035
     49 H25       -12.6462    9.7395    1.1907 H         1 BBO         0.2188
     50 H26       -12.9070   14.5643    4.3960 H         1 BBO         0.2188
@<TRIPOS>BOND
     1    1    5 ar 
     2   13    1 ar 
     3   16    2 1  
     4    2   20 1  
     5    3   16 1  
     6   21    3 1  
     7    4   17 1  
     8   24    4 1  
     9    5    6 ar 
    10    7    6 ar 
    11    7    8 ar 
    12   12    7 ar 
    13    9    8 ar 
    14   10    9 ar 
    15   11   10 ar 
    16   11   12 ar 
    17   15   11 1  
    18   13   12 ar 
    19   14   13 1  
    20   20   14 1  
    21   14   22 1  
    22   20   15 1  
    23   15   23 1  
    24   17   21 1  
    25   18   19 1  
    26   18   24 1  
    27   19   21 1  
    28    1   25 1  
    29    2   26 1  
    30    2   27 1  
    31    3   28 1  
    32    3   29 1  
    33    4   30 1  
    34    4   31 1  
    35    5   32 1  
    36    6   33 1  
    37    8   34 1  
    38    9   35 1  
    39   10   36 1  
    40   14   37 1  
    41   15   38 1  
    42   16   39 1  
    43   16   40 1  
    44   17   41 1  
    45   17   42 1  
    46   18   43 1  
    47   18   44 1  
    48   19   45 1  
    49   19   46 1  
    50   20   47 1  
    51   21   48 1  
    52   22   49 1  
    53   23   50 1  
@<TRIPOS>SUBSTRUCTURE
     1 BBO         1

