### 
### Created by X-TOOL on Mon Aug  2 16:14:29 2021
### 

@<TRIPOS>MOLECULE
6jay_ligand
   53    57     1     0     0
SMALL
GAST_HUCK


@<TRIPOS>ATOM
      1 C1         17.6560  -16.4340    8.2440 C.3       1 JUK        -0.0226
      2 C10         9.9220  -13.7750    6.1860 C.3       1 JUK         0.0365
      3 C11        15.0990  -13.7080    6.6280 C.2       1 JUK         0.1881
      4 C12        13.8240  -12.4860    4.7960 C.2       1 JUK        -0.0491
      5 C13        13.7180  -13.3570    5.9320 C.2       1 JUK         0.0541
      6 C14        12.4110  -13.7340    6.3510 C.2       1 JUK         0.0518
      7 C15        12.6760  -11.2310    2.9510 C.2       1 JUK         0.2701
      8 C16        12.6330  -12.0800    4.1120 C.2       1 JUK         0.0519
      9 C17        11.3810  -12.5130    4.5680 C.2       1 JUK        -0.0090
     10 C18        11.6000  -10.0430    1.2140 C.2       1 JUK         0.1135
     11 C19        10.3670  -11.2660    2.7600 C.2       1 JUK         0.1586
     12 C2         18.6790  -17.4690    8.9410 C.3       1 JUK        -0.0270
     13 C20         9.1260  -10.8740    2.0950 C.2       1 JUK        -0.0046
     14 C21         9.1840  -10.0350    0.9560 C.2       1 JUK        -0.0526
     15 C22        10.4300   -9.6190    0.5120 C.2       1 JUK        -0.0120
     16 C3         18.1220  -18.6870    8.8330 C.3       1 JUK         0.0482
     17 C4         16.5100  -17.0910    8.1560 C.3       1 JUK         0.0786
     18 C5         15.3750  -16.4070    7.3080 C.3       1 JUK         0.0560
     19 C6          8.6300  -15.1330    4.4340 C.2       1 JUK        -0.0691
     20 C7          8.2170  -16.5430    4.3830 C.2       1 JUK        -0.0804
     21 C8          8.6830  -17.1250    5.5460 C.2       1 JUK         0.0671
     22 C9          9.3040  -15.0500    5.6170 C.2       1 JUK         0.1019
     23 N1         15.7460  -14.9920    7.1980 N.am      1 JUK        -0.2876
     24 N2         12.2800  -14.5630    7.4750 N.pl3     1 JUK        -0.3364
     25 N3         11.2920  -13.3460    5.6810 C.2       1 JUK        -0.0049
     26 N4         10.2770  -12.1010    3.8930 N.2       1 JUK        -0.3463
     27 N5         11.5070  -10.8540    2.3130 N.am      1 JUK        -0.1260
     28 O1         13.9170  -10.7820    2.4680 O.2       1 JUK        -0.3707
     29 O2         16.9880  -18.5240    7.8060 O.3       1 JUK        -0.3746
     30 O3          9.3010  -16.2260    6.2470 O.3       1 JUK        -0.2676
     31 O4         15.8110  -12.7220    6.7450 O.2       1 JUK        -0.3974
     32 H1         18.0158  -16.1489    7.2444 H         1 JUK         0.0291
     33 H2         17.5378  -15.5319    8.8622 H         1 JUK         0.0291
     34 H3         10.0049  -13.9116    7.2743 H         1 JUK         0.0565
     35 H4          9.2243  -12.9520    5.9718 H         1 JUK         0.0565
     36 H5         14.7990  -12.1379    4.4581 H         1 JUK         0.0608
     37 H6         12.5801   -9.7162    0.8698 H         1 JUK         0.1370
     38 H7         18.8204  -17.2084   10.0003 H         1 JUK         0.0288
     39 H8         19.6505  -17.4484    8.4255 H         1 JUK         0.0288
     40 H9          8.1660  -11.2238    2.4719 H         1 JUK         0.0562
     41 H10         8.2750   -9.7249    0.4427 H         1 JUK         0.0749
     42 H11        10.5159   -8.9759   -0.3626 H         1 JUK         0.0541
     43 H12        17.7195  -19.0142    9.8030 H         1 JUK         0.0560
     44 H13        18.8619  -19.4191    8.4773 H         1 JUK         0.0560
     45 H14        16.0849  -17.1429    9.1692 H         1 JUK         0.0616
     46 H15        14.4048  -16.5088    7.8162 H         1 JUK         0.0544
     47 H16        15.3159  -16.8648    6.3096 H         1 JUK         0.0544
     48 H17         8.4433  -14.3461    3.7047 H         1 JUK         0.0223
     49 H18         7.6559  -17.0311    3.5875 H         1 JUK         0.0297
     50 H19         8.5526  -18.1687    5.8281 H         1 JUK         0.0856
     51 H20        16.6472  -14.8115    7.5921 H         1 JUK         0.1836
     52 H21        13.1177  -14.8651    7.9926 H         1 JUK         0.1730
     53 H22        11.3461  -14.8696    7.7827 H         1 JUK         0.1730
@<TRIPOS>BOND
     1    1   12 1  
     2   17    1 1  
     3   22    2 1  
     4    2   25 1  
     5    5    3 1  
     6    3   23 am 
     7    3   31 2  
     8    5    4 2  
     9    8    4 1  
    10    6    5 1  
    11    6   24 1  
    12   25    6 2  
    13    8    7 1  
    14    7   27 am 
    15    7   28 2  
    16    9    8 2  
    17   25    9 1  
    18    9   26 1  
    19   10   15 2  
    20   27   10 am 
    21   11   13 1  
    22   26   11 2  
    23   11   27 am 
    24   16   12 1  
    25   13   14 2  
    26   14   15 1  
    27   29   16 1  
    28   18   17 1  
    29   17   29 1  
    30   23   18 1  
    31   19   20 1  
    32   19   22 2  
    33   20   21 2  
    34   21   30 1  
    35   22   30 1  
    36    1   32 1  
    37    1   33 1  
    38    2   34 1  
    39    2   35 1  
    40    4   36 1  
    41   10   37 1  
    42   12   38 1  
    43   12   39 1  
    44   13   40 1  
    45   14   41 1  
    46   15   42 1  
    47   16   43 1  
    48   16   44 1  
    49   17   45 1  
    50   18   46 1  
    51   18   47 1  
    52   19   48 1  
    53   20   49 1  
    54   21   50 1  
    55   23   51 1  
    56   24   52 1  
    57   24   53 1  
@<TRIPOS>SUBSTRUCTURE
     1 JUK         1

