### 
### Created by X-TOOL on Sat Aug  7 21:31:15 2021
### 

@<TRIPOS>MOLECULE
6jb0_ligand
   45    46     1     0     0
SMALL
GAST_HUCK


@<TRIPOS>ATOM
      1 C1         -6.3580  -32.3420  -13.9980 C.3       1 TRE         0.1909
      2 C2         -7.6940  -32.0830  -13.2660 C.3       1 TRE         0.1342
      3 C3         -8.5260  -31.0500  -14.0750 C.3       1 TRE         0.1141
      4 C4         -7.7360  -29.7670  -14.2710 C.3       1 TRE         0.1119
      5 C5         -6.4310  -30.1450  -14.9940 C.3       1 TRE         0.1130
      6 C6         -5.5530  -28.9520  -15.1900 C.3       1 TRE         0.0730
      7 O1         -6.5610  -33.0380  -15.2040 O.3       1 TRE        -0.3174
      8 O2         -8.4350  -33.3250  -13.1380 O.3       1 TRE        -0.3841
      9 O3         -9.7480  -30.7700  -13.3100 O.3       1 TRE        -0.3864
     10 O4         -8.5090  -28.8210  -15.0150 O.3       1 TRE        -0.3865
     11 O5         -5.6850  -31.0750  -14.1980 O.3       1 TRE        -0.3404
     12 O6         -4.4060  -29.2490  -16.0580 O.3       1 TRE        -0.3924
     13 C1P        -5.3590  -33.5300  -15.7880 C.3       1 TRE         0.1909
     14 C2P        -5.7160  -34.0560  -17.1410 C.3       1 TRE         0.1342
     15 C3P        -6.5920  -35.2900  -17.0450 C.3       1 TRE         0.1141
     16 C4P        -5.9340  -36.2640  -16.0960 C.3       1 TRE         0.1119
     17 C5P        -5.6910  -35.6550  -14.7480 C.3       1 TRE         0.1130
     18 C6P        -5.0550  -36.7790  -13.8590 C.3       1 TRE         0.0730
     19 O2P        -6.3450  -33.0720  -17.9440 O.3       1 TRE        -0.3841
     20 O3P        -6.7230  -35.8910  -18.3570 O.3       1 TRE        -0.3864
     21 O4P        -6.8750  -37.2980  -15.9320 O.3       1 TRE        -0.3865
     22 O5P        -4.8300  -34.5180  -14.9390 O.3       1 TRE        -0.3404
     23 O6P        -5.0440  -36.1800  -12.6110 O.3       1 TRE        -0.3924
     24 H1         -5.7247  -32.9691  -13.3533 H         1 TRE         0.0938
     25 H2         -7.4882  -31.6798  -12.2635 H         1 TRE         0.0671
     26 H3         -8.7872  -31.4702  -15.0575 H         1 TRE         0.0648
     27 H4         -7.4935  -29.3293  -13.2914 H         1 TRE         0.0647
     28 H5         -6.6750  -30.5924  -15.9688 H         1 TRE         0.0647
     29 H6         -5.1799  -28.6208  -14.2096 H         1 TRE         0.0584
     30 H7         -6.1456  -28.1464  -15.6481 H         1 TRE         0.0584
     31 H8         -7.9195  -33.9504  -12.6425 H         1 TRE         0.2101
     32 H9        -10.2803  -30.1421  -13.7843 H         1 TRE         0.2100
     33 H10        -8.7351  -29.1928  -15.8595 H         1 TRE         0.2100
     34 H11        -3.8848  -29.9403  -15.6668 H         1 TRE         0.2095
     35 H12        -4.6258  -32.7170  -15.8948 H         1 TRE         0.0938
     36 H13        -4.7795  -34.3463  -17.6396 H         1 TRE         0.0671
     37 H14        -7.5869  -35.0143  -16.6653 H         1 TRE         0.0648
     38 H15        -4.9899  -36.6394  -16.5176 H         1 TRE         0.0647
     39 H16        -6.6368  -35.3220  -14.2958 H         1 TRE         0.0647
     40 H17        -4.0367  -37.0263  -14.1936 H         1 TRE         0.0584
     41 H18        -5.6728  -37.6891  -13.8611 H         1 TRE         0.0584
     42 H19        -7.1785  -32.8334  -17.5556 H         1 TRE         0.2101
     43 H20        -7.2555  -36.6751  -18.2932 H         1 TRE         0.2100
     44 H21        -7.0486  -37.7032  -16.7736 H         1 TRE         0.2100
     45 H22        -5.9332  -35.9612  -12.3581 H         1 TRE         0.2095
@<TRIPOS>BOND
     1    1    2 1  
     2    7    1 1  
     3    1   11 1  
     4    2    3 1  
     5    2    8 1  
     6    3    4 1  
     7    3    9 1  
     8    5    4 1  
     9    4   10 1  
    10    5    6 1  
    11   11    5 1  
    12    6   12 1  
    13   13    7 1  
    14   13   14 1  
    15   22   13 1  
    16   15   14 1  
    17   14   19 1  
    18   16   15 1  
    19   15   20 1  
    20   17   16 1  
    21   16   21 1  
    22   18   17 1  
    23   17   22 1  
    24   23   18 1  
    25    1   24 1  
    26    2   25 1  
    27    3   26 1  
    28    4   27 1  
    29    5   28 1  
    30    6   29 1  
    31    6   30 1  
    32    8   31 1  
    33    9   32 1  
    34   10   33 1  
    35   12   34 1  
    36   13   35 1  
    37   14   36 1  
    38   15   37 1  
    39   16   38 1  
    40   17   39 1  
    41   18   40 1  
    42   18   41 1  
    43   19   42 1  
    44   20   43 1  
    45   21   44 1  
    46   23   45 1  
@<TRIPOS>SUBSTRUCTURE
     1 TRE         1

