### 
### Created by X-TOOL on Sat Aug  7 21:31:16 2021
### 

@<TRIPOS>MOLECULE
6jb4_ligand
   45    46     1     0     0
SMALL
GAST_HUCK


@<TRIPOS>ATOM
      1 C1         -6.5930  -32.5360  -13.8220 C.3       1 MAL         0.1884
      2 C2         -7.9670  -32.2300  -13.1810 C.3       1 MAL         0.1341
      3 C3         -8.7280  -31.2690  -14.0340 C.3       1 MAL         0.1141
      4 C4         -7.9440  -29.9650  -14.2550 C.3       1 MAL         0.1119
      5 C5         -6.6290  -30.3510  -14.9440 C.3       1 MAL         0.1130
      6 C6         -5.7230  -29.1450  -15.0150 C.3       1 MAL         0.0730
      7 O1         -6.8250  -33.3560  -14.9550 O.3       1 MAL        -0.3401
      8 O2         -8.7730  -33.3950  -13.0790 O.3       1 MAL        -0.3841
      9 O3         -9.9970  -30.9330  -13.3440 O.3       1 MAL        -0.3864
     10 O4         -8.6550  -29.0140  -15.0250 O.3       1 MAL        -0.3865
     11 O5         -5.9080  -31.3110  -14.1670 O.3       1 MAL        -0.3405
     12 O6         -4.5940  -29.3670  -15.9020 O.3       1 MAL        -0.3924
     13 C1'        -5.5170  -36.6980  -16.8200 C.3       1 MAL         0.1854
     14 C2'        -5.3080  -36.7350  -15.3100 C.3       1 MAL         0.1339
     15 C3'        -6.1420  -35.6730  -14.6490 C.3       1 MAL         0.1144
     16 C4'        -5.7940  -34.3280  -15.2400 C.3       1 MAL         0.1184
     17 C5'        -5.7190  -34.2860  -16.7200 C.3       1 MAL         0.1134
     18 C6'        -4.7150  -33.1340  -16.9960 C.3       1 MAL         0.0730
     19 O1'        -6.8230  -36.9340  -17.2330 O.3       1 MAL        -0.3649
     20 O2'        -5.6940  -38.0580  -14.8120 O.3       1 MAL        -0.3841
     21 O3'        -5.7580  -35.6540  -13.2770 O.3       1 MAL        -0.3864
     22 O5'        -5.0540  -35.4220  -17.2990 O.3       1 MAL        -0.3407
     23 O6'        -4.6580  -32.8980  -18.3310 O.3       1 MAL        -0.3924
     24 H1         -5.9717  -33.0888  -13.1020 H         1 MAL         0.0938
     25 H2         -7.8068  -31.8014  -12.1807 H         1 MAL         0.0671
     26 H3         -8.9409  -31.7360  -15.0069 H         1 MAL         0.0648
     27 H4         -7.7226  -29.5138  -13.2765 H         1 MAL         0.0647
     28 H5         -6.8382  -30.7448  -15.9496 H         1 MAL         0.0647
     29 H6         -5.3445  -28.9247  -14.0060 H         1 MAL         0.0584
     30 H7         -6.3023  -28.2862  -15.3850 H         1 MAL         0.0584
     31 H8         -8.9226  -33.7522  -13.9465 H         1 MAL         0.2101
     32 H9        -10.5009  -30.3351  -13.8836 H         1 MAL         0.2100
     33 H10        -8.8525  -29.3827  -15.8780 H         1 MAL         0.2100
     34 H11        -4.9124  -29.5526  -16.7777 H         1 MAL         0.2095
     35 H12        -4.8898  -37.4854  -17.2633 H         1 MAL         0.0935
     36 H13        -4.2469  -36.5543  -15.0832 H         1 MAL         0.0671
     37 H14        -7.2154  -35.8848  -14.7627 H         1 MAL         0.0648
     38 H15        -4.8326  -34.0077  -14.8122 H         1 MAL         0.0651
     39 H16        -6.7110  -34.1265  -17.1678 H         1 MAL         0.0647
     40 H17        -3.7177  -33.4205  -16.6308 H         1 MAL         0.0584
     41 H18        -5.0484  -32.2238  -16.4761 H         1 MAL         0.0584
     42 H19        -6.8593  -36.9304  -18.1823 H         1 MAL         0.2126
     43 H20        -5.1622  -38.7219  -15.2349 H         1 MAL         0.2101
     44 H21        -5.9664  -36.4912  -12.8794 H         1 MAL         0.2100
     45 H22        -4.0440  -32.1933  -18.5009 H         1 MAL         0.2095
@<TRIPOS>BOND
     1    1    2 1  
     2    7    1 1  
     3    1   11 1  
     4    2    3 1  
     5    2    8 1  
     6    3    4 1  
     7    3    9 1  
     8    5    4 1  
     9    4   10 1  
    10    5    6 1  
    11   11    5 1  
    12    6   12 1  
    13   16    7 1  
    14   13   14 1  
    15   13   19 1  
    16   22   13 1  
    17   15   14 1  
    18   14   20 1  
    19   16   15 1  
    20   15   21 1  
    21   17   16 1  
    22   18   17 1  
    23   17   22 1  
    24   23   18 1  
    25    1   24 1  
    26    2   25 1  
    27    3   26 1  
    28    4   27 1  
    29    5   28 1  
    30    6   29 1  
    31    6   30 1  
    32    8   31 1  
    33    9   32 1  
    34   10   33 1  
    35   12   34 1  
    36   13   35 1  
    37   14   36 1  
    38   15   37 1  
    39   16   38 1  
    40   17   39 1  
    41   18   40 1  
    42   18   41 1  
    43   19   42 1  
    44   20   43 1  
    45   21   44 1  
    46   23   45 1  
@<TRIPOS>SUBSTRUCTURE
     1 MAL         1

