### 
### Created by X-TOOL on Sat Aug  7 21:31:15 2021
### 

@<TRIPOS>MOLECULE
6jbb_ligand
   45    46     1     0     0
SMALL
GAST_HUCK


@<TRIPOS>ATOM
      1 C1         -6.4040  -32.3690  -13.6010 C.3       1 SUC         0.1912
      2 C2         -7.7340  -32.0170  -12.9660 C.3       1 SUC         0.1342
      3 C3         -8.5240  -31.0270  -13.8160 C.3       1 SUC         0.1141
      4 C4         -7.6590  -29.7860  -14.0690 C.3       1 SUC         0.1119
      5 C5         -6.3590  -30.2370  -14.7170 C.3       1 SUC         0.1130
      6 C6         -5.4840  -28.9910  -14.9700 C.3       1 SUC         0.0730
      7 O1         -6.6240  -33.3090  -14.6900 O.3       1 SUC        -0.3125
      8 O2         -8.5300  -33.1760  -12.8170 O.3       1 SUC        -0.3841
      9 O3         -9.7860  -30.7120  -13.1720 O.3       1 SUC        -0.3864
     10 O4         -8.3930  -28.8820  -14.8850 O.3       1 SUC        -0.3865
     11 O5         -5.6630  -31.2210  -13.9260 O.3       1 SUC        -0.3404
     12 O6         -4.3010  -29.2940  -15.7730 O.3       1 SUC        -0.3924
     13 C1'        -4.2760  -33.1550  -15.3840 C.3       1 SUC         0.1009
     14 C2'        -5.4910  -34.0760  -15.1320 C.3       1 SUC         0.2252
     15 C3'        -5.1780  -35.3230  -14.2600 C.3       1 SUC         0.1395
     16 C4'        -6.2530  -36.3320  -14.7070 C.3       1 SUC         0.1145
     17 C5'        -6.1560  -36.0660  -16.2070 C.3       1 SUC         0.1134
     18 C6'        -7.3520  -36.4920  -16.9780 C.3       1 SUC         0.0730
     19 O1'        -3.2560  -33.9510  -15.9510 O.3       1 SUC        -0.3896
     20 O2'        -5.9310  -34.6630  -16.3700 O.3       1 SUC        -0.3362
     21 O3'        -5.1340  -35.1740  -12.8210 O.3       1 SUC        -0.3837
     22 O4'        -6.0490  -37.7160  -14.3740 O.3       1 SUC        -0.3864
     23 O6'        -7.2100  -36.2090  -18.3890 O.3       1 SUC        -0.3924
     24 H1         -5.8135  -32.9047  -12.8432 H         1 SUC         0.0939
     25 H2         -7.5441  -31.5733  -11.9776 H         1 SUC         0.0671
     26 H3         -8.7462  -31.4940  -14.7868 H         1 SUC         0.0648
     27 H4         -7.4281  -29.2935  -13.1129 H         1 SUC         0.0647
     28 H5         -6.5984  -30.6972  -15.6870 H         1 SUC         0.0647
     29 H6         -5.1584  -28.5853  -14.0008 H         1 SUC         0.0584
     30 H7         -6.0864  -28.2379  -15.4990 H         1 SUC         0.0584
     31 H8         -8.0631  -33.8139  -12.2901 H         1 SUC         0.2101
     32 H9        -10.2826  -30.1193  -13.7239 H         1 SUC         0.2100
     33 H10        -8.6083  -29.3038  -15.7085 H         1 SUC         0.2100
     34 H11        -4.5716  -29.6390  -16.6158 H         1 SUC         0.2095
     35 H12        -3.9301  -32.7200  -14.4348 H         1 SUC         0.0612
     36 H13        -4.5530  -32.3477  -16.0780 H         1 SUC         0.0612
     37 H14        -4.1871  -35.6981  -14.5558 H         1 SUC         0.0675
     38 H15        -7.2372  -36.0407  -14.3114 H         1 SUC         0.0648
     39 H16        -5.2899  -36.6177  -16.6013 H         1 SUC         0.0647
     40 H17        -8.2326  -35.9560  -16.5942 H         1 SUC         0.0584
     41 H18        -7.4947  -37.5745  -16.8446 H         1 SUC         0.0584
     42 H19        -3.5655  -34.3263  -16.7670 H         1 SUC         0.2096
     43 H20        -5.9769  -34.8657  -12.5098 H         1 SUC         0.2101
     44 H21        -5.1850  -37.9860  -14.6625 H         1 SUC         0.2100
     45 H22        -6.4541  -36.6730  -18.7294 H         1 SUC         0.2095
@<TRIPOS>BOND
     1    1    2 1  
     2    7    1 1  
     3    1   11 1  
     4    2    3 1  
     5    2    8 1  
     6    3    4 1  
     7    3    9 1  
     8    5    4 1  
     9    4   10 1  
    10    5    6 1  
    11   11    5 1  
    12    6   12 1  
    13   14    7 1  
    14   14   13 1  
    15   13   19 1  
    16   14   15 1  
    17   20   14 1  
    18   16   15 1  
    19   15   21 1  
    20   17   16 1  
    21   16   22 1  
    22   18   17 1  
    23   17   20 1  
    24   23   18 1  
    25    1   24 1  
    26    2   25 1  
    27    3   26 1  
    28    4   27 1  
    29    5   28 1  
    30    6   29 1  
    31    6   30 1  
    32    8   31 1  
    33    9   32 1  
    34   10   33 1  
    35   12   34 1  
    36   13   35 1  
    37   13   36 1  
    38   15   37 1  
    39   16   38 1  
    40   17   39 1  
    41   18   40 1  
    42   18   41 1  
    43   19   42 1  
    44   21   43 1  
    45   22   44 1  
    46   23   45 1  
@<TRIPOS>SUBSTRUCTURE
     1 SUC         1

