### 
### Created by X-TOOL on Sat Aug  7 21:31:17 2021
### 

@<TRIPOS>MOLECULE
6jbe_ligand
   24    24     1     0     0
SMALL
GAST_HUCK


@<TRIPOS>ATOM
      1 C1         -6.5730  -32.4350  -14.2450 C.3       1 GLC         0.1854
      2 C2         -7.9030  -32.2400  -13.5020 C.3       1 GLC         0.1339
      3 C3         -8.7460  -31.2490  -14.2610 C.3       1 GLC         0.1141
      4 C4         -7.9350  -29.9620  -14.4390 C.3       1 GLC         0.1119
      5 C5         -6.6090  -30.1960  -15.1600 C.3       1 GLC         0.1130
      6 C6         -5.7180  -28.9890  -15.2860 C.3       1 GLC         0.0730
      7 O1         -6.9180  -33.0500  -15.4890 O.3       1 GLC        -0.3649
      8 O2         -8.6530  -33.4200  -13.4030 O.3       1 GLC        -0.3841
      9 O3         -9.9600  -30.9250  -13.5010 O.3       1 GLC        -0.3864
     10 O4         -8.7300  -28.9860  -15.1620 O.3       1 GLC        -0.3865
     11 O5         -5.8720  -31.2360  -14.4960 O.3       1 GLC        -0.3407
     12 O6         -4.5460  -29.2300  -16.0740 O.3       1 GLC        -0.3924
     13 H1         -5.9244  -33.1019  -13.6581 H         1 GLC         0.0935
     14 H2         -7.6922  -31.8595  -12.4917 H         1 GLC         0.0671
     15 H3         -9.0193  -31.6655  -15.2417 H         1 GLC         0.0648
     16 H4         -7.7106  -29.5599  -13.4400 H         1 GLC         0.0647
     17 H5         -6.8498  -30.5341  -16.1786 H         1 GLC         0.0647
     18 H6         -5.4037  -28.6802  -14.2781 H         1 GLC         0.0584
     19 H7         -6.2935  -28.1775  -15.7553 H         1 GLC         0.0584
     20 H8         -6.1257  -33.2405  -15.9773 H         1 GLC         0.2126
     21 H9         -8.1526  -34.0731  -12.9281 H         1 GLC         0.2101
     22 H10       -10.4692  -30.2811  -13.9792 H         1 GLC         0.2100
     23 H11        -8.9036  -29.3076  -16.0388 H         1 GLC         0.2100
     24 H12        -4.0344  -29.9237  -15.6746 H         1 GLC         0.2095
@<TRIPOS>BOND
     1    1    2 1  
     2    1    7 1  
     3   11    1 1  
     4    3    2 1  
     5    2    8 1  
     6    4    3 1  
     7    3    9 1  
     8    5    4 1  
     9    4   10 1  
    10    6    5 1  
    11    5   11 1  
    12   12    6 1  
    13    1   13 1  
    14    2   14 1  
    15    3   15 1  
    16    4   16 1  
    17    5   17 1  
    18    6   18 1  
    19    6   19 1  
    20    7   20 1  
    21    8   21 1  
    22    9   22 1  
    23   10   23 1  
    24   12   24 1  
@<TRIPOS>SUBSTRUCTURE
     1 GLC         1

