### 
### Created by X-TOOL on Mon Aug  2 16:14:30 2021
### 

@<TRIPOS>MOLECULE
6jib_ligand
   40    43     1     0     0
SMALL
GAST_HUCK


@<TRIPOS>ATOM
      1 C16       -66.5820   31.8750  -21.8770 C.2       1 BQF         0.0654
      2 C18       -61.7890   28.2470  -29.0530 C.ar      1 BQF         0.0199
      3 C20       -62.8860   28.2660  -31.1980 C.ar      1 BQF        -0.0706
      4 C21       -61.6400   28.1500  -31.8410 C.ar      1 BQF        -0.0684
      5 C22       -60.4570   28.0550  -31.1100 C.ar      1 BQF        -0.0249
      6 C15       -65.1900   31.1550  -23.8600 C.ar      1 BQF        -0.0423
      7 C13       -62.8750   30.3970  -23.4610 C.ar      1 BQF         0.0525
      8 C12       -63.0170   30.6040  -22.0650 C.ar      1 BQF        -0.0386
      9 C11       -64.2500   31.0810  -21.5810 C.ar      1 BQF        -0.0423
     10 C9        -61.6280   29.8600  -24.0190 C.2       1 BQF         0.2107
     11 C3        -61.7800   28.3060  -27.5890 C.2       1 BQF        -0.0198
     12 C4        -63.1330   28.4160  -26.8770 C.3       1 BQF         0.0010
     13 C2        -60.5920   28.2140  -26.9310 C.2       1 BQF         0.0590
     14 C1        -65.3160   31.3910  -22.4620 C.ar      1 BQF         0.0142
     15 C6        -60.4620   28.2860  -25.4540 C.3       1 BQF         0.0680
     16 C5        -62.9770   28.1780  -25.3750 C.3       1 BQF         0.0447
     17 O4        -67.6430   31.7370  -22.5200 O.co2     1 BQF        -0.5596
     18 O3        -66.5340   32.3190  -20.7200 O.co2     1 BQF        -0.5596
     19 C14       -63.9380   30.6740  -24.3360 C.ar      1 BQF        -0.0386
     20 O2        -60.5190   30.2770  -23.6320 O.2       1 BQF        -0.3833
     21 N1        -61.7390   28.8430  -24.9120 N.am      1 BQF        -0.2615
     22 C7        -59.3270   28.0620  -27.6360 C.2       1 BQF         0.2640
     23 O1        -58.2750   27.9860  -27.0310 O.2       1 BQF        -0.3785
     24 O5        -59.3770   28.0210  -29.0110 O.3       1 BQF        -0.2130
     25 C17       -60.5480   28.1190  -29.7150 C.ar      1 BQF         0.1361
     26 C19       -62.9900   28.3330  -29.7870 C.ar      1 BQF        -0.0594
     27 H1        -63.7885   28.3051  -31.7971 H         1 BQF         0.0539
     28 H2        -61.5993   28.1342  -32.9241 H         1 BQF         0.0594
     29 H3        -59.4999   27.9357  -31.6048 H         1 BQF         0.0557
     30 H4        -66.0171   31.3350  -24.5371 H         1 BQF         0.0662
     31 H5        -62.1960   30.3999  -21.3872 H         1 BQF         0.0675
     32 H6        -64.3867   31.2137  -20.5139 H         1 BQF         0.0662
     33 H7        -63.8209   27.6644  -27.2916 H         1 BQF         0.0446
     34 H8        -63.5464   29.4219  -27.0416 H         1 BQF         0.0446
     35 H9        -59.6221   28.9428  -25.1834 H         1 BQF         0.0652
     36 H10       -60.2880   27.2803  -25.0437 H         1 BQF         0.0652
     37 H11       -62.9126   27.0980  -25.1767 H         1 BQF         0.0547
     38 H12       -63.8432   28.5976  -24.8424 H         1 BQF         0.0547
     39 H13       -63.8015   30.5176  -25.3999 H         1 BQF         0.0675
     40 H14       -63.9489   28.4452  -29.2940 H         1 BQF         0.0596
@<TRIPOS>BOND
     1   14    1 1  
     2    1   17 ar 
     3    1   18 ar 
     4   11    2 1  
     5    2   25 ar 
     6    2   26 ar 
     7    3    4 ar 
     8   26    3 ar 
     9    5    4 ar 
    10   25    5 ar 
    11    6   14 ar 
    12   19    6 ar 
    13    7    8 ar 
    14   10    7 1  
    15    7   19 ar 
    16    8    9 ar 
    17    9   14 ar 
    18   10   20 2  
    19   21   10 am 
    20   11   12 1  
    21   13   11 2  
    22   12   16 1  
    23   15   13 1  
    24   13   22 1  
    25   15   21 1  
    26   16   21 1  
    27   22   23 2  
    28   22   24 1  
    29   24   25 1  
    30    3   27 1  
    31    4   28 1  
    32    5   29 1  
    33    6   30 1  
    34    8   31 1  
    35    9   32 1  
    36   12   33 1  
    37   12   34 1  
    38   15   35 1  
    39   15   36 1  
    40   16   37 1  
    41   16   38 1  
    42   19   39 1  
    43   26   40 1  
@<TRIPOS>SUBSTRUCTURE
     1 BQF         1

