### 
### Created by X-TOOL on Mon Aug  2 16:14:30 2021
### 

@<TRIPOS>MOLECULE
6jid_ligand
   48    52     1     0     0
SMALL
GAST_HUCK


@<TRIPOS>ATOM
      1 S1        -67.4780   32.5400  -23.0890 S.o2      1 BQC         0.0679
      2 O1        -58.7190   27.8430  -27.6120 O.2       1 BQC        -0.4344
      3 O2        -60.6100   29.8570  -23.7050 O.2       1 BQC        -0.3927
      4 O3        -68.5950   31.5660  -22.9510 O.2       1 BQC        -0.1480
      5 O4        -67.7120   33.9870  -23.1380 O.2       1 BQC        -0.1480
      6 N4        -66.3370   32.2330  -21.8800 N.am      1 BQC        -0.1890
      7 C15       -65.1840   31.6190  -22.3050 C.ar      1 BQC         0.0725
      8 C11       -64.1190   31.1970  -21.5050 C.ar      1 BQC        -0.0450
      9 C17       -66.3800   31.9110  -24.4240 C.3       1 BQC         0.1198
     10 C16       -65.1480   31.4080  -23.6980 C.ar      1 BQC         0.0041
     11 C14       -64.0240   30.7920  -24.3310 C.ar      1 BQC        -0.0544
     12 C13       -62.9350   30.3590  -23.5260 C.ar      1 BQC         0.0252
     13 C12       -62.9970   30.6010  -22.1230 C.ar      1 BQC        -0.0645
     14 C9        -61.7780   29.5960  -24.1070 C.2       1 BQC         0.1939
     15 N1        -61.9940   28.6660  -25.0960 N.am      1 BQC        -0.2687
     16 C5        -63.2690   28.0420  -25.5510 C.3       1 BQC         0.0484
     17 C4        -63.5340   28.3650  -27.0240 C.3       1 BQC         0.0324
     18 C6        -60.7830   28.2660  -25.8300 C.3       1 BQC         0.0547
     19 C2        -61.0450   28.1010  -27.3020 C.2       1 BQC         0.0371
     20 C7        -59.8520   27.8710  -28.1360 C.2       1 BQC         0.1268
     21 N2        -60.0930   27.7340  -29.5150 N.2       1 BQC        -0.2637
     22 C1        -61.3290   27.7740  -29.9790 C.2       1 BQC         0.1614
     23 N3        -62.4840   27.9630  -29.2060 N.pl3     1 BQC        -0.2313
     24 C3        -62.2930   28.1450  -27.8500 C.2       1 BQC         0.0763
     25 C21       -61.5660   27.5300  -31.4200 C.ar      1 BQC         0.0484
     26 C20       -62.5910   26.5480  -31.6780 C.ar      1 BQC        -0.0386
     27 C19       -62.9320   26.1670  -32.9850 C.ar      1 BQC        -0.0530
     28 C22       -60.8140   28.1350  -32.4560 C.ar      1 BQC        -0.0386
     29 C23       -61.1720   27.7690  -33.7740 C.ar      1 BQC        -0.0530
     30 C18       -62.1990   26.8000  -34.0240 C.ar      1 BQC        -0.0547
     31 H1        -66.4905   32.4808  -20.9234 H         1 BQC         0.2166
     32 H2        -64.1530   31.3247  -20.4291 H         1 BQC         0.0475
     33 H3        -66.1165   32.7183  -25.1232 H         1 BQC         0.0654
     34 H4        -66.8673   31.0932  -24.9750 H         1 BQC         0.0654
     35 H5        -64.0023   30.6573  -25.4064 H         1 BQC         0.0556
     36 H6        -62.1515   30.3171  -21.5068 H         1 BQC         0.0570
     37 H7        -64.0985   28.4297  -24.9414 H         1 BQC         0.0551
     38 H8        -63.2015   26.9511  -25.4270 H         1 BQC         0.0551
     39 H9        -63.8449   29.4164  -27.1127 H         1 BQC         0.0508
     40 H10       -64.3367   27.7125  -27.3979 H         1 BQC         0.0508
     41 H11       -60.4214   27.3096  -25.4243 H         1 BQC         0.0588
     42 H12       -60.0121   29.0382  -25.6909 H         1 BQC         0.0588
     43 H13       -63.4241   27.9659  -29.6268 H         1 BQC         0.2376
     44 H14       -63.1103   26.0934  -30.8421 H         1 BQC         0.0695
     45 H15       -63.7059   25.4358  -33.1887 H         1 BQC         0.0637
     46 H16       -60.0128   28.8359  -32.2512 H         1 BQC         0.0695
     47 H17       -60.6604   28.2297  -34.6113 H         1 BQC         0.0637
     48 H18       -62.4260   26.5390  -35.0513 H         1 BQC         0.0676
@<TRIPOS>BOND
     1    1    4 2  
     2    1    5 2  
     3    6    1 am 
     4    9    1 1  
     5   20    2 2  
     6   14    3 2  
     7    7    6 1  
     8    8    7 ar 
     9   10    7 ar 
    10   13    8 ar 
    11   10    9 1  
    12   11   10 ar 
    13   12   11 ar 
    14   12   13 ar 
    15   14   12 1  
    16   15   14 am 
    17   15   16 1  
    18   18   15 1  
    19   16   17 1  
    20   17   24 1  
    21   19   18 1  
    22   19   20 1  
    23   19   24 2  
    24   20   21 1  
    25   21   22 2  
    26   22   23 1  
    27   22   25 1  
    28   23   24 1  
    29   25   26 ar 
    30   25   28 ar 
    31   26   27 ar 
    32   27   30 ar 
    33   28   29 ar 
    34   29   30 ar 
    35    6   31 1  
    36    8   32 1  
    37    9   33 1  
    38    9   34 1  
    39   11   35 1  
    40   13   36 1  
    41   16   37 1  
    42   16   38 1  
    43   17   39 1  
    44   17   40 1  
    45   18   41 1  
    46   18   42 1  
    47   23   43 1  
    48   26   44 1  
    49   27   45 1  
    50   28   46 1  
    51   29   47 1  
    52   30   48 1  
@<TRIPOS>SUBSTRUCTURE
     1 BQC         1

