### 
### Created by X-TOOL on Mon Aug  2 16:10:01 2021
### 

@<TRIPOS>MOLECULE
6jij_ligand
   97    99     1     0     0
SMALL
GAST_HUCK


@<TRIPOS>ATOM
      1 C4         45.9290   22.8140   17.7830 C.2       1 MOL        -0.0165
      2 C5         47.3020   22.7540   17.7080 C.2       1 MOL         0.1392
      3 C6         48.2790   23.5940   18.5300 C.3       1 MOL         0.0097
      4 O1         47.6310   21.8240   16.7840 O.3       1 MOL        -0.1606
      5 N2         46.4450   21.2940   16.2680 N.2       1 MOL        -0.1328
      6 C3         45.4130   21.9030   16.8840 C.2       1 MOL         0.1131
      7 C41        43.9140   21.6170   16.6190 C.2       1 MOL         0.2113
      8 O42        43.0840   21.7770   17.4900 O.2       1 MOL        -0.3853
      9 N          43.5080   21.1530   15.3070 N.am      1 MOL        -0.2652
     10 CA         42.1270   20.8660   15.0420 C.3       1 MOL         0.1278
     11 C          41.8320   19.5700   15.7920 C.2       1 MOL         0.2036
     12 O          42.6950   18.6820   15.8460 O.2       1 MOL        -0.3944
     13 CB         41.9700   20.6790   13.5650 C.3       1 MOL        -0.0244
     14 N          40.5560   19.3790   16.4640 N.am      1 MOL        -0.2635
     15 CA         40.3210   18.1390   17.1940 C.3       1 MOL         0.1332
     16 C          39.6210   17.1140   16.3370 C.2       1 MOL         0.2041
     17 O          38.5900   17.4180   15.7270 O.2       1 MOL        -0.3944
     18 CB         39.4500   18.4570   18.3860 C.3       1 MOL        -0.0063
     19 CG1        39.2130   17.2090   19.2060 C.3       1 MOL        -0.0584
     20 CG2        40.1150   19.5210   19.2430 C.3       1 MOL        -0.0584
     21 N          40.1510   15.7370   16.2270 N.am      1 MOL        -0.2637
     22 CA         39.4350   14.7900   15.4230 C.3       1 MOL         0.1313
     23 C          38.1920   14.4190   16.2650 C.2       1 MOL         0.2045
     24 O          38.3250   14.0420   17.4290 O.2       1 MOL        -0.3943
     25 CB         40.2990   13.5980   15.1410 C.3       1 MOL        -0.0101
     26 CG         41.0660   13.8010   13.8050 C.3       1 MOL        -0.0425
     27 CD1        42.3700   12.9840   13.8360 C.3       1 MOL        -0.0625
     28 CD2        40.1510   13.2940   12.5960 C.3       1 MOL        -0.0625
     29 C19        35.7680   14.1780   16.6670 C.3       1 MOL         0.0828
     30 C20        35.2730   12.7810   16.4930 C.2       1 MOL        -0.0326
     31 C21        35.7840   11.9050   17.4510 C.2       1 MOL         0.0115
     32 C22        35.4350   10.4130   17.4950 C.2       1 MOL         0.2353
     33 C25        34.6650   15.2220   16.6430 C.3       1 MOL         0.0038
     34 C26        35.1670   16.3050   17.3940 C.3       1 MOL         0.0551
     35 C27        35.2000   15.9250   18.8820 C.3       1 MOL        -0.0127
     36 C28        34.9280   17.1230   19.5340 C.3       1 MOL         0.0332
     37 N6         34.0180   17.9140   18.5850 N.am      1 MOL        -0.2866
     38 C29        34.1480   17.4510   17.3560 C.2       1 MOL         0.1794
     39 O8         33.5670   17.8550   16.3460 O.2       1 MOL        -0.3968
     40 N5         36.8370   14.5380   15.7330 N.am      1 MOL        -0.2664
     41 O7         34.3350   10.0630   17.7710 O.2       1 MOL        -0.3744
     42 C          36.8750    8.6890   18.3650 C.3       1 MOL         0.1088
     43 O          36.4450    9.4500   17.2000 O.3       1 MOL        -0.2698
     44 C1         38.7060   10.5710   18.5420 C.ar      1 MOL        -0.0578
     45 C2         39.8360   11.1260   19.1600 C.ar      1 MOL        -0.0685
     46 C3         40.4160   10.4870   20.2600 C.ar      1 MOL        -0.0687
     47 C4         39.8670    9.2920   20.7410 C.ar      1 MOL        -0.0685
     48 C5         38.7430    8.7340   20.1280 C.ar      1 MOL        -0.0578
     49 C6         38.1590    9.3720   19.0240 C.ar      1 MOL        -0.0131
     50 H1         45.3514   23.4658   18.4368 H         1 MOL         0.0312
     51 H2         49.3109   23.3293   18.2558 H         1 MOL         0.0449
     52 H3         48.1219   23.3962   19.6006 H         1 MOL         0.0449
     53 H4         48.1075   24.6611   18.3252 H         1 MOL         0.0449
     54 H5         44.1906   21.0328   14.5862 H         1 MOL         0.1877
     55 H6         41.4737   21.6778   15.3945 H         1 MOL         0.0797
     56 H7         40.9178   20.4572   13.3333 H         1 MOL         0.0277
     57 H8         42.6028   19.8432   13.2319 H         1 MOL         0.0277
     58 H9         42.2739   21.5992   13.0445 H         1 MOL         0.0277
     59 H10        39.8510   20.0872   16.4258 H         1 MOL         0.1883
     60 H11        41.2835   17.7286   17.5334 H         1 MOL         0.0802
     61 H12        38.4820   18.8386   18.0291 H         1 MOL         0.0343
     62 H13        38.5780   17.4533   20.0704 H         1 MOL         0.0234
     63 H14        40.1769   16.8138   19.5592 H         1 MOL         0.0234
     64 H15        38.7116   16.4520   18.5851 H         1 MOL         0.0234
     65 H16        40.2839   20.4251   18.6396 H         1 MOL         0.0234
     66 H17        41.0788   19.1429   19.6146 H         1 MOL         0.0234
     67 H18        39.4637   19.7654   20.0951 H         1 MOL         0.0234
     68 H19        40.9899   15.4727   16.7028 H         1 MOL         0.1883
     69 H20        39.1264   15.2456   14.4705 H         1 MOL         0.0800
     70 H21        39.6678   12.7003   15.0657 H         1 MOL         0.0315
     71 H22        41.0220   13.4703   15.9601 H         1 MOL         0.0315
     72 H23        41.3009   14.8672   13.6704 H         1 MOL         0.0298
     73 H24        42.9145   13.1265   12.8909 H         1 MOL         0.0232
     74 H25        42.1318   11.9179   13.9648 H         1 MOL         0.0232
     75 H26        42.9958   13.3238   14.6744 H         1 MOL         0.0232
     76 H27        39.2185   13.8770   12.5724 H         1 MOL         0.0232
     77 H28        39.9142   12.2291   12.7369 H         1 MOL         0.0232
     78 H29        40.6907   13.4272   11.6468 H         1 MOL         0.0232
     79 H30        36.2093   14.2163   17.6739 H         1 MOL         0.0787
     80 H31        34.5869   12.4780   15.7034 H         1 MOL         0.0877
     81 H32        36.4639   12.3004   18.2042 H         1 MOL         0.0485
     82 H33        33.7479   14.8254   17.1031 H         1 MOL         0.0346
     83 H34        34.4516   15.5345   15.6102 H         1 MOL         0.0346
     84 H35        36.1554   16.6147   17.0238 H         1 MOL         0.0541
     85 H36        36.1901   15.5395   19.1666 H         1 MOL         0.0312
     86 H37        34.4330   15.1706   19.1114 H         1 MOL         0.0312
     87 H38        35.8593   17.6770   19.7230 H         1 MOL         0.0521
     88 H39        34.4145   16.9327   20.4880 H         1 MOL         0.0521
     89 H40        33.4176   18.6662   18.8565 H         1 MOL         0.1851
     90 H41        36.6526   14.8432   14.7987 H         1 MOL         0.1892
     91 H42        37.1264    7.6634   18.0570 H         1 MOL         0.0775
     92 H43        36.0593    8.6609   19.1024 H         1 MOL         0.0775
     93 H44        38.2547   11.0687   17.6913 H         1 MOL         0.0557
     94 H45        40.2598   12.0505   18.7848 H         1 MOL         0.0599
     95 H46        41.2886   10.9156   20.7394 H         1 MOL         0.0559
     96 H47        40.3170    8.7972   21.5941 H         1 MOL         0.0599
     97 H48        38.3224    7.8088   20.5051 H         1 MOL         0.0557
@<TRIPOS>BOND
     1    1    2 2  
     2    6    1 1  
     3    2    3 1  
     4    4    2 1  
     5    5    4 1  
     6    6    5 2  
     7    7    6 1  
     8    7    8 2  
     9    9    7 am 
    10   10    9 1  
    11   11   10 1  
    12   10   13 1  
    13   11   12 2  
    14   14   11 am 
    15   15   14 1  
    16   16   15 1  
    17   15   18 1  
    18   16   17 2  
    19   21   16 am 
    20   18   19 1  
    21   18   20 1  
    22   22   21 1  
    23   23   22 1  
    24   22   25 1  
    25   23   24 2  
    26   40   23 am 
    27   25   26 1  
    28   26   27 1  
    29   26   28 1  
    30   30   29 1  
    31   29   33 1  
    32   29   40 1  
    33   31   30 2  
    34   32   31 1  
    35   32   41 2  
    36   43   32 1  
    37   33   34 1  
    38   34   35 1  
    39   34   38 1  
    40   35   36 1  
    41   37   36 1  
    42   38   37 am 
    43   38   39 2  
    44   42   43 1  
    45   49   42 1  
    46   44   45 ar 
    47   44   49 ar 
    48   45   46 ar 
    49   46   47 ar 
    50   47   48 ar 
    51   48   49 ar 
    52    1   50 1  
    53    3   51 1  
    54    3   52 1  
    55    3   53 1  
    56    9   54 1  
    57   10   55 1  
    58   13   56 1  
    59   13   57 1  
    60   13   58 1  
    61   14   59 1  
    62   15   60 1  
    63   18   61 1  
    64   19   62 1  
    65   19   63 1  
    66   19   64 1  
    67   20   65 1  
    68   20   66 1  
    69   20   67 1  
    70   21   68 1  
    71   22   69 1  
    72   25   70 1  
    73   25   71 1  
    74   26   72 1  
    75   27   73 1  
    76   27   74 1  
    77   27   75 1  
    78   28   76 1  
    79   28   77 1  
    80   28   78 1  
    81   29   79 1  
    82   30   80 1  
    83   31   81 1  
    84   33   82 1  
    85   33   83 1  
    86   34   84 1  
    87   35   85 1  
    88   35   86 1  
    89   36   87 1  
    90   36   88 1  
    91   37   89 1  
    92   40   90 1  
    93   42   91 1  
    94   42   92 1  
    95   44   93 1  
    96   45   94 1  
    97   46   95 1  
    98   47   96 1  
    99   48   97 1  
@<TRIPOS>SUBSTRUCTURE
     1 MOL         1

