### 
### Created by X-TOOL on Mon Aug  2 16:14:31 2021
### 

@<TRIPOS>MOLECULE
6jio_ligand
   38    39     1     0     0
SMALL
GAST_HUCK


@<TRIPOS>ATOM
      1 C2         12.1040  -13.0390  -34.1510 C.3       1 BQ3         0.0905
      2 C4         13.4670  -12.9460  -33.4900 C.3       1 BQ3        -0.0320
      3 C6         10.4610  -11.2870  -34.7290 C.2       1 BQ3         0.3245
      4 C1         11.1580  -13.9160  -33.3490 C.3       1 BQ3        -0.0320
      5 C3         12.2170  -13.5060  -35.5920 C.3       1 BQ3        -0.0320
      6 O5         11.6100  -11.6350  -34.1310 O.3       1 BQ3        -0.2579
      7 O7          9.4640  -11.9660  -34.7750 O.2       1 BQ3        -0.3773
      8 N8         10.5510  -10.0510  -35.2740 N.am      1 BQ3        -0.2374
      9 C9          9.4210   -9.4540  -35.9960 C.3       1 BQ3         0.0447
     10 C10         8.8620   -8.3110  -35.1790 C.3       1 BQ3        -0.0069
     11 C11         9.9560   -7.3390  -34.8180 C.ar      1 BQ3        -0.0500
     12 C12         9.6400   -6.0340  -34.4500 C.ar      1 BQ3        -0.0779
     13 C13        10.6250   -5.1130  -34.1440 C.ar      1 BQ3        -0.0580
     14 C14        11.9710   -5.4740  -34.2100 C.ar      1 BQ3         0.0215
     15 N15        12.9580   -4.5560  -33.9430 N.pl3     1 BQ3        -0.3419
     16 C16        12.2910   -6.7830  -34.5720 C.ar      1 BQ3        -0.0478
     17 C17        11.3080   -7.7250  -34.8720 C.ar      1 BQ3        -0.0300
     18 C18        11.7060   -9.1400  -35.2430 C.3       1 BQ3         0.0644
     19 H1         13.9257  -13.9451  -33.4536 H         1 BQ3         0.0260
     20 H2         13.3528  -12.5575  -32.4673 H         1 BQ3         0.0260
     21 H3         14.1104  -12.2681  -34.0701 H         1 BQ3         0.0260
     22 H4         10.1824  -13.9614  -33.8550 H         1 BQ3         0.0260
     23 H5         11.0295  -13.4918  -32.3423 H         1 BQ3         0.0260
     24 H6         11.5770  -14.9299  -33.2690 H         1 BQ3         0.0260
     25 H7         12.9087  -12.8474  -36.1377 H         1 BQ3         0.0260
     26 H8         11.2257  -13.4712  -36.0676 H         1 BQ3         0.0260
     27 H9         12.5984  -14.5375  -35.6143 H         1 BQ3         0.0260
     28 H10         8.6400  -10.2130  -36.1506 H         1 BQ3         0.0542
     29 H11         9.7641   -9.0770  -36.9707 H         1 BQ3         0.0542
     30 H12         8.4129   -8.7098  -34.2575 H         1 BQ3         0.0407
     31 H13         8.0921   -7.7886  -35.7658 H         1 BQ3         0.0407
     32 H14         8.5996   -5.7335  -34.4023 H         1 BQ3         0.0506
     33 H15        10.3501   -4.1060  -33.8515 H         1 BQ3         0.0442
     34 H16        13.9482   -4.8346  -33.9950 H         1 BQ3         0.1698
     35 H17        12.7076   -3.5892  -33.6908 H         1 BQ3         0.1698
     36 H18        13.3335   -7.0758  -34.6214 H         1 BQ3         0.0436
     37 H19        12.1741   -9.1271  -36.2383 H         1 BQ3         0.0668
     38 H20        12.4298   -9.5104  -34.5021 H         1 BQ3         0.0668
@<TRIPOS>BOND
     1    1    2 1  
     2    1    4 1  
     3    1    5 1  
     4    1    6 1  
     5    6    3 1  
     6    3    7 2  
     7    3    8 am 
     8    8    9 1  
     9    8   18 1  
    10    9   10 1  
    11   10   11 1  
    12   11   12 ar 
    13   11   17 ar 
    14   12   13 ar 
    15   13   14 ar 
    16   14   15 1  
    17   14   16 ar 
    18   16   17 ar 
    19   17   18 1  
    20    2   19 1  
    21    2   20 1  
    22    2   21 1  
    23    4   22 1  
    24    4   23 1  
    25    4   24 1  
    26    5   25 1  
    27    5   26 1  
    28    5   27 1  
    29    9   28 1  
    30    9   29 1  
    31   10   30 1  
    32   10   31 1  
    33   12   32 1  
    34   13   33 1  
    35   15   34 1  
    36   15   35 1  
    37   16   36 1  
    38   18   37 1  
    39   18   38 1  
@<TRIPOS>SUBSTRUCTURE
     1 BQ3         1

