### 
### Created by X-TOOL on Mon Aug  2 16:14:32 2021
### 

@<TRIPOS>MOLECULE
6jjm_ligand
  108   111     1     0     0
SMALL
GAST_HUCK


@<TRIPOS>ATOM
      1 C1        108.3410  149.3000  -30.5070 C.3       1 NAG         0.1854
      2 C2        109.2230  148.0820  -30.7350 C.3       1 NAG         0.1210
      3 C3        109.7200  147.4890  -29.4250 C.3       1 NAG         0.1111
      4 C4        110.4180  148.6070  -28.6700 C.3       1 NAG         0.1116
      5 C5        109.3110  149.5880  -28.3240 C.3       1 NAG         0.1130
      6 C6        109.7170  150.6590  -27.3210 C.3       1 NAG         0.0730
      7 C7        108.5860  146.9830  -32.8160 C.2       1 NAG         0.1733
      8 C8        107.5130  146.1630  -33.4880 C.3       1 NAG         0.0257
      9 N2        108.4830  147.0820  -31.4880 N.am      1 NAG        -0.2766
     10 O1        108.3230  149.9800  -31.7620 O.3       1 NAG        -0.3404
     11 O3        110.6010  146.3860  -29.6840 O.3       1 NAG        -0.3867
     12 O4        111.0610  148.1100  -27.4980 O.3       1 NAG        -0.3865
     13 O5        108.9080  150.1980  -29.5490 O.3       1 NAG        -0.3408
     14 O6        108.5530  151.3960  -26.9290 O.3       1 NAG        -0.3924
     15 O7        109.4940  147.5240  -33.4420 O.2       1 NAG        -0.3974
     16 C1        108.0660  151.8420  -34.5120 C.3       1 NAG         0.1884
     17 C2        107.1840  150.6180  -34.1650 C.3       1 NAG         0.1344
     18 C3        106.4470  150.8550  -32.8770 C.3       1 NAG         0.1200
     19 C4        107.4990  151.0850  -31.7850 C.3       1 NAG         0.1186
     20 C5        108.2270  152.3580  -32.1420 C.3       1 NAG         0.1134
     21 C6        109.2580  152.8250  -31.0930 C.3       1 NAG         0.0730
     22 O2        106.2140  150.3670  -35.1780 O.3       1 NAG        -0.3841
     23 O3        105.6280  149.7260  -32.5230 O.3       1 NAG        -0.3380
     24 O5        108.9250  152.1860  -33.3960 O.3       1 NAG        -0.3405
     25 O6        109.8710  154.0290  -31.4790 O.3       1 NAG        -0.3924
     26 C2        111.4100  153.5520  -37.3070 C.3       1 NAG         0.1339
     27 C3        110.7730  152.4660  -36.5200 C.3       1 NAG         0.1144
     28 C4        109.3060  152.7060  -36.3070 C.3       1 NAG         0.1184
     29 C5        108.5670  152.9630  -37.6330 C.3       1 NAG         0.1134
     30 C6        107.1190  153.3330  -37.4200 C.3       1 NAG         0.0730
     31 C1        110.6760  153.7780  -38.6250 C.3       1 NAG         0.1854
     32 O1        111.2320  154.8400  -39.2640 O.3       1 NAG        -0.3649
     33 O2        112.7820  153.1920  -37.5810 O.3       1 NAG        -0.3841
     34 O3        111.4490  152.3500  -35.2340 O.3       1 NAG        -0.3864
     35 O4        108.7940  151.5150  -35.7100 O.3       1 NAG        -0.3401
     36 O5        109.2080  154.0440  -38.4060 O.3       1 NAG        -0.3407
     37 O6        107.0410  154.4130  -36.5230 O.3       1 NAG        -0.3924
     38 C1        104.4120  150.9320  -30.9460 C.2       1 NAG         0.1041
     39 C2        104.3440  149.7800  -32.0330 C.3       1 NAG         0.2208
     40 C3        103.8370  148.4270  -31.4880 C.3       1 NAG         0.0353
     41 C4        102.7700  147.6440  -32.2550 C.3       1 NAG         0.0850
     42 C5        102.6940  148.1030  -33.7070 C.3       1 NAG         0.0964
     43 C6        102.4840  149.6320  -33.7400 C.3       1 NAG         0.1143
     44 C7        102.3970  150.1580  -35.1960 C.3       1 NAG         0.1114
     45 C8        101.9460  151.6370  -35.2150 C.3       1 NAG         0.1065
     46 C9        101.8940  152.1780  -36.6430 C.3       1 NAG         0.0727
     47 C10       101.7510  146.7100  -35.5420 C.2       1 NAG         0.1733
     48 C11       100.4550  146.1510  -36.1280 C.3       1 NAG         0.0257
     49 N5        101.5920  147.4640  -34.4240 N.am      1 NAG        -0.2790
     50 O1A       104.0180  152.0780  -31.2590 O.co2     1 NAG        -0.5426
     51 O1B       104.8990  150.5180  -29.8660 O.co2     1 NAG        -0.5426
     52 O4        103.0400  146.2310  -32.2520 O.3       1 NAG        -0.3893
     53 O6        103.6020  150.3120  -33.1910 O.3       1 NAG        -0.3384
     54 O7        103.6560  149.9640  -35.8440 O.3       1 NAG        -0.3865
     55 O8        100.6910  151.7850  -34.5450 O.3       1 NAG        -0.3869
     56 O9        100.8430  151.5300  -37.3620 O.3       1 NAG        -0.3924
     57 O10       102.8400  146.4770  -36.0660 O.2       1 NAG        -0.3974
     58 H1        107.3311  148.9964  -30.1940 H         1 NAG         0.0935
     59 H2        110.0973  148.3929  -31.3257 H         1 NAG         0.0633
     60 H3        108.8659  147.1274  -28.8336 H         1 NAG         0.0645
     61 H4        111.1686  149.0912  -29.3120 H         1 NAG         0.0647
     62 H5        108.4659  149.0273  -27.8982 H         1 NAG         0.0647
     63 H6        110.4463  151.3402  -27.7837 H         1 NAG         0.0584
     64 H7        110.1680  150.1845  -26.4370 H         1 NAG         0.0584
     65 H8        107.6905  146.1459  -34.5735 H         1 NAG         0.0467
     66 H9        106.5286  146.6097  -33.2844 H         1 NAG         0.0467
     67 H10       107.5375  145.1354  -33.0963 H         1 NAG         0.0467
     68 H11       107.8808  146.4515  -30.9984 H         1 NAG         0.1857
     69 H12       110.9189  146.0358  -28.8601 H         1 NAG         0.2100
     70 H13       111.7460  147.5011  -27.7480 H         1 NAG         0.2100
     71 H14       108.8000  152.0663  -26.3028 H         1 NAG         0.2095
     72 H15       107.4181  152.7063  -34.7198 H         1 NAG         0.0938
     73 H16       107.8323  149.7357  -34.0589 H         1 NAG         0.0671
     74 H17       105.8090  151.7454  -32.9769 H         1 NAG         0.0650
     75 H18       107.0180  151.2009  -30.8026 H         1 NAG         0.0651
     76 H19       107.4741  153.1517  -32.2565 H         1 NAG         0.0647
     77 H20       110.0304  152.0500  -30.9803 H         1 NAG         0.0584
     78 H21       108.7467  152.9759  -30.1308 H         1 NAG         0.0584
     79 H22       105.7031  149.6013  -34.9429 H         1 NAG         0.2101
     80 H23       110.3182  153.9039  -32.3078 H         1 NAG         0.2095
     81 H24       111.3864  154.4820  -36.7200 H         1 NAG         0.0671
     82 H25       110.8915  151.5214  -37.0711 H         1 NAG         0.0648
     83 H26       109.1604  153.5660  -35.6368 H         1 NAG         0.0651
     84 H27       108.6062  152.0367  -38.2250 H         1 NAG         0.0647
     85 H28       106.5770  152.4707  -37.0044 H         1 NAG         0.0584
     86 H29       106.6683  153.6208  -38.3813 H         1 NAG         0.0584
     87 H30       110.7839  152.8795  -39.2503 H         1 NAG         0.0935
     88 H31       112.1572  154.6754  -39.4035 H         1 NAG         0.2126
     89 H32       113.2409  153.0508  -36.7613 H         1 NAG         0.2101
     90 H33       111.3308  153.1539  -34.7417 H         1 NAG         0.2100
     91 H34       107.5097  155.1567  -36.8831 H         1 NAG         0.2095
     92 H35       103.4284  148.6217  -30.4855 H         1 NAG         0.0336
     93 H36       104.7148  147.7693  -31.4049 H         1 NAG         0.0336
     94 H37       101.7981  147.8214  -31.7714 H         1 NAG         0.0618
     95 H38       103.6397  147.8513  -34.2093 H         1 NAG         0.0608
     96 H39       101.5683  149.8826  -33.1844 H         1 NAG         0.0646
     97 H40       101.6409  149.5682  -35.7348 H         1 NAG         0.0647
     98 H41       102.6931  152.2257  -34.6624 H         1 NAG         0.0643
     99 H42       102.8541  151.9837  -37.1435 H         1 NAG         0.0584
    100 H43       101.7064  153.2616  -36.6176 H         1 NAG         0.0584
    101 H44       100.6843  145.5578  -37.0255 H         1 NAG         0.0467
    102 H45        99.7866  146.9817  -36.3985 H         1 NAG         0.0467
    103 H46        99.9612  145.5111  -35.3819 H         1 NAG         0.0467
    104 H47       100.6653  147.5897  -34.0698 H         1 NAG         0.1856
    105 H48       102.3407  145.7751  -32.7055 H         1 NAG         0.2099
    106 H49       104.3208  150.4797  -35.4028 H         1 NAG         0.2100
    107 H50       100.4600  152.7057  -34.5075 H         1 NAG         0.2100
    108 H51       101.0058  150.5943  -37.3837 H         1 NAG         0.2095
@<TRIPOS>BOND
     1    1    2 1  
     2   10    1 1  
     3    1   13 1  
     4    2    3 1  
     5    2    9 1  
     6    3    4 1  
     7    3   11 1  
     8    5    4 1  
     9    4   12 1  
    10    5    6 1  
    11   13    5 1  
    12    6   14 1  
    13    7    8 1  
    14    9    7 am 
    15    7   15 2  
    16   19   10 1  
    17   17   16 1  
    18   16   24 1  
    19   16   35 1  
    20   18   17 1  
    21   17   22 1  
    22   18   19 1  
    23   23   18 1  
    24   19   20 1  
    25   20   21 1  
    26   20   24 1  
    27   21   25 1  
    28   39   23 1  
    29   27   26 1  
    30   26   31 1  
    31   26   33 1  
    32   28   27 1  
    33   27   34 1  
    34   28   29 1  
    35   35   28 1  
    36   29   30 1  
    37   29   36 1  
    38   30   37 1  
    39   31   32 1  
    40   36   31 1  
    41   39   38 1  
    42   38   50 ar 
    43   38   51 ar 
    44   40   39 1  
    45   53   39 1  
    46   41   40 1  
    47   42   41 1  
    48   41   52 1  
    49   42   43 1  
    50   49   42 1  
    51   43   44 1  
    52   43   53 1  
    53   44   45 1  
    54   44   54 1  
    55   45   46 1  
    56   45   55 1  
    57   46   56 1  
    58   47   48 1  
    59   47   49 am 
    60   47   57 2  
    61    1   58 1  
    62    2   59 1  
    63    3   60 1  
    64    4   61 1  
    65    5   62 1  
    66    6   63 1  
    67    6   64 1  
    68    8   65 1  
    69    8   66 1  
    70    8   67 1  
    71    9   68 1  
    72   11   69 1  
    73   12   70 1  
    74   14   71 1  
    75   16   72 1  
    76   17   73 1  
    77   18   74 1  
    78   19   75 1  
    79   20   76 1  
    80   21   77 1  
    81   21   78 1  
    82   22   79 1  
    83   25   80 1  
    84   26   81 1  
    85   27   82 1  
    86   28   83 1  
    87   29   84 1  
    88   30   85 1  
    89   30   86 1  
    90   31   87 1  
    91   32   88 1  
    92   33   89 1  
    93   34   90 1  
    94   37   91 1  
    95   40   92 1  
    96   40   93 1  
    97   41   94 1  
    98   42   95 1  
    99   43   96 1  
   100   44   97 1  
   101   45   98 1  
   102   46   99 1  
   103   46  100 1  
   104   48  101 1  
   105   48  102 1  
   106   48  103 1  
   107   49  104 1  
   108   52  105 1  
   109   54  106 1  
   110   55  107 1  
   111   56  108 1  
@<TRIPOS>SUBSTRUCTURE
     1 NAG         1

