### 
### Created by X-TOOL on Mon Aug  2 16:14:32 2021
### 

@<TRIPOS>MOLECULE
6jjn_ligand
  128   132     1     0     0
SMALL
GAST_HUCK


@<TRIPOS>ATOM
      1 C1        110.5690  153.8350  -38.6230 C.3       1 NAG         0.1854
      2 C2        111.4330  153.0440  -37.6370 C.3       1 NAG         0.1213
      3 C3        110.6600  151.8230  -37.1300 C.3       1 NAG         0.1179
      4 C4        109.3080  152.2480  -36.5670 C.3       1 NAG         0.1185
      5 C5        108.5350  153.0180  -37.6310 C.3       1 NAG         0.1134
      6 C6        107.1910  153.5310  -37.1580 C.3       1 NAG         0.0730
      7 C7        113.8990  152.9090  -37.7270 C.2       1 NAG         0.1733
      8 C8        115.0770  152.4100  -38.5100 C.3       1 NAG         0.0257
      9 N2        112.6930  152.6420  -38.2490 N.am      1 NAG        -0.2766
     10 O3        111.4100  151.1760  -36.1110 O.3       1 NAG        -0.3403
     11 O4        108.5590  151.1140  -36.1430 O.3       1 NAG        -0.3401
     12 O5        109.3060  154.1650  -38.0100 O.3       1 NAG        -0.3408
     13 O6        107.2980  154.2840  -35.9570 O.3       1 NAG        -0.3924
     14 O7        114.0330  153.5200  -36.6700 O.2       1 NAG        -0.3974
     15 C1        112.0120  149.9580  -36.5990 C.3       1 NAG         0.1883
     16 C2        112.9640  149.5010  -35.4820 C.3       1 NAG         0.1341
     17 C3        112.1460  149.0510  -34.2640 C.3       1 NAG         0.1140
     18 C4        111.1940  147.9130  -34.6520 C.3       1 NAG         0.1095
     19 C5        110.2920  148.3910  -35.7930 C.3       1 NAG         0.0873
     20 C6        109.4020  147.2890  -36.3590 C.3       1 NAG        -0.0361
     21 O2        113.9010  150.5040  -35.1240 O.3       1 NAG        -0.3841
     22 O3        112.9910  148.5660  -33.2420 O.3       1 NAG        -0.3864
     23 O4        111.9410  146.7710  -35.0520 O.3       1 NAG        -0.3866
     24 O5        111.0650  148.9260  -36.9040 O.3       1 NAG        -0.3431
     25 C1        108.1900  151.2610  -34.7510 C.3       1 NAG         0.1884
     26 C2        106.9300  150.4020  -34.5020 C.3       1 NAG         0.1344
     27 C3        106.5050  150.4770  -33.0270 C.3       1 NAG         0.1197
     28 C4        107.7070  150.1330  -32.1100 C.3       1 NAG         0.1121
     29 C5        108.8670  151.0560  -32.4780 C.3       1 NAG         0.1130
     30 C6        110.1490  150.8300  -31.6790 C.3       1 NAG         0.0730
     31 O2        105.8420  150.8470  -35.2930 O.3       1 NAG        -0.3841
     32 O3        105.4120  149.5820  -32.7170 O.3       1 NAG        -0.3380
     33 O4        108.0900  148.7750  -32.2850 O.3       1 NAG        -0.3865
     34 O5        109.2210  150.8530  -33.8560 O.3       1 NAG        -0.3405
     35 O6        110.3210  151.8530  -30.7100 O.3       1 NAG        -0.3924
     36 C1        104.6080  150.9030  -31.0830 C.2       1 NAG         0.1041
     37 C2        104.1790  149.8060  -32.1450 C.3       1 NAG         0.2208
     38 C3        103.3830  148.6570  -31.5180 C.3       1 NAG         0.0353
     39 C4        102.7900  147.6340  -32.4870 C.3       1 NAG         0.0850
     40 C5        102.6320  148.2140  -33.8920 C.3       1 NAG         0.0964
     41 C6        102.3520  149.7370  -33.8610 C.3       1 NAG         0.1143
     42 C7        102.2910  150.3030  -35.3010 C.3       1 NAG         0.1114
     43 C8        101.8060  151.7680  -35.2700 C.3       1 NAG         0.1065
     44 C9        101.8910  152.3930  -36.6570 C.3       1 NAG         0.0727
     45 C10       101.6910  146.7160  -35.6510 C.2       1 NAG         0.1733
     46 C11       100.3890  146.1550  -36.2160 C.3       1 NAG         0.0257
     47 N5        101.5370  147.5520  -34.5960 N.am      1 NAG        -0.2790
     48 O1A       104.2970  152.0650  -31.4640 O.co2     1 NAG        -0.5426
     49 O1B       105.1860  150.5250  -30.0320 O.co2     1 NAG        -0.5426
     50 O4        103.6110  146.4570  -32.5950 O.3       1 NAG        -0.3893
     51 O6        103.3850  150.4610  -33.2020 O.3       1 NAG        -0.3384
     52 O7        103.5470  150.1420  -35.9540 O.3       1 NAG        -0.3865
     53 O8        100.4880  151.8190  -34.7170 O.3       1 NAG        -0.3869
     54 O9        100.9730  151.7310  -37.5250 O.3       1 NAG        -0.3924
     55 O10       102.7810  146.4150  -36.1330 O.2       1 NAG        -0.3974
     56 C1        111.0500  156.5620  -42.5030 C.3       1 NAG         0.1854
     57 C2        111.7120  156.0770  -41.2060 C.3       1 NAG         0.1343
     58 C3        110.6640  155.4580  -40.2830 C.3       1 NAG         0.1206
     59 C4        109.5250  156.4800  -40.0150 C.3       1 NAG         0.1123
     60 C5        108.9960  157.0270  -41.3500 C.3       1 NAG         0.1130
     61 C6        108.0050  158.1840  -41.2180 C.3       1 NAG         0.0730
     62 O1        111.9850  157.1390  -43.3720 O.3       1 NAG        -0.3649
     63 O2        112.6970  155.0880  -41.4510 O.3       1 NAG        -0.3841
     64 O3        111.2310  155.0440  -39.0340 O.3       1 NAG        -0.3403
     65 O4        109.9780  157.5440  -39.1940 O.3       1 NAG        -0.3865
     66 O5        110.0560  157.5240  -42.1930 O.3       1 NAG        -0.3407
     67 O6        107.3260  158.4180  -42.4430 O.3       1 NAG        -0.3924
     68 H1        110.3854  153.2119  -39.5107 H         1 NAG         0.0935
     69 H2        111.6604  153.6925  -36.7781 H         1 NAG         0.0633
     70 H3        110.5008  151.1246  -37.9648 H         1 NAG         0.0649
     71 H4        109.4746  152.9048  -35.7005 H         1 NAG         0.0651
     72 H5        108.3822  152.3613  -38.5001 H         1 NAG         0.0647
     73 H6        106.5264  152.6727  -36.9803 H         1 NAG         0.0584
     74 H7        106.7605  154.1722  -37.9413 H         1 NAG         0.0584
     75 H8        116.0063  152.6852  -37.9896 H         1 NAG         0.0467
     76 H9        115.0699  152.8635  -39.5121 H         1 NAG         0.0467
     77 H10       115.0188  151.3154  -38.6024 H         1 NAG         0.0467
     78 H11       112.6560  152.1362  -39.1108 H         1 NAG         0.1857
     79 H12       106.4360  154.5859  -35.6960 H         1 NAG         0.2095
     80 H13       112.5850  150.1785  -37.5117 H         1 NAG         0.0938
     81 H14       113.5304  148.6346  -35.8541 H         1 NAG         0.0671
     82 H15       111.5660  149.9062  -33.8870 H         1 NAG         0.0648
     83 H16       110.5712  147.6476  -33.7850 H         1 NAG         0.0646
     84 H17       109.6477  149.1884  -35.3941 H         1 NAG         0.0621
     85 H18       108.7830  147.6984  -37.1709 H         1 NAG         0.0255
     86 H19       108.7510  146.8983  -35.5630 H         1 NAG         0.0255
     87 H20       110.0301  146.4756  -36.7513 H         1 NAG         0.0255
     88 H21       113.4393  151.2560  -34.7722 H         1 NAG         0.2101
     89 H22       113.4801  147.8184  -33.5652 H         1 NAG         0.2100
     90 H23       112.4943  146.4882  -34.3333 H         1 NAG         0.2100
     91 H24       107.9579  152.3185  -34.5565 H         1 NAG         0.0938
     92 H25       107.1604  149.3579  -34.7603 H         1 NAG         0.0671
     93 H26       106.1800  151.5066  -32.8166 H         1 NAG         0.0650
     94 H27       107.4257  150.2957  -31.0591 H         1 NAG         0.0647
     95 H28       108.5363  152.0942  -32.3272 H         1 NAG         0.0647
     96 H29       111.0084  150.8344  -32.3656 H         1 NAG         0.0584
     97 H30       110.0910  149.8564  -31.1703 H         1 NAG         0.0584
     98 H31       105.0899  150.2876  -35.1385 H         1 NAG         0.2101
     99 H32       107.3624  148.2096  -32.0538 H         1 NAG         0.2100
    100 H33       111.1220  151.6958  -30.2239 H         1 NAG         0.2095
    101 H34       102.5526  149.0975  -30.9467 H         1 NAG         0.0336
    102 H35       104.0547  148.1190  -30.8329 H         1 NAG         0.0336
    103 H36       101.7992  147.3420  -32.1089 H         1 NAG         0.0618
    104 H37       103.5675  148.0402  -34.4440 H         1 NAG         0.0608
    105 H38       101.3946  149.9099  -33.3478 H         1 NAG         0.0646
    106 H39       101.5488  149.7198  -35.8659 H         1 NAG         0.0647
    107 H40       102.4726  152.3386  -34.6066 H         1 NAG         0.0643
    108 H41       102.9130  152.2826  -37.0486 H         1 NAG         0.0584
    109 H42       101.6351  153.4611  -36.5959 H         1 NAG         0.0584
    110 H43       100.6132  145.4912  -37.0640 H         1 NAG         0.0467
    111 H44        99.7505  146.9831  -36.5574 H         1 NAG         0.0467
    112 H45        99.8648  145.5862  -35.4339 H         1 NAG         0.0467
    113 H46       100.6061  147.7285  -34.2762 H         1 NAG         0.1856
    114 H47       103.7272  146.0732  -31.7337 H         1 NAG         0.2099
    115 H48       104.2064  150.6539  -35.5004 H         1 NAG         0.2100
    116 H49       100.2111  152.7248  -34.6445 H         1 NAG         0.2100
    117 H50       101.1955  150.8088  -37.5755 H         1 NAG         0.2095
    118 H51       110.5808  155.7027  -43.0043 H         1 NAG         0.0935
    119 H52       112.1806  156.9379  -40.7067 H         1 NAG         0.0671
    120 H53       110.2397  154.5750  -40.7833 H         1 NAG         0.0651
    121 H54       108.7051  155.9630  -39.4949 H         1 NAG         0.0647
    122 H55       108.4922  156.1950  -41.8637 H         1 NAG         0.0647
    123 H56       108.5517  159.0943  -40.9308 H         1 NAG         0.0584
    124 H57       107.2675  157.9383  -40.4398 H         1 NAG         0.0584
    125 H58       111.5468  157.4165  -44.1679 H         1 NAG         0.2126
    126 H59       113.0915  154.8248  -40.6278 H         1 NAG         0.2101
    127 H60       110.3021  157.1930  -38.3729 H         1 NAG         0.2100
    128 H61       106.8489  157.6357  -42.6938 H         1 NAG         0.2095
@<TRIPOS>BOND
     1    1    2 1  
     2    1   12 1  
     3   64    1 1  
     4    2    3 1  
     5    2    9 1  
     6    3    4 1  
     7    3   10 1  
     8    5    4 1  
     9    4   11 1  
    10    5    6 1  
    11   12    5 1  
    12    6   13 1  
    13    7    8 1  
    14    9    7 am 
    15    7   14 2  
    16   10   15 1  
    17   11   25 1  
    18   15   16 1  
    19   15   24 1  
    20   16   17 1  
    21   16   21 1  
    22   17   18 1  
    23   17   22 1  
    24   19   18 1  
    25   18   23 1  
    26   19   20 1  
    27   24   19 1  
    28   25   26 1  
    29   25   34 1  
    30   26   27 1  
    31   26   31 1  
    32   27   28 1  
    33   27   32 1  
    34   29   28 1  
    35   28   33 1  
    36   29   30 1  
    37   34   29 1  
    38   30   35 1  
    39   32   37 1  
    40   37   36 1  
    41   36   48 ar 
    42   36   49 ar 
    43   37   38 1  
    44   37   51 1  
    45   38   39 1  
    46   39   40 1  
    47   39   50 1  
    48   41   40 1  
    49   40   47 1  
    50   41   42 1  
    51   51   41 1  
    52   42   43 1  
    53   42   52 1  
    54   43   44 1  
    55   43   53 1  
    56   44   54 1  
    57   45   46 1  
    58   47   45 am 
    59   45   55 2  
    60   57   56 1  
    61   56   62 1  
    62   56   66 1  
    63   58   57 1  
    64   57   63 1  
    65   58   59 1  
    66   58   64 1  
    67   59   60 1  
    68   59   65 1  
    69   60   61 1  
    70   60   66 1  
    71   61   67 1  
    72    1   68 1  
    73    2   69 1  
    74    3   70 1  
    75    4   71 1  
    76    5   72 1  
    77    6   73 1  
    78    6   74 1  
    79    8   75 1  
    80    8   76 1  
    81    8   77 1  
    82    9   78 1  
    83   13   79 1  
    84   15   80 1  
    85   16   81 1  
    86   17   82 1  
    87   18   83 1  
    88   19   84 1  
    89   20   85 1  
    90   20   86 1  
    91   20   87 1  
    92   21   88 1  
    93   22   89 1  
    94   23   90 1  
    95   25   91 1  
    96   26   92 1  
    97   27   93 1  
    98   28   94 1  
    99   29   95 1  
   100   30   96 1  
   101   30   97 1  
   102   31   98 1  
   103   33   99 1  
   104   35  100 1  
   105   38  101 1  
   106   38  102 1  
   107   39  103 1  
   108   40  104 1  
   109   41  105 1  
   110   42  106 1  
   111   43  107 1  
   112   44  108 1  
   113   44  109 1  
   114   46  110 1  
   115   46  111 1  
   116   46  112 1  
   117   47  113 1  
   118   50  114 1  
   119   52  115 1  
   120   53  116 1  
   121   54  117 1  
   122   56  118 1  
   123   57  119 1  
   124   58  120 1  
   125   59  121 1  
   126   60  122 1  
   127   61  123 1  
   128   61  124 1  
   129   62  125 1  
   130   63  126 1  
   131   65  127 1  
   132   67  128 1  
@<TRIPOS>SUBSTRUCTURE
     1 NAG         1

