### 
### Created by X-TOOL on Mon Aug  2 16:14:33 2021
### 

@<TRIPOS>MOLECULE
6jki_ligand
   51    53     1     0     0
SMALL
GAST_HUCK


@<TRIPOS>ATOM
      1 N         -28.5390   11.8880  -31.6430 N.4       1 SFG         0.2327
      2 CA        -29.5830   12.8630  -31.2970 C.3       1 SFG         0.0285
      3 C         -29.0590   14.2870  -31.4760 C.2       1 SFG         0.0844
      4 O         -27.8420   14.5040  -31.3000 O.co2     1 SFG        -0.5643
      5 OXT       -29.9050   15.1450  -31.7930 O.co2     1 SFG        -0.5643
      6 CB        -30.1200   12.6720  -29.8750 C.3       1 SFG         0.0075
      7 CG        -30.7280   11.2790  -29.7500 C.3       1 SFG        -0.0030
      8 CD        -31.0470   10.9640  -28.2920 C.3       1 SFG        -0.0216
      9 NE        -29.9970   10.0840  -27.7760 N.4       1 SFG         0.2208
     10 C5'       -32.4010   10.2490  -28.2690 C.3       1 SFG         0.0191
     11 C4'       -33.6060   11.1180  -27.8620 C.3       1 SFG         0.0957
     12 O4'       -33.4560   11.7690  -26.5830 O.3       1 SFG        -0.3389
     13 C3'       -33.8950   12.2560  -28.8190 C.3       1 SFG         0.1126
     14 O3'       -34.5470   11.7750  -30.0220 O.3       1 SFG        -0.3865
     15 C2'       -34.7910   13.1270  -27.9590 C.3       1 SFG         0.1384
     16 O2'       -36.0890   12.5650  -27.9060 O.3       1 SFG        -0.3836
     17 C1'       -34.2030   12.9780  -26.5650 C.3       1 SFG         0.2009
     18 N9        -33.3120   14.0800  -26.1340 N.pl3     1 SFG        -0.1919
     19 C8        -31.9910   14.0260  -25.9580 C.2       1 SFG         0.1123
     20 N7        -31.5850   15.1840  -25.4350 N.2       1 SFG        -0.2958
     21 C5        -32.6600   15.9780  -25.2830 C.ar      1 SFG         0.1045
     22 C6        -32.8190   17.2550  -24.8710 C.ar      1 SFG         0.1298
     23 N6        -31.7420   17.9490  -24.4840 N.pl3     1 SFG        -0.3152
     24 N1        -34.0260   17.8120  -24.7770 N.ar      1 SFG        -0.2698
     25 C2        -35.1540   17.1060  -25.1810 C.ar      1 SFG         0.0533
     26 N3        -34.9620   15.8010  -25.6260 N.ar      1 SFG        -0.2714
     27 C4        -33.7320   15.2640  -25.6760 C.ar      1 SFG         0.1613
     28 H1        -28.8977   10.9540  -31.5206 H         1 SFG         0.2010
     29 H2        -27.7409   12.0228  -31.0422 H         1 SFG         0.2010
     30 H3        -28.2624   12.0185  -32.6035 H         1 SFG         0.2010
     31 H4        -30.4215   12.7160  -31.9937 H         1 SFG         0.1024
     32 H5        -30.8905   13.4293  -29.6681 H         1 SFG         0.0340
     33 H6        -29.2967   12.7799  -29.1535 H         1 SFG         0.0340
     34 H7        -30.0126   10.5361  -30.1326 H         1 SFG         0.0323
     35 H8        -31.6546   11.2341  -30.3411 H         1 SFG         0.0323
     36 H9        -31.0933   11.8870  -27.6954 H         1 SFG         0.0851
     37 H10       -30.1882    9.8625  -26.8114 H         1 SFG         0.1997
     38 H11       -29.1054   10.5493  -27.8435 H         1 SFG         0.1997
     39 H12       -29.9744    9.2343  -28.3177 H         1 SFG         0.1997
     40 H13       -32.3305    9.4136  -27.5569 H         1 SFG         0.0346
     41 H14       -32.5931    9.8555  -29.2781 H         1 SFG         0.0346
     42 H15       -34.4820   10.4538  -27.8231 H         1 SFG         0.0626
     43 H16       -32.9754   12.7907  -29.0990 H         1 SFG         0.0647
     44 H17       -34.7164   12.5070  -30.6033 H         1 SFG         0.2100
     45 H18       -34.8136   14.1709  -28.3051 H         1 SFG         0.0676
     46 H19       -36.6480   13.1122  -27.3669 H         1 SFG         0.2101
     47 H20       -35.0276   12.9007  -25.8411 H         1 SFG         0.0996
     48 H21       -31.3513   13.1787  -26.2006 H         1 SFG         0.1349
     49 H22       -31.8440   18.9236  -24.1668 H         1 SFG         0.1820
     50 H23       -30.8112   17.5085  -24.5033 H         1 SFG         0.1820
     51 H24       -36.1411   17.5530  -25.1507 H         1 SFG         0.0996
@<TRIPOS>BOND
     1    1    2 1  
     2    2    3 1  
     3    2    6 1  
     4    3    4 ar 
     5    3    5 ar 
     6    6    7 1  
     7    7    8 1  
     8    8    9 1  
     9    8   10 1  
    10   10   11 1  
    11   11   12 1  
    12   11   13 1  
    13   12   17 1  
    14   13   14 1  
    15   13   15 1  
    16   15   16 1  
    17   15   17 1  
    18   17   18 1  
    19   18   19 1  
    20   18   27 1  
    21   19   20 2  
    22   20   21 1  
    23   21   22 ar 
    24   21   27 ar 
    25   22   23 1  
    26   22   24 ar 
    27   24   25 ar 
    28   25   26 ar 
    29   26   27 ar 
    30    1   28 1  
    31    1   29 1  
    32    1   30 1  
    33    2   31 1  
    34    6   32 1  
    35    6   33 1  
    36    7   34 1  
    37    7   35 1  
    38    8   36 1  
    39    9   37 1  
    40    9   38 1  
    41    9   39 1  
    42   10   40 1  
    43   10   41 1  
    44   11   42 1  
    45   13   43 1  
    46   14   44 1  
    47   15   45 1  
    48   16   46 1  
    49   17   47 1  
    50   19   48 1  
    51   23   49 1  
    52   23   50 1  
    53   25   51 1  
@<TRIPOS>SUBSTRUCTURE
     1 SFG         1

