### 
### Created by X-TOOL on Mon Aug  2 16:14:33 2021
### 

@<TRIPOS>MOLECULE
6jmf_ligand
   52    54     1     0     0
SMALL
GAST_HUCK


@<TRIPOS>ATOM
      1 C7        -12.1200   29.3390    9.9940 C.ar      1 MOL         0.0957
      2 C4        -14.8100   29.2070    9.6050 C.ar      1 MOL         0.1395
      3 C5        -14.2520   28.7140   10.7670 C.ar      1 MOL         0.1316
      4 C6        -12.8900   28.7700   10.9740 C.ar      1 MOL        -0.0093
      5 C3        -10.1810   32.9370    4.2300 C.3       1 MOL        -0.0337
      6 C2        -15.0010   28.0960   11.8140 C.1       1 MOL         0.0859
      7 C1        -10.6640   29.3940   10.2070 C.2       1 MOL         0.1961
      8 C8        -12.7220   29.8200    8.8530 C.ar      1 MOL         0.1465
      9 N9        -14.0480   29.7630    8.6430 N.ar      1 MOL        -0.2484
     10 N10       -11.8380   30.3580    7.9350 N.pl3     1 MOL        -0.2557
     11 N11       -16.2200   29.0910    9.4880 N.pl3     1 MOL        -0.2916
     12 C12       -12.1340   30.9790    6.7390 C.ar      1 MOL         0.0582
     13 C13       -11.0860   31.6070    6.1040 C.ar      1 MOL        -0.0373
     14 C14       -11.3040   32.2550    4.9160 C.ar      1 MOL        -0.0556
     15 C15       -12.5650   32.2740    4.3680 C.ar      1 MOL        -0.0719
     16 C16       -13.6080   31.6390    5.0050 C.ar      1 MOL        -0.0777
     17 C17       -13.3970   30.9870    6.1980 C.ar      1 MOL        -0.0447
     18 C18       -16.7520   29.4330    8.1690 C.3       1 MOL         0.0837
     19 C19       -18.2480   29.6830    8.2510 C.3       1 MOL        -0.0242
     20 C20       -18.7850   30.1070    6.8910 C.3       1 MOL        -0.0505
     21 C21       -18.4300   29.1310    5.7820 C.3       1 MOL        -0.0478
     22 C22       -16.9420   28.8730    5.7490 C.3       1 MOL        -0.0076
     23 C23       -16.4550   28.3890    7.0990 C.3       1 MOL        -0.0005
     24 N24       -17.0580   27.0980    7.3850 N.4       1 MOL         0.2224
     25 N25       -15.5850   27.4870   12.6230 N.1       1 MOL        -0.3459
     26 O26        -9.8890   29.8910    9.3940 O.2       1 MOL        -0.3942
     27 N27       -10.3330   28.8290   11.3990 N.am      1 MOL        -0.3027
     28 H1        -12.4439   28.3775   11.8806 H         1 MOL         0.0817
     29 H2         -9.2606   32.8106    4.8190 H         1 MOL         0.0389
     30 H3        -10.4085   34.0086    4.1307 H         1 MOL         0.0389
     31 H4        -10.0404   32.4979    3.2313 H         1 MOL         0.0389
     32 H5        -10.8384   30.2864    8.1730 H         1 MOL         0.2177
     33 H6        -16.8202   28.7902   10.2691 H         1 MOL         0.1870
     34 H7        -10.0942   31.5890    6.5411 H         1 MOL         0.0474
     35 H8        -12.7388   32.7907    3.4311 H         1 MOL         0.0463
     36 H9        -14.5985   31.6530    4.5649 H         1 MOL         0.0571
     37 H10       -14.2151   30.4870    6.7037 H         1 MOL         0.0482
     38 H11       -16.2682   30.3697    7.8552 H         1 MOL         0.0619
     39 H12       -18.4437   30.4799    8.9835 H         1 MOL         0.0290
     40 H13       -18.7539   28.7597    8.5697 H         1 MOL         0.0290
     41 H14       -18.3641   31.0916    6.6394 H         1 MOL         0.0266
     42 H15       -19.8806   30.1819    6.9545 H         1 MOL         0.0266
     43 H16       -18.7441   29.5532    4.8160 H         1 MOL         0.0267
     44 H17       -18.9567   28.1810    5.9556 H         1 MOL         0.0267
     45 H18       -16.4191   29.8052    5.4890 H         1 MOL         0.0320
     46 H19       -16.7246   28.1068    4.9903 H         1 MOL         0.0320
     47 H20       -15.3643   28.2540    7.0521 H         1 MOL         0.0873
     48 H21       -16.7383   26.7693    8.2827 H         1 MOL         0.1998
     49 H22       -16.7924   26.4376    6.6713 H         1 MOL         0.1998
     50 H23       -18.0615   27.1917    7.3995 H         1 MOL         0.1998
     51 H24        -9.3757   28.7911   11.6857 H         1 MOL         0.1802
     52 H25       -11.0469   28.4515   11.9888 H         1 MOL         0.1802
@<TRIPOS>BOND
     1    1    4 ar 
     2    1    7 1  
     3    8    1 ar 
     4    2    3 ar 
     5    9    2 ar 
     6    2   11 1  
     7    4    3 ar 
     8    3    6 1  
     9   14    5 1  
    10    6   25 3  
    11    7   26 2  
    12    7   27 am 
    13    8    9 ar 
    14   10    8 1  
    15   12   10 1  
    16   11   18 1  
    17   13   12 ar 
    18   12   17 ar 
    19   13   14 ar 
    20   14   15 ar 
    21   15   16 ar 
    22   16   17 ar 
    23   18   19 1  
    24   18   23 1  
    25   19   20 1  
    26   20   21 1  
    27   21   22 1  
    28   22   23 1  
    29   23   24 1  
    30    4   28 1  
    31    5   29 1  
    32    5   30 1  
    33    5   31 1  
    34   10   32 1  
    35   11   33 1  
    36   13   34 1  
    37   15   35 1  
    38   16   36 1  
    39   17   37 1  
    40   18   38 1  
    41   19   39 1  
    42   19   40 1  
    43   20   41 1  
    44   20   42 1  
    45   21   43 1  
    46   21   44 1  
    47   22   45 1  
    48   22   46 1  
    49   23   47 1  
    50   24   48 1  
    51   24   49 1  
    52   24   50 1  
    53   27   51 1  
    54   27   52 1  
@<TRIPOS>SUBSTRUCTURE
     1 MOL         1

