### 
### Created by X-TOOL on Mon Aug  2 16:14:34 2021
### 

@<TRIPOS>MOLECULE
6jno_ligand
   55    58     1     0     0
SMALL
GAST_HUCK


@<TRIPOS>ATOM
      1 OAC        -8.6540  -13.0890   22.3090 O.2       1 WY5        -0.3737
      2 CAD        -7.7900  -13.0460   21.4680 C.2       1 WY5         0.2754
      3 CAC        -7.9150  -12.5750   20.0950 C.2       1 WY5         0.0880
      4 CAJ        -9.2210  -12.0670   19.5840 C.2       1 WY5         0.0615
      5 OAD        -9.8390  -11.2490   20.2870 O.co2     1 WY5        -0.5660
      6 OAE        -9.6090  -12.4770   18.4770 O.co2     1 WY5        -0.5660
      7 OAA        -6.5470  -13.4980   21.8660 O.3       1 WY5        -0.2046
      8 CAI        -5.4600  -13.5090   21.0260 C.ar      1 WY5         0.1459
      9 CAH        -4.2660  -13.9810   21.5410 C.ar      1 WY5         0.0196
     10 CAG        -3.1400  -13.9970   20.7070 C.ar      1 WY5         0.1113
     11 OAB        -1.9500  -14.4470   21.1770 O.3       1 WY5        -0.3224
     12 CAF        -3.2220  -13.5620   19.3740 C.ar      1 WY5         0.0397
     13 CAE        -4.4170  -13.0990   18.9000 C.ar      1 WY5        -0.0385
     14 CAA        -5.5790  -13.0620   19.7170 C.ar      1 WY5         0.0307
     15 CAB        -6.8460  -12.5960   19.2740 C.2       1 WY5        -0.0258
     16 CAV        -2.0460  -13.5460   18.4630 C.ar      1 WY5         0.0405
     17 CAU        -0.8390  -12.9900   18.8810 C.ar      1 WY5        -0.0122
     18 CAT         0.2590  -12.9310   18.0170 C.ar      1 WY5        -0.0446
     19 CAO         1.5720  -12.3370   18.5340 C.3       1 WY5        -0.0406
     20 CAP         1.2890  -11.0870   19.3770 C.3       1 WY5        -0.0833
     21 CAQ         2.3100  -13.3670   19.4040 C.3       1 WY5        -0.0833
     22 CAN         2.4780  -11.9380   17.3630 C.3       1 WY5        -0.0796
     23 CAM         2.6050  -13.0540   16.3490 C.3       1 WY5        -0.0828
     24 CAL         1.2620  -13.3940   15.6880 C.3       1 WY5        -0.0475
     25 CAS         1.3910  -14.7560   14.9890 C.3       1 WY5        -0.0876
     26 CAR         0.9300  -12.3110   14.6510 C.3       1 WY5        -0.0876
     27 CAK         0.1280  -13.4380   16.7100 C.ar      1 WY5        -0.0516
     28 CAY        -1.0970  -13.9610   16.2970 C.ar      1 WY5        -0.0164
     29 CAW        -2.1890  -14.0200   17.1490 C.ar      1 WY5         0.0166
     30 CAX        -3.4940  -14.6050   16.6720 C.3       1 WY5        -0.0115
     31 H1         -4.2029  -14.3302   22.5653 H         1 WY5         0.0513
     32 H2         -1.2973  -14.3907   20.4890 H         1 WY5         0.2554
     33 H3         -4.4801  -12.7513   17.8752 H         1 WY5         0.0675
     34 H4         -6.9560  -12.2479   18.2480 H         1 WY5         0.0805
     35 H5         -0.7499  -12.5985   19.8879 H         1 WY5         0.0976
     36 H6          2.2384  -10.6689   19.7429 H         1 WY5         0.0136
     37 H7          0.6537  -11.3581   20.2330 H         1 WY5         0.0136
     38 H8          0.7722  -10.3376   18.7596 H         1 WY5         0.0136
     39 H9          2.5180  -14.2682   18.8084 H         1 WY5         0.0136
     40 H10         1.6828  -13.6346   20.2671 H         1 WY5         0.0136
     41 H11         3.2575  -12.9355   19.7590 H         1 WY5         0.0136
     42 H12         3.4776  -11.6945   17.7523 H         1 WY5         0.0164
     43 H13         2.0518  -11.0531   16.8678 H         1 WY5         0.0164
     44 H14         2.9870  -13.9519   16.8567 H         1 WY5         0.0150
     45 H15         3.3153  -12.7440   15.5684 H         1 WY5         0.0150
     46 H16         0.4351  -15.0141   14.5097 H         1 WY5         0.0122
     47 H17         1.6488  -15.5260   15.7310 H         1 WY5         0.0122
     48 H18         2.1813  -14.7031   14.2257 H         1 WY5         0.0122
     49 H19         0.8383  -11.3372   15.1544 H         1 WY5         0.0122
     50 H20        -0.0199  -12.5578   14.1543 H         1 WY5         0.0122
     51 H21         1.7338  -12.2621   13.9017 H         1 WY5         0.0122
     52 H22        -1.1980  -14.3311   15.2832 H         1 WY5         0.0896
     53 H23        -4.2334  -14.5636   17.4854 H         1 WY5         0.0458
     54 H24        -3.3384  -15.6515   16.3709 H         1 WY5         0.0458
     55 H25        -3.8624  -14.0268   15.8118 H         1 WY5         0.0458
@<TRIPOS>BOND
     1    1    2 2  
     2    2    3 1  
     3    2    7 1  
     4    3    4 1  
     5    3   15 2  
     6    4    5 ar 
     7    4    6 ar 
     8    7    8 1  
     9    8    9 ar 
    10    8   14 ar 
    11    9   10 ar 
    12   10   11 1  
    13   10   12 ar 
    14   12   13 ar 
    15   12   16 1  
    16   13   14 ar 
    17   14   15 1  
    18   16   17 ar 
    19   16   29 ar 
    20   17   18 ar 
    21   18   19 1  
    22   18   27 ar 
    23   19   20 1  
    24   19   21 1  
    25   19   22 1  
    26   22   23 1  
    27   23   24 1  
    28   24   25 1  
    29   24   26 1  
    30   24   27 1  
    31   27   28 ar 
    32   28   29 ar 
    33   29   30 1  
    34    9   31 1  
    35   11   32 1  
    36   13   33 1  
    37   15   34 1  
    38   17   35 1  
    39   20   36 1  
    40   20   37 1  
    41   20   38 1  
    42   21   39 1  
    43   21   40 1  
    44   21   41 1  
    45   22   42 1  
    46   22   43 1  
    47   23   44 1  
    48   23   45 1  
    49   25   46 1  
    50   25   47 1  
    51   25   48 1  
    52   26   49 1  
    53   26   50 1  
    54   26   51 1  
    55   28   52 1  
    56   30   53 1  
    57   30   54 1  
    58   30   55 1  
@<TRIPOS>SUBSTRUCTURE
     1 WY5         1

