### 
### Created by X-TOOL on Mon Aug  2 16:10:55 2021
### 

@<TRIPOS>MOLECULE
6joe_ligand
   53    56     1     0     0
SMALL
GAST_HUCK


@<TRIPOS>ATOM
      1 CAL       -39.5310   30.4630   -5.8580 C.3       1 BWR        -0.0254
      2 CAJ       -40.8770   30.6130   -5.0970 C.3       1 BWR         0.0306
      3 CBA       -40.6620   30.6410   -3.5600 C.3       1 BWR        -0.0146
      4 NAA       -41.9590   30.6080   -2.8540 N.4       1 BWR         0.2210
      5 CAK       -39.7490   29.4990   -3.0630 C.3       1 BWR         0.0306
      6 CAM       -38.4580   29.3960   -3.8660 C.3       1 BWR        -0.0254
      7 NBB       -38.7130   29.3490   -5.3240 N.4       1 BWR         0.2466
      8 CAO       -37.4720   29.1770   -6.0980 C.3       1 BWR        -0.0011
      9 CAV       -37.3880   27.8450   -6.4990 C.ar      1 BWR        -0.0053
     10 CAG       -38.1660   27.3910   -7.5770 C.ar      1 BWR        -0.0617
     11 CAE       -38.1070   26.0330   -7.9180 C.ar      1 BWR        -0.0647
     12 CAF       -36.5890   26.9550   -5.7650 C.ar      1 BWR        -0.0617
     13 CAD       -36.5320   25.6070   -6.1350 C.ar      1 BWR        -0.0647
     14 CAU       -37.3080   25.1400   -7.1960 C.ar      1 BWR        -0.0278
     15 CAN       -37.2500   23.7900   -7.5470 C.3       1 BWR         0.0606
     16 NAQ       -36.4030   23.6160   -8.7480 N.am      1 BWR        -0.2790
     17 CAT       -35.2670   22.9500   -8.7060 C.2       1 BWR         0.1882
     18 OAB       -34.9720   22.3730   -7.6540 O.2       1 BWR        -0.3937
     19 CAW       -34.4410   22.9120   -9.8190 C.2       1 BWR         0.0389
     20 CAZ       -34.5770   23.4910  -11.0730 C.2       1 BWR         0.0636
     21 CAX       -35.5760   24.2010  -11.6660 C.2       1 BWR         0.1433
     22 OAC       -36.6370   24.5170  -11.0970 O.2       1 BWR        -0.4189
     23 NAR       -35.4700   24.6160  -13.0160 N.2       1 BWR        -0.2549
     24 CAH       -34.4170   24.3540  -13.7500 C.2       1 BWR         0.1306
     25 NAP       -33.3750   23.6410  -13.1360 N.pl3     1 BWR        -0.2136
     26 CAY       -33.5060   23.2000  -11.8750 C.2       1 BWR         0.1679
     27 SAS       -32.4010   22.4070  -11.0670 S.3       1 BWR         0.0101
     28 CAI       -33.2450   22.3110   -9.6580 C.2       1 BWR         0.0121
     29 H1        -38.9620   31.3994   -5.7614 H         1 BWR         0.0816
     30 H2        -39.7429   30.2706   -6.9201 H         1 BWR         0.0816
     31 H3        -41.5279   29.7635   -5.3513 H         1 BWR         0.0372
     32 H4        -41.3604   31.5511   -5.4073 H         1 BWR         0.0372
     33 H5        -40.1663   31.5915   -3.3134 H         1 BWR         0.0853
     34 H6        -41.8003   30.6268   -1.8587 H         1 BWR         0.1997
     35 H7        -42.4538   29.7648   -3.0995 H         1 BWR         0.1997
     36 H8        -42.5079   31.4099   -3.1219 H         1 BWR         0.1997
     37 H9        -40.2948   28.5478   -3.1483 H         1 BWR         0.0372
     38 H10       -39.4954   29.6830   -2.0086 H         1 BWR         0.0372
     39 H11       -37.9272   28.4796   -3.5688 H         1 BWR         0.0816
     40 H12       -37.8306   30.2717   -3.6434 H         1 BWR         0.0816
     41 H13       -39.2580   28.5147   -5.4754 H         1 BWR         0.2047
     42 H14       -36.6045   29.4324   -5.4717 H         1 BWR         0.0967
     43 H15       -37.4913   29.8311   -6.9821 H         1 BWR         0.0967
     44 H16       -38.7974   28.0753   -8.1322 H         1 BWR         0.0542
     45 H17       -38.6905   25.6683   -8.7556 H         1 BWR         0.0540
     46 H18       -36.0183   27.3105   -4.9148 H         1 BWR         0.0542
     47 H19       -35.8841   24.9247   -5.5966 H         1 BWR         0.0540
     48 H20       -38.2654   23.4252   -7.7613 H         1 BWR         0.0669
     49 H21       -36.8221   23.2146   -6.7129 H         1 BWR         0.0669
     50 H22       -36.7011   24.0149   -9.6152 H         1 BWR         0.1864
     51 H23       -34.3528   24.6746  -14.7888 H         1 BWR         0.1577
     52 H24       -32.5054   23.4553  -13.6559 H         1 BWR         0.2444
     53 H25       -32.8939   21.8379   -8.7422 H         1 BWR         0.0720
@<TRIPOS>BOND
     1    1    2 1  
     2    1    7 1  
     3    2    3 1  
     4    3    4 1  
     5    3    5 1  
     6    5    6 1  
     7    6    7 1  
     8    7    8 1  
     9    8    9 1  
    10    9   10 ar 
    11    9   12 ar 
    12   10   11 ar 
    13   11   14 ar 
    14   12   13 ar 
    15   13   14 ar 
    16   14   15 1  
    17   15   16 1  
    18   16   17 am 
    19   17   18 2  
    20   17   19 1  
    21   19   20 1  
    22   19   28 2  
    23   20   21 1  
    24   20   26 2  
    25   21   22 2  
    26   21   23 1  
    27   23   24 2  
    28   24   25 1  
    29   25   26 1  
    30   26   27 1  
    31   27   28 1  
    32    1   29 1  
    33    1   30 1  
    34    2   31 1  
    35    2   32 1  
    36    3   33 1  
    37    4   34 1  
    38    4   35 1  
    39    4   36 1  
    40    5   37 1  
    41    5   38 1  
    42    6   39 1  
    43    6   40 1  
    44    7   41 1  
    45    8   42 1  
    46    8   43 1  
    47   10   44 1  
    48   11   45 1  
    49   12   46 1  
    50   13   47 1  
    51   15   48 1  
    52   15   49 1  
    53   16   50 1  
    54   24   51 1  
    55   25   52 1  
    56   28   53 1  
@<TRIPOS>SUBSTRUCTURE
     1 BWR         1

