### 
### Created by X-TOOL on Mon Aug  2 16:14:34 2021
### 

@<TRIPOS>MOLECULE
6jof_ligand
   53    56     1     0     0
SMALL
GAST_HUCK


@<TRIPOS>ATOM
      1 CAL         1.0050   14.6300  -16.0290 C.3       1 BWR        -0.0254
      2 CAJ        -0.3690   14.6610  -16.7560 C.3       1 BWR         0.0306
      3 CBA        -0.1820   14.5090  -18.2930 C.3       1 BWR        -0.0146
      4 NAA        -1.4630   14.6820  -19.0030 N.4       1 BWR         0.2210
      5 CAK         0.8970   15.4870  -18.8400 C.3       1 BWR         0.0306
      6 CAM         2.1840   15.4100  -17.9840 C.3       1 BWR        -0.0254
      7 NBB         1.9440   15.6690  -16.5400 N.4       1 BWR         0.2466
      8 CAO         3.2570   15.5980  -15.8480 C.3       1 BWR        -0.0011
      9 CAV         3.4550   16.5170  -14.7930 C.ar      1 BWR        -0.0053
     10 CAG         4.5620   17.3770  -14.8040 C.ar      1 BWR        -0.0617
     11 CAE         4.7780   18.2620  -13.7330 C.ar      1 BWR        -0.0647
     12 CAF         2.6170   16.5340  -13.6710 C.ar      1 BWR        -0.0617
     13 CAD         2.8310   17.4200  -12.6050 C.ar      1 BWR        -0.0647
     14 CAU         3.9260   18.2890  -12.6190 C.ar      1 BWR        -0.0278
     15 CAN         4.1580   19.1940  -11.5560 C.3       1 BWR         0.0606
     16 NAQ         4.1990   18.5160  -10.2280 N.am      1 BWR        -0.2790
     17 CAT         4.7620   19.0350   -9.1060 C.2       1 BWR         0.1882
     18 OAB         5.4420   20.0640   -9.1530 O.2       1 BWR        -0.3937
     19 CAW         4.7350   18.3150   -7.9410 C.2       1 BWR         0.0389
     20 CAZ         3.8420   17.3660   -7.4720 C.2       1 BWR         0.0636
     21 CAX         2.7450   16.7440   -8.0120 C.2       1 BWR         0.1433
     22 OAC         2.2710   17.0210   -9.1130 O.2       1 BWR        -0.4189
     23 NAR         2.0330   15.7340   -7.3070 N.2       1 BWR        -0.2549
     24 CAH         2.3970   15.3510   -6.0950 C.2       1 BWR         0.1306
     25 NAP         3.5240   15.9740   -5.5420 N.pl3     1 BWR        -0.2136
     26 CAY         4.1840   16.9470   -6.2070 C.2       1 BWR         0.1679
     27 SAS         5.5120   17.7510   -5.6830 S.3       1 BWR         0.0101
     28 CAI         5.6710   18.6560   -7.0470 C.2       1 BWR         0.0121
     29 H1          1.4602   13.6396  -16.1768 H         1 BWR         0.0816
     30 H2          0.8400   14.8011  -14.9550 H         1 BWR         0.0816
     31 H3         -0.8670   15.6190  -16.5460 H         1 BWR         0.0372
     32 H4         -0.9926   13.8344  -16.3848 H         1 BWR         0.0372
     33 H5          0.1706   13.4849  -18.4848 H         1 BWR         0.0853
     34 H6         -1.3141   14.5789  -19.9946 H         1 BWR         0.1997
     35 H7         -1.8315   15.6006  -18.8123 H         1 BWR         0.1997
     36 H8         -2.1189   13.9847  -18.6875 H         1 BWR         0.1997
     37 H9          0.5033   16.5137  -18.8097 H         1 BWR         0.0372
     38 H10         1.1369   15.2167  -19.8789 H         1 BWR         0.0372
     39 H11         2.8985   16.1576  -18.3591 H         1 BWR         0.0816
     40 H12         2.6156   14.4040  -18.0915 H         1 BWR         0.0816
     41 H13         1.5398   16.5832  -16.4101 H         1 BWR         0.2047
     42 H14         4.0421   15.7736  -16.5982 H         1 BWR         0.0967
     43 H15         3.3647   14.5842  -15.4350 H         1 BWR         0.0967
     44 H16         5.2525   17.3597  -15.6394 H         1 BWR         0.0542
     45 H17         5.6233   18.9397  -13.7690 H         1 BWR         0.0540
     46 H18         1.7816   15.8447  -13.6253 H         1 BWR         0.0542
     47 H19         2.1442   17.4310  -11.7664 H         1 BWR         0.0540
     48 H20         3.3506   19.9410  -11.5460 H         1 BWR         0.0669
     49 H21         5.1213   19.6974  -11.7250 H         1 BWR         0.0669
     50 H22         3.7802   17.6106  -10.1584 H         1 BWR         0.1864
     51 H23         1.8457   14.5856   -5.5508 H         1 BWR         0.1577
     52 H24         3.8553   15.6844   -4.6107 H         1 BWR         0.2444
     53 H25         6.4290   19.4226   -7.2008 H         1 BWR         0.0720
@<TRIPOS>BOND
     1    1    2 1  
     2    1    7 1  
     3    2    3 1  
     4    3    4 1  
     5    3    5 1  
     6    5    6 1  
     7    6    7 1  
     8    7    8 1  
     9    8    9 1  
    10    9   10 ar 
    11    9   12 ar 
    12   10   11 ar 
    13   11   14 ar 
    14   12   13 ar 
    15   13   14 ar 
    16   14   15 1  
    17   15   16 1  
    18   16   17 am 
    19   17   18 2  
    20   17   19 1  
    21   19   20 1  
    22   19   28 2  
    23   20   21 1  
    24   20   26 2  
    25   21   22 2  
    26   21   23 1  
    27   23   24 2  
    28   24   25 1  
    29   25   26 1  
    30   26   27 1  
    31   27   28 1  
    32    1   29 1  
    33    1   30 1  
    34    2   31 1  
    35    2   32 1  
    36    3   33 1  
    37    4   34 1  
    38    4   35 1  
    39    4   36 1  
    40    5   37 1  
    41    5   38 1  
    42    6   39 1  
    43    6   40 1  
    44    7   41 1  
    45    8   42 1  
    46    8   43 1  
    47   10   44 1  
    48   11   45 1  
    49   12   46 1  
    50   13   47 1  
    51   15   48 1  
    52   15   49 1  
    53   16   50 1  
    54   24   51 1  
    55   25   52 1  
    56   28   53 1  
@<TRIPOS>SUBSTRUCTURE
     1 BWR         1

