### 
### Created by X-TOOL on Mon Aug  2 16:10:16 2021
### 

@<TRIPOS>MOLECULE
6jpj_ligand
   70    73     1     0     0
SMALL
GAST_HUCK


@<TRIPOS>ATOM
      1 O          87.4820    1.4910   93.0820 O.2       1 FGF        -0.3909
      2 C          87.6340    2.6550   93.3170 C.2       1 FGF         0.2257
      3 CA         87.1980    3.1400   94.5110 C.3       1 FGF         0.0580
      4 N          86.7750    4.5120   94.4000 N.4       1 FGF         0.2513
      5 CAT        86.2240    5.0020   95.6360 C.3       1 FGF        -0.0412
      6 CAP        87.9830    5.2120   94.0950 C.3       1 FGF        -0.0093
      7 CAO        88.4420    4.8190   92.7490 C.3       1 FGF         0.0758
      8 NAN        88.2320    3.4200   92.4300 N.am      1 FGF        -0.2548
      9 CAM        88.7010    2.9160   91.1510 C.3       1 FGF         0.0629
     10 CAA        87.8220    3.0510   90.0780 C.ar      1 FGF        -0.0124
     11 CAB        86.4640    3.1160   90.2450 C.ar      1 FGF        -0.0571
     12 CAF        88.3310    3.0930   88.8070 C.ar      1 FGF         0.0318
     13 CAL        89.6830    3.0450   88.5950 C.3       1 FGF         0.0836
     14 OAV        90.0520    1.6970   88.6000 O.3       1 FGF        -0.3827
     15 NAE        87.5230    3.2040   87.7770 N.ar      1 FGF        -0.2985
     16 CAD        86.2270    3.2750   87.9120 C.ar      1 FGF         0.1301
     17 CAC        85.6630    3.2220   89.1490 C.ar      1 FGF        -0.0066
     18 CAG        84.3210    3.2730   89.3270 C.3       1 FGF        -0.0193
     19 CAH        83.6850    4.0760   88.2980 C.3       1 FGF        -0.0195
     20 CAI        84.0400    3.5500   86.9960 C.3       1 FGF         0.0589
     21 NAJ        85.4710    3.3620   86.8180 N.am      1 FGF        -0.1909
     22 CAK        85.9480    3.1440   85.5890 C.2       1 FGF         0.3275
     23 OAX        85.2170    3.1560   84.6200 O.2       1 FGF        -0.3767
     24 NAW        87.2540    2.9560   85.4590 N.am      1 FGF        -0.1959
     25 CAY        87.8750    2.6610   84.3350 C.ar      1 FGF         0.1345
     26 CAZ        87.2680    1.9460   83.3520 C.ar      1 FGF         0.0116
     27 NBD        89.1420    2.9910   84.2110 N.ar      1 FGF        -0.2871
     28 CBC        89.8510    2.6650   83.0870 C.ar      1 FGF         0.0180
     29 CBB        89.2720    1.9610   82.0730 C.ar      1 FGF         0.1230
     30 CBE        89.9900    1.6610   80.9540 C.1       1 FGF         0.0829
     31 NBF        90.5010    1.4560   80.1750 N.1       1 FGF        -0.3473
     32 CBA        87.9730    1.6070   82.2370 C.ar      1 FGF         0.0791
     33 NBG        87.4090    0.9680   81.3010 N.pl3     1 FGF        -0.3087
     34 CBH        86.5080    1.6910   80.4670 C.3       1 FGF         0.0517
     35 CBI        85.5080    0.7220   79.9470 C.3       1 FGF         0.0675
     36 OBJ        84.7550    0.2220   80.9980 O.3       1 FGF        -0.3810
     37 CBK        84.7280   -1.1460   80.7200 C.3       1 FGF         0.0365
     38 H1         88.0165    3.0764   95.2431 H         1 FGF         0.1063
     39 H2         86.3493    2.5311   94.8559 H         1 FGF         0.1063
     40 H3         86.0963    4.6186   93.6624 H         1 FGF         0.2050
     41 H4         85.9141    6.0498   95.5094 H         1 FGF         0.0778
     42 H5         86.9850    4.9379   96.4277 H         1 FGF         0.0778
     43 H6         85.3518    4.3929   95.9156 H         1 FGF         0.0778
     44 H7         88.7542    4.9561   94.8364 H         1 FGF         0.0835
     45 H8         87.7967    6.2958   94.1187 H         1 FGF         0.0835
     46 H9         89.5191    5.0304   92.6773 H         1 FGF         0.0577
     47 H10        87.8991    5.4259   92.0094 H         1 FGF         0.0577
     48 H11        88.9209    1.8451   91.2722 H         1 FGF         0.0655
     49 H12        89.6262    3.4539   90.8969 H         1 FGF         0.0655
     50 H13        86.0318    3.0834   91.2386 H         1 FGF         0.0548
     51 H14        90.2100    3.5834   89.3965 H         1 FGF         0.0719
     52 H15        89.9291    3.5000   87.6242 H         1 FGF         0.0719
     53 H16        90.9882    1.6256   88.4550 H         1 FGF         0.2126
     54 H17        84.1061    3.7151   90.3110 H         1 FGF         0.0399
     55 H18        83.9147    2.2516   89.2873 H         1 FGF         0.0399
     56 H19        84.0281    5.1179   88.3798 H         1 FGF         0.0309
     57 H20        82.5930    4.0385   88.4246 H         1 FGF         0.0309
     58 H21        83.6826    4.2513   86.2276 H         1 FGF         0.0587
     59 H22        83.5421    2.5779   86.8654 H         1 FGF         0.0587
     60 H23        87.8143    3.0455   86.2825 H         1 FGF         0.2352
     61 H24        86.2309    1.6477   83.4543 H         1 FGF         0.0492
     62 H25        90.8875    2.9707   83.0015 H         1 FGF         0.0853
     63 H26        87.5939   -0.0337   81.1485 H         1 FGF         0.1833
     64 H27        87.0560    2.1505   79.6312 H         1 FGF         0.0545
     65 H28        86.0033    2.4754   81.0501 H         1 FGF         0.0545
     66 H29        86.0281   -0.1059   79.4430 H         1 FGF         0.0580
     67 H30        84.8451    1.2290   79.2304 H         1 FGF         0.0580
     68 H31        84.1487   -1.6666   81.4968 H         1 FGF         0.0523
     69 H32        85.7559   -1.5375   80.7050 H         1 FGF         0.0523
     70 H33        84.2581   -1.3117   79.7393 H         1 FGF         0.0523
@<TRIPOS>BOND
     1    1    2 2  
     2    2    3 1  
     3    2    8 am 
     4    3    4 1  
     5    4    5 1  
     6    4    6 1  
     7    6    7 1  
     8    7    8 1  
     9    8    9 1  
    10    9   10 1  
    11   10   11 ar 
    12   10   12 ar 
    13   11   17 ar 
    14   12   13 1  
    15   12   15 ar 
    16   13   14 1  
    17   15   16 ar 
    18   16   17 ar 
    19   16   21 1  
    20   17   18 1  
    21   18   19 1  
    22   19   20 1  
    23   20   21 1  
    24   21   22 am 
    25   22   23 2  
    26   22   24 am 
    27   24   25 1  
    28   25   26 ar 
    29   25   27 ar 
    30   26   32 ar 
    31   27   28 ar 
    32   28   29 ar 
    33   29   30 1  
    34   29   32 ar 
    35   30   31 3  
    36   32   33 1  
    37   33   34 1  
    38   34   35 1  
    39   35   36 1  
    40   36   37 1  
    41    3   38 1  
    42    3   39 1  
    43    4   40 1  
    44    5   41 1  
    45    5   42 1  
    46    5   43 1  
    47    6   44 1  
    48    6   45 1  
    49    7   46 1  
    50    7   47 1  
    51    9   48 1  
    52    9   49 1  
    53   11   50 1  
    54   13   51 1  
    55   13   52 1  
    56   14   53 1  
    57   18   54 1  
    58   18   55 1  
    59   19   56 1  
    60   19   57 1  
    61   20   58 1  
    62   20   59 1  
    63   24   60 1  
    64   26   61 1  
    65   28   62 1  
    66   33   63 1  
    67   34   64 1  
    68   34   65 1  
    69   35   66 1  
    70   35   67 1  
    71   37   68 1  
    72   37   69 1  
    73   37   70 1  
@<TRIPOS>SUBSTRUCTURE
     1 FGF         1

