### 
### Created by X-TOOL on Mon Aug  2 16:14:34 2021
### 

@<TRIPOS>MOLECULE
6jse_ligand
   55    58     1     0     0
SMALL
GAST_HUCK


@<TRIPOS>ATOM
      1 C1         21.5320   39.2410   -7.5400 C.ar      1 C6R        -0.0112
      2 C2         21.3270   38.5410   -8.7330 C.ar      1 C6R        -0.0061
      3 C3         20.0370   38.1280   -9.0870 C.ar      1 C6R         0.1529
      4 C4         18.8680   38.4290   -8.1840 C.ar      1 C6R         0.0187
      5 C5         19.1650   39.1380   -7.0070 C.ar      1 C6R        -0.0185
      6 C6         17.4320   37.9950   -8.5160 C.3       1 C6R         0.1060
      7 C7         16.9420   38.6380   -9.8470 C.3       1 C6R         0.0220
      8 N1         15.1580   39.5340   -6.0980 N.pl3     1 C6R        -0.2674
      9 N2         20.5930   40.2170   -5.4890 N.am      1 C6R        -0.2278
     10 O1         20.9640   43.6230   -0.1190 O.3       1 C6R        -0.2551
     11 C8         16.8180   40.1800   -9.7560 C.3       1 C6R         0.0044
     12 N3         20.3870   41.3810   -2.8850 N.ar      1 C6R        -0.2611
     13 C9         15.9250   39.4260   -7.1810 C.cat     1 C6R         0.2584
     14 C10        21.6730   40.8220   -4.9460 C.2       1 C6R         0.2504
     15 C11        21.4910   41.5780   -3.6540 C.ar      1 C6R         0.1460
     16 C12        20.1890   42.0400   -1.7310 C.ar      1 C6R         0.0771
     17 C13        21.1520   42.9520   -1.3030 C.ar      1 C6R         0.2041
     18 C14        22.4570   42.4900   -3.2230 C.ar      1 C6R         0.0504
     19 C15        17.4640   36.4620   -8.6120 C.3       1 C6R        -0.0422
     20 F1         22.9090   43.6240    1.1070 F         1 C6R        -0.2119
     21 C17        21.9820   44.4290    0.4900 C.3       1 C6R         0.2163
     22 N4         22.2630   43.1440   -2.0650 N.ar      1 C6R        -0.2420
     23 O          22.7950   40.7990   -5.4360 O.2       1 C6R        -0.3700
     24 C          20.4620   39.5460   -6.6750 C.ar      1 C6R         0.0908
     25 F          19.8520   37.4590  -10.2360 F         1 C6R        -0.1644
     26 N          16.5150   38.3150   -7.4010 N.pl3     1 C6R        -0.2832
     27 S          16.0860   40.7350   -8.2210 S.3       1 C6R        -0.0859
     28 C16        15.7110   37.9720  -10.4160 C.ar      1 C6R        -0.0435
     29 C22        15.8650   37.1540  -11.5500 C.ar      1 C6R        -0.0607
     30 C21        14.7690   36.4860  -12.1150 C.ar      1 C6R        -0.0686
     31 C20        13.4950   36.6250  -11.5510 C.ar      1 C6R        -0.0687
     32 C19        13.3150   37.4220  -10.4140 C.ar      1 C6R        -0.0686
     33 C18        14.4160   38.0880   -9.8540 C.ar      1 C6R        -0.0607
     34 H1         22.5349   39.5556   -7.2750 H         1 C6R         0.0762
     35 H2         22.1657   38.3185   -9.3828 H         1 C6R         0.0657
     36 H3         18.3552   39.3789   -6.3278 H         1 C6R         0.0676
     37 H4         17.7418   38.4487  -10.5781 H         1 C6R         0.0412
     38 H5         15.0561   38.7340   -5.4572 H         1 C6R         0.3186
     39 H6         14.6665   40.4175   -5.9010 H         1 C6R         0.3186
     40 H7         19.7597   40.2675   -4.9384 H         1 C6R         0.2247
     41 H8         16.1918   40.5308  -10.5895 H         1 C6R         0.0391
     42 H9         17.8233   40.6179   -9.8430 H         1 C6R         0.0391
     43 H10        19.2954   41.8653   -1.1428 H         1 C6R         0.0874
     44 H11        23.3489   42.6675   -3.8130 H         1 C6R         0.0942
     45 H12        17.8137   36.0421   -7.6573 H         1 C6R         0.0173
     46 H13        18.1483   36.1593   -9.4183 H         1 C6R         0.0173
     47 H14        16.4529   36.0870   -8.8290 H         1 C6R         0.0173
     48 H15        21.5228   45.0944    1.2359 H         1 C6R         0.0992
     49 H16        22.4801   45.0328   -0.2828 H         1 C6R         0.0992
     50 H17        16.3318   37.5579   -6.7271 H         1 C6R         0.3103
     51 H18        16.8469   37.0381  -11.9944 H         1 C6R         0.0556
     52 H19        14.9084   35.8611  -12.9897 H         1 C6R         0.0599
     53 H20        12.6475   36.1153  -11.9949 H         1 C6R         0.0559
     54 H21        12.3317   37.5239   -9.9692 H         1 C6R         0.0599
     55 H22        14.2725   38.7037   -8.9735 H         1 C6R         0.0556
@<TRIPOS>BOND
     1    1    2 ar 
     2   24    1 ar 
     3    2    3 ar 
     4    4    3 ar 
     5    3   25 1  
     6    5    4 ar 
     7    4    6 1  
     8   24    5 ar 
     9    6    7 1  
    10    6   19 1  
    11    6   26 1  
    12    7   11 1  
    13    7   28 1  
    14   13    8 ar 
    15   14    9 am 
    16    9   24 1  
    17   17   10 1  
    18   10   21 1  
    19   11   27 1  
    20   12   15 ar 
    21   16   12 ar 
    22   26   13 ar 
    23   13   27 1  
    24   15   14 1  
    25   14   23 2  
    26   15   18 ar 
    27   16   17 ar 
    28   17   22 ar 
    29   18   22 ar 
    30   21   20 1  
    31   28   29 ar 
    32   28   33 ar 
    33   29   30 ar 
    34   30   31 ar 
    35   31   32 ar 
    36   32   33 ar 
    37    1   34 1  
    38    2   35 1  
    39    5   36 1  
    40    7   37 1  
    41    8   38 1  
    42    8   39 1  
    43    9   40 1  
    44   11   41 1  
    45   11   42 1  
    46   16   43 1  
    47   18   44 1  
    48   19   45 1  
    49   19   46 1  
    50   19   47 1  
    51   21   48 1  
    52   21   49 1  
    53   26   50 1  
    54   29   51 1  
    55   30   52 1  
    56   31   53 1  
    57   32   54 1  
    58   33   55 1  
@<TRIPOS>SUBSTRUCTURE
     1 C6R         1

