### 
### Created by X-TOOL on Mon Aug  2 16:14:34 2021
### 

@<TRIPOS>MOLECULE
6jsf_ligand
   55    58     1     0     0
SMALL
GAST_HUCK


@<TRIPOS>ATOM
      1 C1        -21.6020  -39.3050   -6.8570 C.ar      1 C7X        -0.0112
      2 C2        -21.4330  -38.4330   -7.9380 C.ar      1 C7X        -0.0061
      3 C3        -20.1730  -38.2940   -8.5390 C.ar      1 C7X         0.1529
      4 C4        -18.9930  -39.0640   -8.0290 C.ar      1 C7X         0.0187
      5 C5        -19.2560  -39.9190   -6.9530 C.ar      1 C7X        -0.0185
      6 C6        -17.5870  -39.0140   -8.6420 C.3       1 C7X         0.1060
      7 C7        -17.5010  -40.0230   -9.8410 C.3       1 C7X         0.0220
      8 N1        -14.9230  -40.1780   -6.4260 N.pl3     1 C7X        -0.2674
      9 N2        -20.5880  -40.9170   -5.3140 N.am      1 C7X        -0.2278
     10 O1        -20.7310  -44.2390    0.0510 O.3       1 C7X        -0.2551
     11 C8        -17.3150  -41.4960   -9.4170 C.3       1 C7X         0.0044
     12 N3        -20.2630  -42.0170   -2.7540 N.ar      1 C7X        -0.2611
     13 C9        -15.8400  -40.2580   -7.3900 C.cat     1 C7X         0.2584
     14 C10       -21.6540  -41.4630   -4.7220 C.2       1 C7X         0.2504
     15 C11       -21.4150  -42.2170   -3.4510 C.ar      1 C7X         0.1460
     16 C12       -20.0240  -42.6790   -1.6040 C.ar      1 C7X         0.0771
     17 C13       -20.9770  -43.5740   -1.1240 C.ar      1 C7X         0.2041
     18 C14       -22.3670  -43.1230   -2.9740 C.ar      1 C7X         0.0504
     19 C15       -17.1900  -37.6210   -9.1290 C.3       1 C7X        -0.0422
     20 F1        -22.7550  -44.0960    1.1010 F         1 C7X        -0.2119
     21 C17       -21.7450  -44.9540    0.7620 C.3       1 C7X         0.2163
     22 N4        -22.1300  -43.7740   -1.8270 N.ar      1 C7X        -0.2420
     23 O         -22.7980  -41.3670   -5.1380 O.2       1 C7X        -0.3700
     24 C         -20.5180  -40.0530   -6.3700 C.ar      1 C7X         0.0908
     25 F         -20.0340  -37.4600   -9.5730 F         1 C7X        -0.1644
     26 N         -16.5920  -39.2460   -7.5790 N.pl3     1 C7X        -0.2832
     27 S         -15.9660  -41.6720   -8.2920 S.3       1 C7X        -0.0859
     28 C16       -18.6370  -39.9090  -10.8280 C.ar      1 C7X        -0.0435
     29 C22       -18.5280  -39.0200  -11.9050 C.ar      1 C7X        -0.0607
     30 C21       -19.5560  -38.8810  -12.8390 C.ar      1 C7X        -0.0686
     31 C20       -20.7250  -39.6350  -12.6980 C.ar      1 C7X        -0.0687
     32 C19       -20.8650  -40.5260  -11.6280 C.ar      1 C7X        -0.0686
     33 C18       -19.8230  -40.6670  -10.7010 C.ar      1 C7X        -0.0607
     34 H1        -22.5763  -39.4038   -6.3923 H         1 C7X         0.0762
     35 H2        -22.2767  -37.8641   -8.3116 H         1 C7X         0.0657
     36 H3        -18.4387  -40.5072   -6.5516 H         1 C7X         0.0676
     37 H4        -16.5894  -39.7453  -10.3903 H         1 C7X         0.0412
     38 H5        -14.8369  -39.3170   -5.8673 H         1 C7X         0.3186
     39 H6        -14.3005  -40.9772   -6.2397 H         1 C7X         0.3186
     40 H7        -19.7058  -41.1813   -4.9243 H         1 C7X         0.2247
     41 H8        -17.1175  -42.1046  -10.3118 H         1 C7X         0.0391
     42 H9        -18.2363  -41.8481   -8.9300 H         1 C7X         0.0391
     43 H10       -19.1009  -42.5165   -1.0594 H         1 C7X         0.0874
     44 H11       -23.2845  -43.2965   -3.5246 H         1 C7X         0.0942
     45 H12       -17.2486  -36.9095   -8.2921 H         1 C7X         0.0173
     46 H13       -17.8748  -37.3032   -9.9290 H         1 C7X         0.0173
     47 H14       -16.1608  -37.6475   -9.5164 H         1 C7X         0.0173
     48 H15       -21.3138  -45.3916    1.6745 H         1 C7X         0.0992
     49 H16       -22.1440  -45.7562    0.1238 H         1 C7X         0.0992
     50 H17       -16.4902  -38.4841   -6.8934 H         1 C7X         0.3103
     51 H18       -17.6268  -38.4278  -12.0154 H         1 C7X         0.0556
     52 H19       -19.4486  -38.1922  -13.6691 H         1 C7X         0.0599
     53 H20       -21.5262  -39.5290  -13.4205 H         1 C7X         0.0559
     54 H21       -21.7750  -41.1044  -11.5165 H         1 C7X         0.0599
     55 H22       -19.9280  -41.3648   -9.8781 H         1 C7X         0.0556
@<TRIPOS>BOND
     1    1    2 ar 
     2   24    1 ar 
     3    2    3 ar 
     4    4    3 ar 
     5    3   25 1  
     6    5    4 ar 
     7    4    6 1  
     8   24    5 ar 
     9    6    7 1  
    10    6   19 1  
    11    6   26 1  
    12    7   11 1  
    13    7   28 1  
    14   13    8 ar 
    15   14    9 am 
    16    9   24 1  
    17   17   10 1  
    18   10   21 1  
    19   11   27 1  
    20   12   15 ar 
    21   16   12 ar 
    22   26   13 ar 
    23   13   27 1  
    24   15   14 1  
    25   14   23 2  
    26   15   18 ar 
    27   16   17 ar 
    28   17   22 ar 
    29   18   22 ar 
    30   21   20 1  
    31   28   29 ar 
    32   28   33 ar 
    33   29   30 ar 
    34   30   31 ar 
    35   31   32 ar 
    36   32   33 ar 
    37    1   34 1  
    38    2   35 1  
    39    5   36 1  
    40    7   37 1  
    41    8   38 1  
    42    8   39 1  
    43    9   40 1  
    44   11   41 1  
    45   11   42 1  
    46   16   43 1  
    47   18   44 1  
    48   19   45 1  
    49   19   46 1  
    50   19   47 1  
    51   21   48 1  
    52   21   49 1  
    53   26   50 1  
    54   29   51 1  
    55   30   52 1  
    56   31   53 1  
    57   32   54 1  
    58   33   55 1  
@<TRIPOS>SUBSTRUCTURE
     1 C7X         1

