### 
### Created by X-TOOL on Mon Aug  2 16:14:35 2021
### 

@<TRIPOS>MOLECULE
6jsg_ligand
   42    44     1     0     0
SMALL
GAST_HUCK


@<TRIPOS>ATOM
      1 C1         21.6130   39.2360   -7.4450 C.ar      1 C6U        -0.0112
      2 C2         21.3590   38.5830   -8.6510 C.ar      1 C6U        -0.0061
      3 C3         20.0400   38.3680   -9.0600 C.ar      1 C6U         0.1527
      4 C4         18.8960   38.8240   -8.2020 C.ar      1 C6U         0.0164
      5 C5         19.2310   39.4730   -7.0090 C.ar      1 C6U        -0.0186
      6 C6         17.4340   38.6220   -8.6010 C.3       1 C6U         0.0939
      7 C7         17.1750   37.1930   -9.0610 C.3       1 C6U        -0.0444
      8 N1         15.0570   39.8150   -6.0970 N.pl3     1 C6U        -0.2674
      9 N2         20.7390   40.3150   -5.4380 N.am      1 C6U        -0.2273
     10 C8         15.8760   39.8610   -7.1480 C.cat     1 C6U         0.2582
     11 N3         20.5930   41.3120   -2.8590 N.ar      1 C6U        -0.2754
     12 C9         17.1220   41.0520   -9.3850 C.3       1 C6U        -0.0081
     13 C10        17.1210   39.5690   -9.7800 C.3       1 C6U        -0.0238
     14 C11        21.8420   40.8850   -4.9210 C.2       1 C6U         0.2506
     15 C12        21.6560   41.6440   -3.6430 C.ar      1 C6U         0.1282
     16 C13        20.3330   41.9330   -1.6970 C.ar      1 C6U         0.0309
     17 C14        21.1760   42.9480   -1.2640 C.ar      1 C6U         0.0731
     18 C15        22.2950   43.3100   -2.0370 C.ar      1 C6U        -0.0227
     19 F          19.8160   37.7460  -10.2250 F         1 C6U        -0.1644
     20 S          16.0110   41.2850   -8.0220 S.3       1 C6U        -0.0883
     21 N          16.5360   38.8140   -7.4500 N.pl3     1 C6U        -0.2851
     22 C          20.5580   39.6850   -6.6300 C.ar      1 C6U         0.0909
     23 O          22.9610   40.8050   -5.4010 O.2       1 C6U        -0.3678
     24 C16        22.5420   42.6540   -3.2480 C.ar      1 C6U        -0.0132
     25 CL         20.8080   43.7300    0.3050 Cl        1 C6U        -0.0569
     26 H1         22.6376   39.3998   -7.1314 H         1 C6U         0.0762
     27 H2         22.1821   38.2433   -9.2692 H         1 C6U         0.0657
     28 H3         18.4365   39.8218   -6.3592 H         1 C6U         0.0676
     29 H4         16.1165   37.0837   -9.3396 H         1 C6U         0.0171
     30 H5         17.4130   36.4960   -8.2440 H         1 C6U         0.0171
     31 H6         17.8084   36.9675   -9.9316 H         1 C6U         0.0171
     32 H7         14.9661   38.9454   -5.5526 H         1 C6U         0.3186
     33 H8         14.5152   40.6491   -5.8294 H         1 C6U         0.3186
     34 H9         19.9267   40.3615   -4.8565 H         1 C6U         0.2249
     35 H10        16.7916   41.6617  -10.2389 H         1 C6U         0.0367
     36 H11        18.1374   41.3546   -9.0894 H         1 C6U         0.0367
     37 H12        16.1276   39.3145  -10.1779 H         1 C6U         0.0215
     38 H13        17.8795   39.4156  -10.5618 H         1 C6U         0.0215
     39 H14        19.4734   41.6447   -1.1028 H         1 C6U         0.0847
     40 H15        22.9623   44.0932   -1.6959 H         1 C6U         0.0753
     41 H16        16.4291   38.0092   -6.8161 H         1 C6U         0.3101
     42 H17        23.3944   42.9199   -3.8626 H         1 C6U         0.0762
@<TRIPOS>BOND
     1    1    2 ar 
     2   22    1 ar 
     3    2    3 ar 
     4    4    3 ar 
     5    3   19 1  
     6    5    4 ar 
     7    4    6 1  
     8   22    5 ar 
     9    6    7 1  
    10    6   13 1  
    11    6   21 1  
    12   10    8 ar 
    13   14    9 am 
    14    9   22 1  
    15   10   20 1  
    16   21   10 ar 
    17   15   11 ar 
    18   11   16 ar 
    19   13   12 1  
    20   12   20 1  
    21   14   15 1  
    22   14   23 2  
    23   15   24 ar 
    24   16   17 ar 
    25   17   18 ar 
    26   17   25 1  
    27   18   24 ar 
    28    1   26 1  
    29    2   27 1  
    30    5   28 1  
    31    7   29 1  
    32    7   30 1  
    33    7   31 1  
    34    8   32 1  
    35    8   33 1  
    36    9   34 1  
    37   12   35 1  
    38   12   36 1  
    39   13   37 1  
    40   13   38 1  
    41   16   39 1  
    42   18   40 1  
    43   21   41 1  
    44   24   42 1  
@<TRIPOS>SUBSTRUCTURE
     1 C6U         1

