### 
### Created by X-TOOL on Mon Aug  2 16:14:35 2021
### 

@<TRIPOS>MOLECULE
6jsn_ligand
   58    61     1     0     0
SMALL
GAST_HUCK


@<TRIPOS>ATOM
      1 C1        -16.9080  -36.9920   -9.1870 C.3       1 C7O        -0.0438
      2 C2        -17.1890  -38.4280   -8.7220 C.3       1 C7O         0.0996
      3 C3        -15.7020  -39.5900   -7.1670 C.cat     1 C7O         0.2582
      4 C4        -16.7930  -40.8640   -9.4640 C.3       1 C7O        -0.0024
      5 C5        -16.6970  -39.3450   -9.8780 C.3       1 C7O         0.0029
      6 C6        -15.1720  -39.2700  -10.3360 C.3       1 C7O        -0.0308
      7 C7        -14.5800  -40.1910  -11.4130 C.3       1 C7O         0.0657
      8 N1        -16.2890  -38.5620   -7.5640 N.pl3     1 C7O        -0.2846
      9 N2        -14.8290  -39.5110   -6.0250 N.pl3     1 C7O        -0.2674
     10 O1        -15.6020  -38.6910  -13.2980 O.2       1 C7O        -0.1744
     11 C8        -17.3860  -40.3350  -12.3180 C.3       1 C7O         0.0657
     12 O2        -15.2430  -41.1100  -13.7120 O.2       1 C7O        -0.1744
     13 N3        -20.3970  -40.4950   -5.5420 N.am      1 C7O        -0.2278
     14 C9        -17.7090  -39.4580  -11.1000 C.3       1 C7O        -0.0308
     15 C10       -18.6690  -38.6470   -8.3010 C.ar      1 C7O         0.0169
     16 C11       -18.9720  -39.4390   -7.1800 C.ar      1 C7O        -0.0186
     17 C12       -20.2780  -39.6780   -6.7590 C.ar      1 C7O         0.0908
     18 C13       -21.6250  -40.9520   -4.8780 C.2       1 C7O         0.2504
     19 C14       -21.3990  -41.7460   -3.5700 C.ar      1 C7O         0.1460
     20 C15       -19.9700  -42.2660   -1.8170 C.ar      1 C7O         0.0771
     21 F2        -19.5780  -37.2900  -10.0710 F         1 C7O        -0.1644
     22 C21       -19.7520  -38.0680   -8.9810 C.ar      1 C7O         0.1527
     23 S2        -15.6910  -40.0650  -12.7840 S.o2      1 C7O        -0.0310
     24 S1        -15.8640  -41.1910   -7.9530 S.3       1 C7O        -0.0878
     25 C20       -21.0590  -38.2930   -8.5510 C.ar      1 C7O        -0.0061
     26 C19       -21.3340  -39.0900   -7.4290 C.ar      1 C7O        -0.0112
     27 O3        -22.7190  -40.7330   -5.2530 O.2       1 C7O        -0.3700
     28 C18       -22.3890  -42.5550   -3.0130 C.ar      1 C7O         0.0504
     29 N5        -22.1220  -43.1900   -1.8700 N.ar      1 C7O        -0.2420
     30 C16       -20.9410  -43.0690   -1.2570 C.ar      1 C7O         0.2041
     31 N4        -20.2320  -41.6050   -2.9460 N.ar      1 C7O        -0.2611
     32 O4        -20.6230  -43.7290   -0.0480 O.3       1 C7O        -0.2551
     33 C17       -21.7180  -44.3630    0.5950 C.3       1 C7O         0.2163
     34 F1        -22.6390  -43.4420    1.0290 F         1 C7O        -0.2119
     35 H1        -17.2343  -36.2847   -8.4104 H         1 C7O         0.0172
     36 H2        -17.4588  -36.7937  -10.1183 H         1 C7O         0.0172
     37 H3        -15.8296  -36.8687   -9.3654 H         1 C7O         0.0172
     38 H4        -16.3852  -41.4834  -10.2765 H         1 C7O         0.0372
     39 H5        -17.8489  -41.1244   -9.2989 H         1 C7O         0.0372
     40 H6        -14.5735  -39.4395   -9.4288 H         1 C7O         0.0280
     41 H7        -15.0123  -38.2422  -10.6939 H         1 C7O         0.0280
     42 H8        -14.5300  -41.2282  -11.0500 H         1 C7O         0.0500
     43 H9        -13.5729  -39.8537  -11.6992 H         1 C7O         0.0500
     44 H10       -16.1241  -37.7055   -7.0162 H         1 C7O         0.3101
     45 H11       -14.3408  -40.3541   -5.6907 H         1 C7O         0.3186
     46 H12       -14.6926  -38.6114   -5.5422 H         1 C7O         0.3186
     47 H13       -18.0471  -40.0643  -13.1544 H         1 C7O         0.0500
     48 H14       -17.5347  -41.3942  -12.0610 H         1 C7O         0.0500
     49 H15       -19.5370  -40.7734   -5.1143 H         1 C7O         0.2247
     50 H16       -17.8545  -38.4363  -11.4806 H         1 C7O         0.0280
     51 H17       -18.6567  -39.8339  -10.6870 H         1 C7O         0.0280
     52 H18       -18.1560  -39.8818   -6.6204 H         1 C7O         0.0676
     53 H19       -18.9997  -42.1723   -1.3429 H         1 C7O         0.0874
     54 H20       -21.8810  -37.8424   -9.0953 H         1 C7O         0.0657
     55 H21       -22.3540  -39.2413   -7.0947 H         1 C7O         0.0762
     56 H22       -23.3526  -42.6654   -3.4970 H         1 C7O         0.0942
     57 H23       -21.3459  -44.9330    1.4590 H         1 C7O         0.0992
     58 H24       -22.2033  -45.0487   -0.1152 H         1 C7O         0.0992
@<TRIPOS>BOND
     1    2    1 1  
     2    2    5 1  
     3    2    8 1  
     4   15    2 1  
     5    8    3 ar 
     6    3    9 ar 
     7    3   24 1  
     8    5    4 1  
     9    4   24 1  
    10    5    6 1  
    11    5   14 1  
    12    6    7 1  
    13    7   23 1  
    14   23   10 2  
    15   14   11 1  
    16   11   23 1  
    17   23   12 2  
    18   13   17 1  
    19   18   13 am 
    20   16   15 ar 
    21   15   22 ar 
    22   17   16 ar 
    23   17   26 ar 
    24   19   18 1  
    25   18   27 2  
    26   19   28 ar 
    27   31   19 ar 
    28   20   30 ar 
    29   20   31 ar 
    30   22   21 1  
    31   22   25 ar 
    32   25   26 ar 
    33   28   29 ar 
    34   29   30 ar 
    35   30   32 1  
    36   32   33 1  
    37   33   34 1  
    38    1   35 1  
    39    1   36 1  
    40    1   37 1  
    41    4   38 1  
    42    4   39 1  
    43    6   40 1  
    44    6   41 1  
    45    7   42 1  
    46    7   43 1  
    47    8   44 1  
    48    9   45 1  
    49    9   46 1  
    50   11   47 1  
    51   11   48 1  
    52   13   49 1  
    53   14   50 1  
    54   14   51 1  
    55   16   52 1  
    56   20   53 1  
    57   25   54 1  
    58   26   55 1  
    59   28   56 1  
    60   33   57 1  
    61   33   58 1  
@<TRIPOS>SUBSTRUCTURE
     1 C7O         1

