### 
### Created by X-TOOL on Mon Aug  2 16:14:35 2021
### 

@<TRIPOS>MOLECULE
6jsz_ligand
   58    61     1     0     0
SMALL
GAST_HUCK


@<TRIPOS>ATOM
      1 C1         20.3750   -3.9920  -17.5700 C.3       1 C7O        -0.0438
      2 C2         21.1400   -5.1400  -18.3010 C.3       1 C7O         0.0996
      3 C3         23.6330   -5.4550  -18.1360 C.cat     1 C7O         0.2582
      4 C4         22.2020   -6.1080  -20.4170 C.3       1 C7O        -0.0024
      5 C5         21.3120   -4.9390  -19.8610 C.3       1 C7O         0.0029
      6 C6         21.9280   -3.5270  -20.1510 C.3       1 C7O        -0.0308
      7 C7         22.2560   -3.2050  -21.6070 C.3       1 C7O         0.0657
      8 N1         22.4750   -5.0970  -17.6890 N.pl3     1 C7O        -0.2846
      9 N2         24.7570   -5.3140  -17.3870 N.pl3     1 C7O        -0.2674
     10 O1         21.0580   -3.1330  -23.9250 O.2       1 C7O        -0.1744
     11 C8         20.0080   -4.7740  -22.1580 C.3       1 C7O         0.0657
     12 O2         19.8480   -2.1630  -22.0120 O.2       1 C7O        -0.1744
     13 N3         21.5460   -9.8030  -16.5770 N.am      1 C7O        -0.2278
     14 C9         19.9710   -4.9980  -20.6440 C.3       1 C7O        -0.0308
     15 C10        20.4570   -6.4890  -17.9010 C.ar      1 C7O         0.0169
     16 C11        21.2060   -7.5880  -17.4260 C.ar      1 C7O        -0.0186
     17 C12        20.6550   -8.8220  -17.0630 C.ar      1 C7O         0.0908
     18 C13        21.3210  -11.1370  -16.3970 C.2       1 C7O         0.2504
     19 C14        22.4270  -11.9330  -15.8220 C.ar      1 C7O         0.1460
     20 C15        24.5930  -11.9670  -14.9780 C.ar      1 C7O         0.0771
     21 F2         18.1740   -5.7840  -18.4000 F         1 C7O        -0.1644
     22 C21        19.0560   -6.7140  -17.9770 C.ar      1 C7O         0.1527
     23 S2         20.7120   -3.1560  -22.5500 S.o2      1 C7O        -0.0310
     24 S1         23.8830   -6.1380  -19.7340 S.3       1 C7O        -0.0878
     25 C20        18.4900   -7.9270  -17.6120 C.ar      1 C7O        -0.0061
     26 C19        19.2630   -8.9660  -17.1490 C.ar      1 C7O        -0.0112
     27 O3         20.2840  -11.7110  -16.6810 O.2       1 C7O        -0.3700
     28 C18        22.3110  -13.3150  -15.5780 C.ar      1 C7O         0.0504
     29 N5         23.3390  -13.9670  -15.0530 N.ar      1 C7O        -0.2420
     30 C16        24.4850  -13.3410  -14.7430 C.ar      1 C7O         0.2041
     31 N4         23.5730  -11.3080  -15.4970 N.ar      1 C7O        -0.2611
     32 O4         25.5570  -13.9690  -14.2050 O.3       1 C7O        -0.2551
     33 C17        25.5200  -15.3570  -13.8720 C.3       1 C7O         0.2163
     34 F1         24.9450  -15.5330  -12.6090 F         1 C7O        -0.2119
     35 H1         20.3072   -4.2221  -16.4965 H         1 C7O         0.0172
     36 H2         19.3625   -3.9006  -17.9900 H         1 C7O         0.0172
     37 H3         20.9163   -3.0445  -17.7084 H         1 C7O         0.0172
     38 H4         22.2735   -6.0000  -21.5093 H         1 C7O         0.0372
     39 H5         21.7121   -7.0625  -20.1742 H         1 C7O         0.0372
     40 H6         22.8610   -3.4460  -19.5740 H         1 C7O         0.0280
     41 H7         21.2109   -2.7719  -19.7966 H         1 C7O         0.0280
     42 H8         22.9169   -3.9821  -22.0185 H         1 C7O         0.0500
     43 H9         22.7576   -2.2278  -21.6665 H         1 C7O         0.0500
     44 H10        22.4904   -4.7130  -16.7334 H         1 C7O         0.3101
     45 H11        25.6687   -5.6071  -17.7662 H         1 C7O         0.3186
     46 H12        24.6978   -4.9139  -16.4397 H         1 C7O         0.3186
     47 H13        18.9838   -4.8276  -22.5557 H         1 C7O         0.0500
     48 H14        20.6237   -5.5576  -22.6236 H         1 C7O         0.0500
     49 H15        22.4600   -9.4787  -16.3331 H         1 C7O         0.2247
     50 H16        19.3095   -4.2301  -20.2166 H         1 C7O         0.0280
     51 H17        19.5362   -5.9936  -20.4720 H         1 C7O         0.0280
     52 H18        22.2796   -7.4676  -17.3366 H         1 C7O         0.0676
     53 H19        25.5110  -11.4443  -14.7350 H         1 C7O         0.0874
     54 H20        17.4171   -8.0584  -17.6934 H         1 C7O         0.0657
     55 H21        18.7956   -9.8973  -16.8502 H         1 C7O         0.0762
     56 H22        21.3926  -13.8392  -15.8165 H         1 C7O         0.0942
     57 H23        26.5447  -15.7567  -13.8641 H         1 C7O         0.0992
     58 H24        24.9221  -15.8954  -14.6221 H         1 C7O         0.0992
@<TRIPOS>BOND
     1    2    1 1  
     2    2    5 1  
     3    2    8 1  
     4   15    2 1  
     5    8    3 ar 
     6    3    9 ar 
     7    3   24 1  
     8    5    4 1  
     9    4   24 1  
    10    5    6 1  
    11    5   14 1  
    12    6    7 1  
    13    7   23 1  
    14   23   10 2  
    15   14   11 1  
    16   11   23 1  
    17   23   12 2  
    18   13   17 1  
    19   18   13 am 
    20   16   15 ar 
    21   15   22 ar 
    22   17   16 ar 
    23   17   26 ar 
    24   19   18 1  
    25   18   27 2  
    26   19   28 ar 
    27   31   19 ar 
    28   20   30 ar 
    29   20   31 ar 
    30   22   21 1  
    31   22   25 ar 
    32   25   26 ar 
    33   28   29 ar 
    34   29   30 ar 
    35   30   32 1  
    36   32   33 1  
    37   33   34 1  
    38    1   35 1  
    39    1   36 1  
    40    1   37 1  
    41    4   38 1  
    42    4   39 1  
    43    6   40 1  
    44    6   41 1  
    45    7   42 1  
    46    7   43 1  
    47    8   44 1  
    48    9   45 1  
    49    9   46 1  
    50   11   47 1  
    51   11   48 1  
    52   13   49 1  
    53   14   50 1  
    54   14   51 1  
    55   16   52 1  
    56   20   53 1  
    57   25   54 1  
    58   26   55 1  
    59   28   56 1  
    60   33   57 1  
    61   33   58 1  
@<TRIPOS>SUBSTRUCTURE
     1 C7O         1

