### 
### Created by X-TOOL on Mon Aug  2 16:14:35 2021
### 

@<TRIPOS>MOLECULE
6jt3_ligand
   48    50     1     0     0
SMALL
GAST_HUCK


@<TRIPOS>ATOM
      1 C1         17.0630   38.2490   -8.6900 C.3       1 C83         0.1249
      2 C2         18.4930   38.6150   -8.3350 C.ar      1 C83         0.0192
      3 C3         18.7960   39.2710   -7.1380 C.ar      1 C83        -0.0185
      4 C4         20.0980   39.6280   -6.8110 C.ar      1 C83         0.0908
      5 C5         21.3490   40.8200   -5.0860 C.2       1 C83         0.2504
      6 C6         21.1260   41.5230   -3.7810 C.ar      1 C83         0.1460
      7 C7         19.7140   41.8800   -1.9280 C.ar      1 C83         0.0771
      8 N1         19.9830   41.2670   -3.0870 N.ar      1 C83        -0.2611
      9 N2         21.7970   43.0320   -2.1090 N.ar      1 C83        -0.2420
     10 O1         22.4660   40.8270   -5.5940 O.2       1 C83        -0.3700
     11 C8         20.6400   42.7830   -1.4180 C.ar      1 C83         0.2041
     12 N3         16.1660   38.5030   -7.5460 N.pl3     1 C83        -0.2827
     13 C9         21.3450   44.1800    0.4560 C.3       1 C83         0.2163
     14 C10        22.0570   42.4360   -3.2810 C.ar      1 C83         0.0504
     15 C11        21.1520   39.3280   -7.6890 C.ar      1 C83        -0.0112
     16 C12        20.9280   38.6880   -8.9120 C.ar      1 C83        -0.0061
     17 C13        19.6340   38.3280   -9.2610 C.ar      1 C83         0.1528
     18 C14        15.4800   39.5610   -7.3340 C.cat     1 C83         0.2586
     19 C15        16.6220   40.5950   -9.7070 C.3       1 C83         0.0316
     20 F2         15.3920   38.6650  -10.2670 F         1 C83        -0.2499
     21 C17        16.6430   39.0750   -9.9180 C.3       1 C83         0.1332
     22 C16        16.1300   41.3390  -10.9480 C.3       1 C83        -0.0516
     23 S          15.5970   40.9350   -8.3020 S.3       1 C83        -0.0824
     24 N4         14.6460   39.5620   -6.2990 N.pl3     1 C83        -0.2674
     25 C          16.9640   36.7580   -9.0040 C.3       1 C83        -0.0416
     26 F1         19.4140   37.7120  -10.4230 F         1 C83        -0.1644
     27 N          20.2580   40.2400   -5.6090 N.am      1 C83        -0.2278
     28 O          20.3610   43.4010   -0.2250 O.3       1 C83        -0.2551
     29 F          22.3510   43.3350    0.8560 F         1 C83        -0.2119
     30 H1         17.9944   39.5070   -6.4475 H         1 C83         0.0676
     31 H2         18.7913   41.6762   -1.3968 H         1 C83         0.0874
     32 H3         16.0842   37.7511   -6.8468 H         1 C83         0.3102
     33 H4         20.8946   44.6663    1.3338 H         1 C83         0.0992
     34 H5         21.7487   44.9470   -0.2213 H         1 C83         0.0992
     35 H6         22.9670   42.6571   -3.8270 H         1 C83         0.0942
     36 H7         22.1643   39.5992   -7.4119 H         1 C83         0.0762
     37 H8         21.7553   38.4756   -9.5795 H         1 C83         0.0657
     38 H9         17.6454   40.9350   -9.4902 H         1 C83         0.0427
     39 H10        17.3443   38.8562  -10.7367 H         1 C83         0.0603
     40 H11        16.1317   42.4213  -10.7513 H         1 C83         0.0241
     41 H12        15.1081   41.0120  -11.1905 H         1 C83         0.0241
     42 H13        16.7961   41.1193  -11.7954 H         1 C83         0.0241
     43 H14        14.0769   40.3964   -6.0970 H         1 C83         0.3186
     44 H15        14.5688   38.7284   -5.6990 H         1 C83         0.3186
     45 H16        17.6187   36.5182   -9.8548 H         1 C83         0.0172
     46 H17        15.9242   36.5052   -9.2589 H         1 C83         0.0172
     47 H18        17.2778   36.1764   -8.1246 H         1 C83         0.0172
     48 H19        19.4436   40.2614   -5.0291 H         1 C83         0.2247
@<TRIPOS>BOND
     1    2    1 1  
     2    1   12 1  
     3    1   21 1  
     4    1   25 1  
     5    3    2 ar 
     6    2   17 ar 
     7    4    3 ar 
     8    4   15 ar 
     9   27    4 1  
    10    5    6 1  
    11    5   10 2  
    12    5   27 am 
    13    6    8 ar 
    14    6   14 ar 
    15    8    7 ar 
    16    7   11 ar 
    17   11    9 ar 
    18    9   14 ar 
    19   11   28 1  
    20   12   18 ar 
    21   28   13 1  
    22   13   29 1  
    23   15   16 ar 
    24   16   17 ar 
    25   17   26 1  
    26   18   23 1  
    27   18   24 ar 
    28   21   19 1  
    29   19   22 1  
    30   19   23 1  
    31   21   20 1  
    32    3   30 1  
    33    7   31 1  
    34   12   32 1  
    35   13   33 1  
    36   13   34 1  
    37   14   35 1  
    38   15   36 1  
    39   16   37 1  
    40   19   38 1  
    41   21   39 1  
    42   22   40 1  
    43   22   41 1  
    44   22   42 1  
    45   24   43 1  
    46   24   44 1  
    47   25   45 1  
    48   25   46 1  
    49   25   47 1  
    50   27   48 1  
@<TRIPOS>SUBSTRUCTURE
     1 C83         1

