### 
### Created by X-TOOL on Mon Aug  2 16:14:36 2021
### 

@<TRIPOS>MOLECULE
6jtc_ligand
   27    27     1     0     0
SMALL
GAST_HUCK


@<TRIPOS>ATOM
      1 OAI        39.9180   21.8230  -37.2100 O.co2     1 C8O        -0.2587
      2 CAE        40.3220   22.9380  -37.6200 C.2       1 C8O         0.3708
      3 OAM        39.6340   23.9740  -37.3680 O.co2     1 C8O        -0.2587
      4 CAB        41.5480   23.0410  -38.3340 C.ar      1 C8O         0.1002
      5 CAC        42.1420   24.3190  -38.4220 C.ar      1 C8O        -0.0154
      6 CAD        43.3240   24.5260  -39.0850 C.ar      1 C8O         0.1277
      7 NAA        43.9410   25.7320  -39.1830 N.2       1 C8O         0.0332
      8 OAH        43.7030   26.7250  -38.3770 O.2       1 C8O        -0.1554
      9 OAG        44.8600   25.8820  -40.0590 O.2       1 C8O        -0.1554
     10 CAJ        43.9120   23.4230  -39.6880 C.ar      1 C8O        -0.0326
     11 CAK        43.3530   22.1600  -39.6260 C.ar      1 C8O        -0.0315
     12 CAF        42.1780   21.9390  -38.9510 C.ar      1 C8O         0.0653
     13 NAL        41.6170   20.7060  -38.8720 N.pl3     1 C8O        -0.3110
     14 CAO        42.2770   19.4190  -39.2680 C.3       1 C8O         0.0660
     15 CAP        42.0980   18.2790  -38.2540 C.3       1 C8O        -0.0151
     16 NAN        43.2090   18.4350  -37.2710 N.4       1 C8O         0.2199
     17 H1         41.6486   25.1616  -37.9512 H         1 C8O         0.0696
     18 H2         44.8430   23.5565  -40.2270 H         1 C8O         0.0679
     19 H3         43.8500   21.3316  -40.1178 H         1 C8O         0.0542
     20 H4         40.6549   20.6491  -38.5087 H         1 C8O         0.1798
     21 H5         43.3541   19.6069  -39.3885 H         1 C8O         0.0570
     22 H6         41.8515   19.0951  -40.2292 H         1 C8O         0.0570
     23 H7         42.1658   17.3035  -38.7577 H         1 C8O         0.0833
     24 H8         41.1245   18.3641  -37.7491 H         1 C8O         0.0833
     25 H9         43.1452   17.7096  -36.5740 H         1 C8O         0.1995
     26 H10        43.1391   19.3363  -36.8252 H         1 C8O         0.1995
     27 H11        44.0934   18.3644  -37.7494 H         1 C8O         0.1995
@<TRIPOS>BOND
     1    1    2 ar 
     2    2    3 ar 
     3    2    4 1  
     4    4    5 ar 
     5    4   12 ar 
     6    5    6 ar 
     7    6    7 1  
     8    6   10 ar 
     9    7    8 2  
    10    7    9 2  
    11   10   11 ar 
    12   11   12 ar 
    13   12   13 1  
    14   13   14 1  
    15   14   15 1  
    16   15   16 1  
    17    5   17 1  
    18   10   18 1  
    19   11   19 1  
    20   13   20 1  
    21   14   21 1  
    22   14   22 1  
    23   15   23 1  
    24   15   24 1  
    25   16   25 1  
    26   16   26 1  
    27   16   27 1  
@<TRIPOS>SUBSTRUCTURE
     1 C8O         1

