### 
### Created by X-TOOL on Mon Aug  2 16:14:36 2021
### 

@<TRIPOS>MOLECULE
6jut_ligand
   49    53     1     0     0
SMALL
GAST_HUCK


@<TRIPOS>ATOM
      1 C10        10.5330    0.3400   11.8600 C.ar      1 C9O         0.1509
      2 C15        11.7530    1.4770    7.7270 C.2       1 C9O         0.0787
      3 C17        12.6870    1.1200    5.4730 C.ar      1 C9O        -0.0172
      4 C22        13.4210    0.7740    2.9700 C.2       1 C9O         0.3039
      5 C24        15.3440    0.1010    1.8370 C.3       1 C9O         0.0854
      6 C26        10.2970    1.4650    5.6310 C.ar      1 C9O         0.0119
      7 BR1         6.0210    2.8590   18.3500 Br        1 C9O        -0.0498
      8 C02         6.5870    3.5790   16.6450 C.ar      1 C9O         0.0149
      9 C03         7.9290    3.7970   16.4690 C.ar      1 C9O        -0.0249
     10 C04         8.4030    4.2930   15.2840 C.ar      1 C9O         0.1165
     11 S05        10.1880    4.5550   15.1300 S.o2      1 C9O         0.0886
     12 N06        10.6240    4.1620   13.5700 N.am      1 C9O        -0.1902
     13 C07        10.5570    2.8050   13.1060 C.ar      1 C9O         0.0900
     14 C08        10.1090    1.6990   13.8220 C.ar      1 C9O        -0.0537
     15 C09        10.1040    0.4520   13.1850 C.ar      1 C9O        -0.0498
     16 F11        10.5420   -0.8670   11.2040 F         1 C9O        -0.1995
     17 C12        10.9550    1.4840   11.1950 C.ar      1 C9O         0.1753
     18 N13        11.4600    1.5160    9.8470 N.pl3     1 C9O        -0.1254
     19 C14        10.8100    1.3200    8.7250 C.2       1 C9O         0.1025
     20 C16        11.5520    1.3520    6.2380 C.ar      1 C9O         0.0094
     21 C18        12.5450    1.0050    4.0810 C.ar      1 C9O         0.1100
     22 C19        11.2800    1.1280    3.5410 C.ar      1 C9O         0.0243
     23 N20        11.4040    0.9740    2.2020 N.2       1 C9O        -0.4132
     24 N21        12.6870    0.7640    1.8650 N.pl3     1 C9O        -0.2377
     25 O23        14.8030    0.5980    3.0340 O.3       1 C9O        -0.2314
     26 N25        10.1920    1.3430    4.3190 N.ar      1 C9O        -0.3058
     27 N27        12.9330    1.7640    8.2690 N.2       1 C9O        -0.2141
     28 N28        12.7580    1.7990    9.5990 N.2       1 C9O        -0.0792
     29 C29        10.9690    2.6900   11.8170 C.ar      1 C9O         0.1833
     30 F30        11.3810    3.8060   11.1560 F         1 C9O        -0.1985
     31 O31        10.5470    5.9310   15.4600 O.2       1 C9O        -0.1449
     32 O32        10.8880    3.7040   16.0990 O.2       1 C9O        -0.1449
     33 C33         7.5250    4.5560   14.2560 C.ar      1 C9O        -0.0318
     34 C34         6.1640    4.3290   14.4360 C.ar      1 C9O        -0.0571
     35 C35         5.6890    3.8300   15.6410 C.ar      1 C9O        -0.0520
     36 H1         13.6611    1.0297    5.9400 H         1 C9O         0.0715
     37 H2         16.4321   -0.0165    1.9474 H         1 C9O         0.0626
     38 H3         15.1325    0.8051    1.0188 H         1 C9O         0.0626
     39 H4         14.8913   -0.8748    1.6073 H         1 C9O         0.0626
     40 H5          9.4152    1.6516    6.2332 H         1 C9O         0.0788
     41 H6          8.6201    3.5750   17.2741 H         1 C9O         0.0664
     42 H7         10.9364    4.8809   12.9490 H         1 C9O         0.2132
     43 H8          9.7723    1.8003   14.8474 H         1 C9O         0.0416
     44 H9          9.7667   -0.4279   13.7208 H         1 C9O         0.0516
     45 H10         9.7536    1.0841    8.6054 H         1 C9O         0.1092
     46 H11        13.0416    0.6194    0.9088 H         1 C9O         0.2619
     47 H12         7.8927    4.9382   13.3106 H         1 C9O         0.0661
     48 H13         5.4708    4.5431   13.6306 H         1 C9O         0.0625
     49 H14         4.6309    3.6430   15.7846 H         1 C9O         0.0644
@<TRIPOS>BOND
     1    1   15 ar 
     2    1   16 1  
     3   17    1 ar 
     4   19    2 2  
     5    2   20 1  
     6    2   27 1  
     7   20    3 ar 
     8    3   21 ar 
     9   21    4 2  
    10    4   24 1  
    11    4   25 1  
    12   25    5 1  
    13   20    6 ar 
    14    6   26 ar 
    15    8    7 1  
    16    9    8 ar 
    17    8   35 ar 
    18   10    9 ar 
    19   11   10 1  
    20   10   33 ar 
    21   12   11 am 
    22   11   31 2  
    23   11   32 2  
    24   13   12 1  
    25   13   14 ar 
    26   29   13 ar 
    27   15   14 ar 
    28   18   17 1  
    29   17   29 ar 
    30   18   19 1  
    31   18   28 1  
    32   21   22 ar 
    33   22   23 2  
    34   22   26 ar 
    35   23   24 1  
    36   27   28 2  
    37   29   30 1  
    38   33   34 ar 
    39   34   35 ar 
    40    3   36 1  
    41    5   37 1  
    42    5   38 1  
    43    5   39 1  
    44    6   40 1  
    45    9   41 1  
    46   12   42 1  
    47   14   43 1  
    48   15   44 1  
    49   19   45 1  
    50   24   46 1  
    51   33   47 1  
    52   34   48 1  
    53   35   49 1  
@<TRIPOS>SUBSTRUCTURE
     1 C9O         1

