### 
### Created by X-TOOL on Mon Aug  2 16:14:36 2021
### 

@<TRIPOS>MOLECULE
6jwa_ligand
   33    35     1     0     0
SMALL
GAST_HUCK


@<TRIPOS>ATOM
      1 O5'       -13.4240   -3.3340   -8.1510 O.3       1 MOL        -0.3924
      2 C5'       -14.5270   -3.4120   -7.2870 C.3       1 MOL         0.0730
      3 C4'       -14.8230   -4.8880   -6.9910 C.3       1 MOL         0.1135
      4 O4'       -15.1050   -5.5250   -8.1170 O.3       1 MOL        -0.3370
      5 C1'       -13.9660   -6.6490   -8.3900 C.3       1 MOL         0.1971
      6 N9        -13.5680   -6.5960   -9.7250 N.pl3     1 MOL        -0.2190
      7 C8        -13.2770   -5.4730  -10.4110 C.2       1 MOL         0.0441
      8 C7        -12.9130   -5.8180  -11.7280 C.2       1 MOL         0.0169
      9 C5        -12.9900   -7.2730  -11.7820 C.ar      1 MOL         0.0529
     10 C6        -12.7520   -8.3170  -12.8070 C.ar      1 MOL         0.1166
     11 N1        -12.9420   -9.6170  -12.4810 N.ar      1 MOL        -0.2731
     12 C2        -13.3530   -9.9720  -11.2290 C.ar      1 MOL         0.0503
     13 N3        -13.5690   -9.0720  -10.2820 N.ar      1 MOL        -0.2765
     14 C4        -13.4020   -7.6860  -10.5110 C.ar      1 MOL         0.1421
     15 N6        -12.3210   -7.9390  -14.1610 N.pl3     1 MOL        -0.3158
     16 C2'       -12.9390   -6.3320   -7.6040 C.3       1 MOL         0.1383
     17 O2'       -12.2670   -7.5100   -7.1470 O.3       1 MOL        -0.3836
     18 C3'       -13.5630   -5.5890   -6.3980 C.3       1 MOL         0.1146
     19 O3'       -13.9270   -6.4700   -5.4340 O.3       1 MOL        -0.3864
     20 IAE       -12.3410   -4.5210  -13.2860 I         1 MOL        -0.0795
     21 H1        -13.6238   -3.7905   -8.9599 H         1 MOL         0.2095
     22 H2        -15.4031   -2.9482   -7.7638 H         1 MOL         0.0584
     23 H3        -14.2988   -2.8858   -6.3484 H         1 MOL         0.0584
     24 H4        -15.6658   -4.9606   -6.2879 H         1 MOL         0.0647
     25 H5        -14.3445   -7.6534   -8.1495 H         1 MOL         0.0994
     26 H6        -13.3168   -4.4607  -10.0114 H         1 MOL         0.0985
     27 H7        -13.5071  -11.0210  -11.0033 H         1 MOL         0.0976
     28 H8        -12.1564   -8.6668  -14.8710 H         1 MOL         0.1825
     29 H9        -12.1836   -6.9464  -14.3994 H         1 MOL         0.1825
     30 H10       -12.2291   -5.6833   -8.1381 H         1 MOL         0.0676
     31 H11       -12.8750   -8.0494   -6.6551 H         1 MOL         0.2101
     32 H12       -12.8598   -4.8521   -5.9826 H         1 MOL         0.0648
     33 H13       -13.1616   -6.9494   -5.1393 H         1 MOL         0.2100
@<TRIPOS>BOND
     1    1    2 1  
     2    2    3 1  
     3    3    4 1  
     4    3   18 1  
     5    4    5 1  
     6    5    6 1  
     7    5   16 1  
     8    6    7 1  
     9    6   14 1  
    10    7    8 2  
    11    8    9 1  
    12    8   20 1  
    13    9   10 ar 
    14    9   14 ar 
    15   10   11 ar 
    16   10   15 1  
    17   11   12 ar 
    18   12   13 ar 
    19   13   14 ar 
    20   16   17 1  
    21   16   18 1  
    22   18   19 1  
    23    1   21 1  
    24    2   22 1  
    25    2   23 1  
    26    3   24 1  
    27    5   25 1  
    28    7   26 1  
    29   12   27 1  
    30   15   28 1  
    31   15   29 1  
    32   16   30 1  
    33   17   31 1  
    34   18   32 1  
    35   19   33 1  
@<TRIPOS>SUBSTRUCTURE
     1 MOL         1

