### 
### Created by X-TOOL on Mon Aug  2 16:10:01 2021
### 

@<TRIPOS>MOLECULE
6jz0_ligand
   74    78     1     0     0
SMALL
GAST_HUCK


@<TRIPOS>ATOM
      1 C5        -21.8050  -52.3780    0.4150 C.ar      1 CKO         0.0755
      2 C6        -21.1350  -53.2560    1.1750 C.ar      1 CKO         0.2014
      3 N1        -21.7360  -54.2990    1.7600 N.ar      1 CKO        -0.2620
      4 C2        -23.0990  -54.5090    1.5880 C.ar      1 CKO         0.0554
      5 N3        -23.7830  -53.5970    0.7960 N.ar      1 CKO        -0.2685
      6 C4        -23.1290  -52.5690    0.2340 C.ar      1 CKO         0.1280
      7 CAG       -20.8840  -51.4810   -0.0090 C.2       1 CKO         0.0185
      8 CAH       -19.6970  -51.8330    0.5210 C.2       1 CKO         0.1435
      9 CAJ       -18.4720  -51.2890    0.4330 C.ar      1 CKO         0.0193
     10 CAK       -21.1160  -50.4100   -0.7900 C.ar      1 CKO        -0.0449
     11 CAM       -25.2100  -51.8330   -0.9450 C.3       1 CKO         0.0981
     12 CAN       -26.1660  -51.9740    0.0870 C.ar      1 CKO        -0.0152
     13 CAO       -25.5710  -50.5790   -1.7450 C.3       1 CKO         0.0773
     14 CAQ       -18.0960  -50.2930   -0.4660 C.ar      1 CKO        -0.0510
     15 CAR       -16.7900  -49.8080   -0.4680 C.ar      1 CKO        -0.0615
     16 CAS       -15.8430  -50.3050    0.4210 C.ar      1 CKO        -0.0621
     17 CAT       -16.2060  -51.2980    1.3190 C.ar      1 CKO        -0.0615
     18 CAU       -17.5110  -51.7800    1.3170 C.ar      1 CKO        -0.0510
     19 CAV       -21.6180  -49.2680   -0.1810 C.ar      1 CKO        -0.0759
     20 CAW       -21.8680  -48.1260   -0.9260 C.ar      1 CKO        -0.0790
     21 CAX       -21.6130  -48.1250   -2.2890 C.ar      1 CKO        -0.0452
     22 CAY       -21.1140  -49.2550   -2.9260 C.ar      1 CKO         0.0616
     23 CAZ       -20.8520  -50.4050   -2.1710 C.ar      1 CKO        -0.0415
     24 CBB       -19.9830  -49.8170   -4.9290 C.2       1 CKO         0.2036
     25 CBC       -19.8760  -49.3680   -6.3910 C.3       1 CKO         0.0479
     26 CBE       -18.9220  -50.0910   -7.3640 C.3       1 CKO         0.0048
     27 CBF       -18.8550  -49.5360   -8.8100 C.3       1 CKO        -0.0303
     28 CBH       -17.6620  -47.5810   -7.8630 C.3       1 CKO        -0.0433
     29 CBI       -19.8630  -47.2540   -8.7790 C.3       1 CKO        -0.0433
     30 CBJ       -27.4340  -52.4420   -0.2480 C.ar      1 CKO        -0.0580
     31 CBK       -28.4260  -52.5950    0.7150 C.ar      1 CKO        -0.0685
     32 CBL       -28.1610  -52.2720    2.0390 C.ar      1 CKO        -0.0687
     33 CBM       -26.9010  -51.7990    2.3870 C.ar      1 CKO        -0.0685
     34 CBN       -25.9110  -51.6440    1.4180 C.ar      1 CKO        -0.0580
     35 NAL       -23.7970  -51.6880   -0.5130 N.pl3     1 CKO        -0.2844
     36 NBA       -20.8950  -49.1050   -4.2400 N.am      1 CKO        -0.2351
     37 NBG       -18.6310  -48.0610   -8.8590 N.4       1 CKO         0.2310
     38 OAI       -19.8710  -52.9020    1.2220 O.3       1 CKO        -0.2284
     39 OAP       -26.2280  -50.9420   -2.9600 O.3       1 CKO        -0.3906
     40 OBD       -19.3080  -50.7420   -4.4840 O.2       1 CKO        -0.3850
     41 H1        -23.6055  -55.3477    2.0517 H         1 CKO         0.1000
     42 H2        -25.2781  -52.7192   -1.5930 H         1 CKO         0.0750
     43 H3        -24.6526  -50.0215   -1.9810 H         1 CKO         0.0604
     44 H4        -26.2407  -49.9453   -1.1450 H         1 CKO         0.0604
     45 H5        -18.8217  -49.8944   -1.1657 H         1 CKO         0.0623
     46 H6        -16.5083  -49.0331   -1.1717 H         1 CKO         0.0616
     47 H7        -14.8298  -49.9197    0.4123 H         1 CKO         0.0614
     48 H8        -15.4782  -51.6955    2.0171 H         1 CKO         0.0616
     49 H9        -17.7882  -52.5569    2.0203 H         1 CKO         0.0623
     50 H10       -21.8159  -49.2693    0.8848 H         1 CKO         0.0459
     51 H11       -22.2611  -47.2376   -0.4451 H         1 CKO         0.0568
     52 H12       -21.8060  -47.2285   -2.8670 H         1 CKO         0.0473
     53 H13       -20.4467  -51.2890   -2.6500 H         1 CKO         0.0458
     54 H14       -19.5686  -48.3120   -6.3747 H         1 CKO         0.0509
     55 H15       -20.8854  -49.4496   -6.8205 H         1 CKO         0.0509
     56 H16       -19.2403  -51.1422   -7.4243 H         1 CKO         0.0341
     57 H17       -17.9088  -50.0384   -6.9390 H         1 CKO         0.0341
     58 H18       -19.8043  -49.7633   -9.3170 H         1 CKO         0.0816
     59 H19       -18.0286  -50.0337   -9.3385 H         1 CKO         0.0816
     60 H20       -17.5483  -46.4910   -7.9577 H         1 CKO         0.0777
     61 H21       -16.6900  -48.0672   -8.0331 H         1 CKO         0.0777
     62 H22       -18.0226  -47.8256   -6.8530 H         1 CKO         0.0777
     63 H23       -20.5866  -47.6147   -9.5249 H         1 CKO         0.0777
     64 H24       -19.6242  -46.1992   -8.9800 H         1 CKO         0.0777
     65 H25       -20.2971  -47.3463   -7.7725 H         1 CKO         0.0777
     66 H26       -27.6524  -52.6921   -1.2799 H         1 CKO         0.0557
     67 H27       -29.4045  -52.9659    0.4321 H         1 CKO         0.0599
     68 H28       -28.9297  -52.3876    2.7945 H         1 CKO         0.0559
     69 H29       -26.6867  -51.5488    3.4197 H         1 CKO         0.0599
     70 H30       -24.9359  -51.2643    1.7009 H         1 CKO         0.0557
     71 H31       -23.2931  -50.8414   -0.8133 H         1 CKO         0.1895
     72 H32       -21.4385  -48.4275   -4.7356 H         1 CKO         0.2254
     73 H33       -18.2282  -47.8770   -9.7645 H         1 CKO         0.2028
     74 H34       -25.6503  -51.4880   -3.4802 H         1 CKO         0.2097
@<TRIPOS>BOND
     1    1    2 ar 
     2    1    6 ar 
     3    7    1 1  
     4    2    3 ar 
     5   38    2 1  
     6    3    4 ar 
     7    5    4 ar 
     8    6    5 ar 
     9    6   35 1  
    10    7    8 2  
    11   10    7 1  
    12    8    9 1  
    13    8   38 1  
    14    9   14 ar 
    15    9   18 ar 
    16   10   19 ar 
    17   23   10 ar 
    18   11   12 1  
    19   11   13 1  
    20   35   11 1  
    21   12   30 ar 
    22   12   34 ar 
    23   13   39 1  
    24   14   15 ar 
    25   15   16 ar 
    26   17   16 ar 
    27   18   17 ar 
    28   20   19 ar 
    29   21   20 ar 
    30   22   21 ar 
    31   22   23 ar 
    32   36   22 1  
    33   24   25 1  
    34   24   36 am 
    35   24   40 2  
    36   25   26 1  
    37   26   27 1  
    38   27   37 1  
    39   37   28 1  
    40   37   29 1  
    41   30   31 ar 
    42   31   32 ar 
    43   32   33 ar 
    44   33   34 ar 
    45    4   41 1  
    46   11   42 1  
    47   13   43 1  
    48   13   44 1  
    49   14   45 1  
    50   15   46 1  
    51   16   47 1  
    52   17   48 1  
    53   18   49 1  
    54   19   50 1  
    55   20   51 1  
    56   21   52 1  
    57   23   53 1  
    58   25   54 1  
    59   25   55 1  
    60   26   56 1  
    61   26   57 1  
    62   27   58 1  
    63   27   59 1  
    64   28   60 1  
    65   28   61 1  
    66   28   62 1  
    67   29   63 1  
    68   29   64 1  
    69   29   65 1  
    70   30   66 1  
    71   31   67 1  
    72   32   68 1  
    73   33   69 1  
    74   34   70 1  
    75   35   71 1  
    76   36   72 1  
    77   37   73 1  
    78   39   74 1  
@<TRIPOS>SUBSTRUCTURE
     1 CKO         1

