### 
### Created by X-TOOL on Mon Aug  2 16:14:36 2021
### 

@<TRIPOS>MOLECULE
6k04_ligand
   50    54     1     0     0
SMALL
GAST_HUCK


@<TRIPOS>ATOM
      1 C01         6.6300   71.8700   -2.1990 C.ar      1 CQF        -0.0726
      2 C02         7.9630   72.5030   -2.6160 C.ar      1 CQF        -0.0486
      3 C03         8.8490   71.9380   -3.7210 C.ar      1 CQF        -0.0622
      4 C04         8.3450   70.6910   -4.4400 C.ar      1 CQF         0.0125
      5 C05         7.0700   70.0940   -4.0350 C.ar      1 CQF         0.1039
      6 C06         6.1670   70.6290   -2.9350 C.ar      1 CQF        -0.0375
      7 C07         9.2170   70.0840   -5.5510 C.3       1 CQF         0.0706
      8 C08         8.6020   70.1650   -6.9340 C.3       1 CQF        -0.0057
      9 C09         7.1030   70.0170   -6.9270 C.3       1 CQF         0.0312
     10 C10         6.6320   68.8310   -6.0700 C.2       1 CQF         0.1420
     11 C14         6.1380   67.7320   -4.2570 C.2       1 CQF         0.1387
     12 C15         5.9520   67.3910   -2.7880 C.3       1 CQF         0.0158
     13 C16         8.4160   73.7270   -1.8740 C.2       1 CQF        -0.0052
     14 C17         7.9010   74.1420   -0.6860 C.2       1 CQF         0.0613
     15 C20         9.4140   74.5710   -2.2520 C.2       1 CQF         0.0046
     16 C21         8.3380   76.0300    0.8580 C.3       1 CQF         0.0610
     17 C23        11.5190   70.4810   -4.7380 C.ar      1 CQF         0.0401
     18 C24        12.8920   70.9960   -5.1100 C.ar      1 CQF        -0.0436
     19 C25        14.0440   70.6850   -4.1930 C.ar      1 CQF        -0.0597
     20 C26        13.7600   69.8790   -2.9450 C.ar      1 CQF         0.0261
     21 C27        12.3890   69.3810   -2.5660 C.ar      1 CQF        -0.0597
     22 C28        11.2400   69.6850   -3.4850 C.ar      1 CQF        -0.0436
     23 N11         6.6200   68.9000   -4.7470 N.pl3     1 CQF        -0.1744
     24 N12         6.1680   67.6340   -6.4410 N.2       1 CQF        -0.2822
     25 N13         5.8640   66.9650   -5.2910 N.2       1 CQF        -0.2824
     26 N18         8.5590   75.2410   -0.3410 N.pl3     1 CQF        -0.2071
     27 N19         9.5040   75.5100   -1.3200 N.2       1 CQF        -0.2144
     28 N22        10.4630   70.7950   -5.6330 N.pl3     1 CQF        -0.3095
     29 CL2        15.0900   69.5130   -1.8750 Cl        1 CQF        -0.0830
     30 H1          6.0356   72.2983   -1.4001 H         1 CQF         0.0505
     31 H2          9.7933   72.4012   -3.9833 H         1 CQF         0.0495
     32 H3          5.2304   70.1426   -2.6874 H         1 CQF         0.0552
     33 H4          9.4042   69.0286   -5.3038 H         1 CQF         0.0698
     34 H5          9.0294   69.3633   -7.5541 H         1 CQF         0.0335
     35 H6          8.8547   71.1418   -7.3722 H         1 CQF         0.0335
     36 H7          6.7589   69.8639   -7.9605 H         1 CQF         0.0505
     37 H8          6.6593   70.9401   -6.5258 H         1 CQF         0.0505
     38 H9          5.5436   66.3737   -2.6966 H         1 CQF         0.0467
     39 H10         5.2549   68.1084   -2.3304 H         1 CQF         0.0467
     40 H11         6.9228   67.4440   -2.2735 H         1 CQF         0.0467
     41 H12         7.1003   73.6631   -0.1243 H         1 CQF         0.1020
     42 H13        10.0239   74.4906   -3.1506 H         1 CQF         0.0670
     43 H14         9.0341   76.8817    0.8699 H         1 CQF         0.0607
     44 H15         8.5096   75.4038    1.7459 H         1 CQF         0.0607
     45 H16         7.3030   76.4023    0.8664 H         1 CQF         0.0607
     46 H17        13.0422   71.5745   -6.0144 H         1 CQF         0.0516
     47 H18        15.0469   71.0282   -4.4200 H         1 CQF         0.0589
     48 H19        12.2357   68.8174   -1.6528 H         1 CQF         0.0589
     49 H20        10.2376   69.3423   -3.2550 H         1 CQF         0.0516
     50 H21        10.5898   71.5323   -6.3410 H         1 CQF         0.1785
@<TRIPOS>BOND
     1    2    1 ar 
     2    6    1 ar 
     3    3    2 ar 
     4    2   13 1  
     5    4    3 ar 
     6    4    5 ar 
     7    7    4 1  
     8    5    6 ar 
     9    5   23 1  
    10    7    8 1  
    11   28    7 1  
    12    8    9 1  
    13    9   10 1  
    14   10   23 1  
    15   10   24 2  
    16   11   12 1  
    17   23   11 1  
    18   11   25 2  
    19   13   14 2  
    20   13   15 1  
    21   14   26 1  
    22   15   27 2  
    23   26   16 1  
    24   17   18 ar 
    25   17   22 ar 
    26   17   28 1  
    27   18   19 ar 
    28   19   20 ar 
    29   20   21 ar 
    30   20   29 1  
    31   21   22 ar 
    32   24   25 1  
    33   26   27 1  
    34    1   30 1  
    35    3   31 1  
    36    6   32 1  
    37    7   33 1  
    38    8   34 1  
    39    8   35 1  
    40    9   36 1  
    41    9   37 1  
    42   12   38 1  
    43   12   39 1  
    44   12   40 1  
    45   14   41 1  
    46   15   42 1  
    47   16   43 1  
    48   16   44 1  
    49   16   45 1  
    50   18   46 1  
    51   19   47 1  
    52   21   48 1  
    53   22   49 1  
    54   28   50 1  
@<TRIPOS>SUBSTRUCTURE
     1 CQF         1

