### 
### Created by X-TOOL on Mon Aug  2 16:14:36 2021
### 

@<TRIPOS>MOLECULE
6k05_ligand
   54    58     1     0     0
SMALL
GAST_HUCK


@<TRIPOS>ATOM
      1 C01        16.2050    9.7770  -10.3120 C.3       1 CQF        -0.0362
      2 C02        16.5000   10.7950  -11.4520 C.3       1 CQF        -0.0148
      3 C03        17.9630   11.1610  -11.8030 C.3       1 CQF        -0.0249
      4 C04        19.1380   10.5130  -11.0130 C.2       1 CQF        -0.0284
      5 C05        18.8400    9.5460   -9.9240 C.2       1 CQF         0.0609
      6 C06        17.3750    9.1440   -9.5430 C.3       1 CQF        -0.0047
      7 C07        20.5860   10.9290  -11.4130 C.3       1 CQF         0.0561
      8 C08        21.4780    9.7810  -11.8940 C.3       1 CQF        -0.0093
      9 C09        21.0830    8.4150  -11.3700 C.3       1 CQF         0.0296
     10 C10        21.0480    8.4260   -9.8290 C.2       1 CQF         0.1367
     11 C14        20.2300    8.8310   -7.8640 C.2       1 CQF         0.1334
     12 C15        19.2930    9.2960   -6.7580 C.3       1 CQF         0.0145
     13 C16        15.3730   11.4520  -12.2600 C.2       1 CQF        -0.0282
     14 C17        14.0140   11.3060  -12.1030 C.2       1 CQF         0.0461
     15 C20        15.5770   12.3150  -13.3070 C.2       1 CQF        -0.0029
     16 C21        11.9820   12.2290  -13.2260 C.3       1 CQF         0.0572
     17 C23        20.1770   13.2890  -12.2010 C.ar      1 CQF         0.0398
     18 C24        20.1510   14.3140  -13.3300 C.ar      1 CQF        -0.0437
     19 C25        19.7370   15.7460  -13.0220 C.ar      1 CQF        -0.0597
     20 C26        19.3550   16.1220  -11.5960 C.ar      1 CQF         0.0261
     21 C27        19.3730   15.1070  -10.4680 C.ar      1 CQF        -0.0597
     22 C28        19.7880   13.6750  -10.7770 C.ar      1 CQF        -0.0437
     23 N11        20.0120    8.9560   -9.1960 N.pl3     1 CQF        -0.1922
     24 N12        21.9290    7.9570   -8.9250 N.2       1 CQF        -0.2856
     25 N13        21.4020    8.2320   -7.7110 N.2       1 CQF        -0.2858
     26 N18        13.4110   12.0590  -13.0280 N.pl3     1 CQF        -0.2187
     27 N19        14.3910   12.6920  -13.7800 N.2       1 CQF        -0.2232
     28 N22        20.5640   11.9210  -12.4810 N.pl3     1 CQF        -0.3127
     29 CL2        18.8700   17.7840  -11.2400 Cl        1 CQF        -0.0830
     30 H1         15.6325    8.9515  -10.7601 H         1 CQF         0.0300
     31 H2         15.5797   10.2976   -9.5718 H         1 CQF         0.0300
     32 H3         16.4594   11.6172  -10.7224 H         1 CQF         0.0406
     33 H4         18.0573   12.2496  -11.6763 H         1 CQF         0.0388
     34 H5         18.1103   10.9009  -12.8616 H         1 CQF         0.0388
     35 H6         17.2952    8.0548   -9.6741 H         1 CQF         0.0395
     36 H7         17.2372    9.3966   -8.4813 H         1 CQF         0.0395
     37 H8         21.0549   11.3747  -10.5233 H         1 CQF         0.0656
     38 H9         22.5087    9.9881  -11.5702 H         1 CQF         0.0331
     39 H10        21.4377    9.7520  -12.9929 H         1 CQF         0.0331
     40 H11        21.8157    7.6690  -11.7115 H         1 CQF         0.0500
     41 H12        20.0862    8.1527  -11.7542 H         1 CQF         0.0500
     42 H13        19.7359    9.0603   -5.7791 H         1 CQF         0.0463
     43 H14        18.3258    8.7814   -6.8563 H         1 CQF         0.0463
     44 H15        19.1403   10.3823   -6.8394 H         1 CQF         0.0463
     45 H16        13.5177   10.6867  -11.3573 H         1 CQF         0.0872
     46 H17        16.5454   12.6371  -13.6869 H         1 CQF         0.0627
     47 H18        11.8076   12.9131  -14.0695 H         1 CQF         0.0599
     48 H19        11.5329   12.6494  -12.3141 H         1 CQF         0.0599
     49 H20        11.5234   11.2533  -13.4444 H         1 CQF         0.0599
     50 H21        20.4239   14.0264  -14.3389 H         1 CQF         0.0516
     51 H22        19.7142   16.4907  -13.8094 H         1 CQF         0.0589
     52 H23        19.0955   15.3961   -9.4608 H         1 CQF         0.0589
     53 H24        19.8070   12.9321   -9.9878 H         1 CQF         0.0516
     54 H25        20.8248   11.6481  -13.4393 H         1 CQF         0.1781
@<TRIPOS>BOND
     1    2    1 1  
     2    6    1 1  
     3    3    2 1  
     4    2   13 1  
     5    4    3 1  
     6    4    5 2  
     7    7    4 1  
     8    5    6 1  
     9    5   23 1  
    10    7    8 1  
    11   28    7 1  
    12    8    9 1  
    13    9   10 1  
    14   10   23 1  
    15   10   24 2  
    16   11   12 1  
    17   23   11 1  
    18   11   25 2  
    19   13   14 2  
    20   13   15 1  
    21   14   26 1  
    22   15   27 2  
    23   26   16 1  
    24   17   18 ar 
    25   17   22 ar 
    26   17   28 1  
    27   18   19 ar 
    28   19   20 ar 
    29   20   21 ar 
    30   20   29 1  
    31   21   22 ar 
    32   24   25 1  
    33   26   27 1  
    34    1   30 1  
    35    1   31 1  
    36    2   32 1  
    37    3   33 1  
    38    3   34 1  
    39    6   35 1  
    40    6   36 1  
    41    7   37 1  
    42    8   38 1  
    43    8   39 1  
    44    9   40 1  
    45    9   41 1  
    46   12   42 1  
    47   12   43 1  
    48   12   44 1  
    49   14   45 1  
    50   15   46 1  
    51   16   47 1  
    52   16   48 1  
    53   16   49 1  
    54   18   50 1  
    55   19   51 1  
    56   21   52 1  
    57   22   53 1  
    58   28   54 1  
@<TRIPOS>SUBSTRUCTURE
     1 CQF         1

