### 
### Created by X-TOOL on Mon Aug  2 16:10:55 2021
### 

@<TRIPOS>MOLECULE
6k1q_ligand
   77    81     1     0     0
SMALL
GAST_HUCK


@<TRIPOS>ATOM
      1 C1         36.2380   33.1440   23.8560 C.ar      1 D2U        -0.0474
      2 C2         36.4890   34.4890   23.6500 C.ar      1 D2U        -0.0478
      3 C3         37.5170   35.1300   24.3310 C.ar      1 D2U         0.0369
      4 C4         38.3100   34.4040   25.2010 C.ar      1 D2U        -0.0478
      5 C5         38.0580   33.0550   25.4070 C.ar      1 D2U        -0.0474
      6 C6         37.0240   32.4230   24.7350 C.ar      1 D2U        -0.0554
      7 C7         35.0950   32.4690   23.1080 C.3       1 D2U        -0.0318
      8 C8         38.9240   32.2600   26.3710 C.3       1 D2U        -0.0318
      9 C9         37.8000   36.6210   24.0880 C.2       1 D2U         0.2064
     10 N10        36.8130   37.6790   24.2950 N.am      1 D2U        -0.2524
     11 C11        37.1750   39.0540   23.9980 C.3       1 D2U         0.1426
     12 C12        36.8040   40.1010   25.0540 C.3       1 D2U         0.0221
     13 C13        37.2480   39.7000   26.4690 C.ar      1 D2U        -0.0375
     14 C14        38.4990   39.1400   26.6820 C.ar      1 D2U        -0.0587
     15 C15        38.8740   38.7820   27.9670 C.ar      1 D2U        -0.0600
     16 C16        38.0020   38.9800   29.0290 C.ar      1 D2U        -0.0242
     17 C17        36.7530   39.5340   28.8080 C.ar      1 D2U        -0.0600
     18 C18        36.3760   39.8920   27.5250 C.ar      1 D2U        -0.0587
     19 C19        38.4050   38.5760   30.4540 C.ar      1 D2U        -0.0221
     20 C20        37.4330   38.1280   31.3350 C.ar      1 D2U        -0.0557
     21 C21        37.7800   37.7550   32.6230 C.ar      1 D2U        -0.0622
     22 C22        39.1010   37.8280   33.0310 C.ar      1 D2U        -0.0627
     23 C23        40.0740   38.2740   32.1560 C.ar      1 D2U        -0.0622
     24 C24        39.7290   38.6490   30.8640 C.ar      1 D2U        -0.0557
     25 C25        35.4590   37.4110   24.7440 C.3       1 D2U         0.0250
     26 O26        38.8810   36.9280   23.7070 O.2       1 D2U        -0.3843
     27 C27        36.6940   39.3930   22.5860 C.2       1 D2U         0.2057
     28 O28        35.9900   40.3280   22.3850 O.2       1 D2U        -0.3942
     29 N29        37.1280   38.5080   21.5140 N.am      1 D2U        -0.2683
     30 C30        36.7080   38.7140   20.1350 C.3       1 D2U         0.0986
     31 C31        35.7950   37.5420   19.7720 C.2       1 D2U         0.0613
     32 C32        37.9150   38.8310   19.1960 C.3       1 D2U        -0.0013
     33 C33        38.6370   40.1750   19.3550 C.2       1 D2U        -0.0424
     34 C34        38.2510   41.2690   20.1250 C.2       1 D2U         0.0166
     35 N35        39.1540   42.2250   19.9930 N.pl3     1 D2U        -0.2891
     36 C36        40.1340   41.8230   19.1720 C.ar      1 D2U         0.0603
     37 C37        39.8510   40.5390   18.7470 C.ar      1 D2U        -0.0214
     38 C38        41.2990   42.4640   18.7200 C.ar      1 D2U        -0.0443
     39 C39        42.1630   41.8060   17.8540 C.ar      1 D2U        -0.0768
     40 C40        41.8690   40.5120   17.4280 C.ar      1 D2U        -0.0792
     41 C41        40.7190   39.8700   17.8730 C.ar      1 D2U        -0.0747
     42 O42        34.8000   37.7500   19.0320 O.co2     1 D2U        -0.5665
     43 O43        36.0280   36.3860   20.2180 O.co2     1 D2U        -0.5665
     44 H1         35.8779   35.0481   22.9507 H         1 D2U         0.0550
     45 H2         39.1280   34.8885   25.7217 H         1 D2U         0.0550
     46 H3         36.8326   31.3685   24.8979 H         1 D2U         0.0530
     47 H4         34.5939   33.2053   22.4625 H         1 D2U         0.0390
     48 H5         34.3723   32.0635   23.8313 H         1 D2U         0.0390
     49 H6         35.4937   31.6509   22.4901 H         1 D2U         0.0390
     50 H7         39.6872   32.9205   26.8083 H         1 D2U         0.0390
     51 H8         39.4164   31.4388   25.8297 H         1 D2U         0.0390
     52 H9         38.2950   31.8456   27.1726 H         1 D2U         0.0390
     53 H10        38.2742   39.0721   23.9608 H         1 D2U         0.0826
     54 H11        35.7118   40.2312   25.0517 H         1 D2U         0.0477
     55 H12        37.2874   41.0532   24.7903 H         1 D2U         0.0477
     56 H13        39.1771   38.9839   25.8508 H         1 D2U         0.0560
     57 H14        39.8507   38.3462   28.1435 H         1 D2U         0.0609
     58 H15        36.0719   39.6871   29.6373 H         1 D2U         0.0609
     59 H16        35.3972   40.3229   27.3481 H         1 D2U         0.0560
     60 H17        36.3989   38.0695   31.0152 H         1 D2U         0.0615
     61 H18        37.0181   37.4063   33.3108 H         1 D2U         0.0615
     62 H19        39.3729   37.5349   34.0386 H         1 D2U         0.0610
     63 H20        41.1073   38.3311   32.4787 H         1 D2U         0.0615
     64 H21        40.4919   38.9979   30.1775 H         1 D2U         0.0615
     65 H22        35.3400   36.3328   24.9267 H         1 D2U         0.0488
     66 H23        34.7458   37.7328   23.9708 H         1 D2U         0.0488
     67 H24        35.2651   37.9642   25.6748 H         1 D2U         0.0488
     68 H25        37.7298   37.7392   21.7304 H         1 D2U         0.1877
     69 H26        36.1324   39.6490   20.0682 H         1 D2U         0.0741
     70 H27        37.5674   38.7352   18.1568 H         1 D2U         0.0390
     71 H28        38.6216   38.0191   19.4227 H         1 D2U         0.0390
     72 H29        37.3517   41.3274   20.7363 H         1 D2U         0.0795
     73 H30        39.1108   43.1451   20.4540 H         1 D2U         0.2216
     74 H31        41.5240   43.4727   19.0471 H         1 D2U         0.0541
     75 H32        43.0652   42.2986   17.5098 H         1 D2U         0.0530
     76 H33        42.5407   40.0034   16.7460 H         1 D2U         0.0510
     77 H34        40.4955   38.8607   17.5469 H         1 D2U         0.0540
@<TRIPOS>BOND
     1    1    2 ar 
     2    1    6 ar 
     3    1    7 1  
     4    2    3 ar 
     5    3    4 ar 
     6    3    9 1  
     7    4    5 ar 
     8    5    6 ar 
     9    5    8 1  
    10    9   10 am 
    11    9   26 2  
    12   10   11 1  
    13   10   25 1  
    14   11   12 1  
    15   11   27 1  
    16   12   13 1  
    17   13   14 ar 
    18   13   18 ar 
    19   14   15 ar 
    20   15   16 ar 
    21   16   17 ar 
    22   16   19 1  
    23   17   18 ar 
    24   19   20 ar 
    25   19   24 ar 
    26   20   21 ar 
    27   21   22 ar 
    28   22   23 ar 
    29   23   24 ar 
    30   27   28 2  
    31   27   29 am 
    32   29   30 1  
    33   30   31 1  
    34   30   32 1  
    35   31   42 ar 
    36   31   43 ar 
    37   32   33 1  
    38   33   34 2  
    39   33   37 1  
    40   34   35 1  
    41   35   36 1  
    42   36   37 ar 
    43   36   38 ar 
    44   37   41 ar 
    45   38   39 ar 
    46   39   40 ar 
    47   40   41 ar 
    48    2   44 1  
    49    4   45 1  
    50    6   46 1  
    51    7   47 1  
    52    7   48 1  
    53    7   49 1  
    54    8   50 1  
    55    8   51 1  
    56    8   52 1  
    57   11   53 1  
    58   12   54 1  
    59   12   55 1  
    60   14   56 1  
    61   15   57 1  
    62   17   58 1  
    63   18   59 1  
    64   20   60 1  
    65   21   61 1  
    66   22   62 1  
    67   23   63 1  
    68   24   64 1  
    69   25   65 1  
    70   25   66 1  
    71   25   67 1  
    72   29   68 1  
    73   30   69 1  
    74   32   70 1  
    75   32   71 1  
    76   34   72 1  
    77   35   73 1  
    78   38   74 1  
    79   39   75 1  
    80   40   76 1  
    81   41   77 1  
@<TRIPOS>SUBSTRUCTURE
     1 D2U         1

