### 
### Created by X-TOOL on Mon Aug  2 16:10:17 2021
### 

@<TRIPOS>MOLECULE
6k1s_ligand
   47    50     1     0     0
SMALL
GAST_HUCK


@<TRIPOS>ATOM
      1 C4        -14.9150 -102.5550   -3.2600 C.ar      1 CUX         0.1494
      2 C5        -13.6140 -102.4480   -3.5540 C.ar      1 CUX         0.0343
      3 C6        -12.7730 -103.4380   -3.1670 C.ar      1 CUX         0.0931
      4 N1        -13.2050 -104.4710   -2.4280 N.ar      1 CUX        -0.2776
      5 N3        -15.3930 -103.5750   -2.5420 N.ar      1 CUX        -0.2638
      6 CBB       -11.5420 -102.9830   -5.9460 C.3       1 CUX         0.0006
      7 CBA       -10.8410 -103.1360   -4.5880 C.2       1 CUX         0.0174
      8 NAA       -11.4530 -103.3450   -3.3980 N.2       1 CUX        -0.2763
      9 C2        -14.5510 -104.5880   -2.0930 C.ar      1 CUX         0.0612
     10 CAI       -13.4660 -101.3150   -4.2630 C.2       1 CUX        -0.0506
     11 CAH       -14.6510 -100.7510   -4.4030 C.2       1 CUX         0.0348
     12 NAG       -15.5470 -101.5140   -3.7690 N.pl3     1 CUX        -0.2183
     13 CAK       -16.9910 -101.2850   -3.6210 C.3       1 CUX         0.1969
     14 OAL       -17.4720 -101.2610   -4.9390 O.3       1 CUX        -0.3347
     15 CAP       -17.2750  -99.8940   -3.1390 C.3       1 CUX         0.1383
     16 OAQ       -17.2130  -99.8050   -1.7110 O.3       1 CUX        -0.3836
     17 CAN       -18.6780  -99.6550   -3.6540 C.3       1 CUX         0.1167
     18 OAO       -19.6910 -100.0410   -2.6960 O.3       1 CUX        -0.3862
     19 CAM       -18.7330 -100.5730   -4.8710 C.3       1 CUX         0.1260
     20 CAR       -18.9450  -99.7820   -6.1840 C.3       1 CUX         0.1179
     21 OAS       -17.8660  -98.8450   -6.3670 O.3       1 CUX        -0.3765
     22 CAT       -20.2530  -99.2070   -6.2240 C.ar      1 CUX        -0.0119
     23 CAU       -21.3560 -100.0770   -6.2590 C.ar      1 CUX        -0.0572
     24 CAV       -22.6590  -99.6110   -6.2990 C.ar      1 CUX        -0.0545
     25 CAW       -22.8910  -98.2540   -6.3110 C.ar      1 CUX         0.0330
     26 CLA       -24.5020  -97.7020   -6.3660 Cl        1 CUX        -0.0771
     27 CAX       -21.8190  -97.3590   -6.2730 C.ar      1 CUX        -0.0545
     28 CAY       -20.4980  -97.8280   -6.2360 C.ar      1 CUX        -0.0572
     29 H1        -10.7887 -102.8237   -6.7316 H         1 CUX         0.0533
     30 H2        -12.2239 -102.1205   -5.9116 H         1 CUX         0.0533
     31 H3        -12.1154 -103.8952   -6.1675 H         1 CUX         0.0533
     32 H4         -9.7540 -103.0705   -4.5814 H         1 CUX         0.1276
     33 H5        -14.9238 -105.4243   -1.5128 H         1 CUX         0.1004
     34 H6        -12.5268 -100.9281   -4.6555 H         1 CUX         0.0319
     35 H7        -14.8616  -99.8273   -4.9401 H         1 CUX         0.0967
     36 H8        -17.4666 -102.0499   -2.9895 H         1 CUX         0.0992
     37 H9        -16.5674  -99.1740   -3.5758 H         1 CUX         0.0676
     38 H10       -17.8563 -100.3912   -1.3301 H         1 CUX         0.2101
     39 H11       -18.8214  -98.6014   -3.9357 H         1 CUX         0.0650
     40 H12       -19.5806  -99.5357   -1.8992 H         1 CUX         0.2100
     41 H13       -19.5528 -101.2962   -4.7490 H         1 CUX         0.0673
     42 H14       -18.8901 -100.4979   -7.0173 H         1 CUX         0.0785
     43 H15       -17.0427  -99.3168   -6.4127 H         1 CUX         0.2131
     44 H16       -21.1811 -101.1468   -6.2545 H         1 CUX         0.0558
     45 H17       -23.4889 -100.3081   -6.3207 H         1 CUX         0.0606
     46 H18       -22.0102  -96.2920   -6.2721 H         1 CUX         0.0606
     47 H19       -19.6711  -97.1273   -6.2168 H         1 CUX         0.0558
@<TRIPOS>BOND
     1    2    1 ar 
     2    1    5 ar 
     3    1   12 1  
     4    3    2 ar 
     5    2   10 1  
     6    3    4 ar 
     7    8    3 1  
     8    4    9 ar 
     9    9    5 ar 
    10    7    6 1  
    11    7    8 2  
    12   10   11 2  
    13   11   12 1  
    14   12   13 1  
    15   13   14 1  
    16   13   15 1  
    17   14   19 1  
    18   15   16 1  
    19   15   17 1  
    20   17   18 1  
    21   17   19 1  
    22   19   20 1  
    23   20   21 1  
    24   20   22 1  
    25   22   23 ar 
    26   22   28 ar 
    27   23   24 ar 
    28   24   25 ar 
    29   25   26 1  
    30   25   27 ar 
    31   27   28 ar 
    32    6   29 1  
    33    6   30 1  
    34    6   31 1  
    35    7   32 1  
    36    9   33 1  
    37   10   34 1  
    38   11   35 1  
    39   13   36 1  
    40   15   37 1  
    41   16   38 1  
    42   17   39 1  
    43   18   40 1  
    44   19   41 1  
    45   20   42 1  
    46   21   43 1  
    47   23   44 1  
    48   24   45 1  
    49   27   46 1  
    50   28   47 1  
@<TRIPOS>SUBSTRUCTURE
     1 CUX         1

