### 
### Created by X-TOOL on Mon Aug  2 16:14:38 2021
### 

@<TRIPOS>MOLECULE
6k2n_ligand
   78    80     1     0     0
SMALL
GAST_HUCK


@<TRIPOS>ATOM
      1 C1         -1.2420   12.9590   10.6460 C.3       1 NAG         0.1850
      2 C2         -0.3030   12.7860   11.8530 C.3       1 NAG         0.1210
      3 C3          0.9230   13.6960   11.7160 C.3       1 NAG         0.1111
      4 C4          1.5830   13.5170   10.3560 C.3       1 NAG         0.1116
      5 C5          0.5600   13.6920    9.2410 C.3       1 NAG         0.1130
      6 C6          1.1470   13.4460    7.8730 C.3       1 NAG         0.0730
      7 C7         -1.3880   12.1000   13.9420 C.2       1 NAG         0.1733
      8 C8         -2.1050   12.5590   15.1760 C.3       1 NAG         0.0257
      9 N2         -1.0040   13.0610   13.0960 N.am      1 NAG        -0.2766
     10 O3          1.8620   13.3710   12.7340 O.3       1 NAG        -0.3867
     11 O4          2.6350   14.4600   10.1760 O.3       1 NAG        -0.3865
     12 O5         -0.4980   12.7430    9.4170 O.3       1 NAG        -0.3408
     13 O6          1.7290   12.1520    7.8020 O.3       1 NAG        -0.3924
     14 O7         -1.1640   10.9130   13.7220 O.2       1 NAG        -0.3974
     15 O          -5.5240   12.7530   11.1430 O.3       1 NAG        -0.3409
     16 C1         -6.7370   12.0410   11.3780 C.3       1 NAG         0.1823
     17 O1         -6.4340   10.6910   11.7470 O.3       1 NAG        -0.3651
     18 C2         -7.5820   12.0430   10.1090 C.3       1 NAG         0.1211
     19 N2         -8.7960   11.2790   10.3200 N.am      1 NAG        -0.2766
     20 C3         -6.8030   11.4700    8.9320 C.3       1 NAG         0.1176
     21 O3         -7.5330   11.6960    7.7210 O.3       1 NAG        -0.3403
     22 C4         -5.4260   12.1140    8.8220 C.3       1 NAG         0.1120
     23 O4         -5.5660   13.4640    8.3640 O.3       1 NAG        -0.3865
     24 C5         -4.7100   12.1050   10.1670 C.3       1 NAG         0.1134
     25 C6         -3.3650   12.8160   10.0740 C.3       1 NAG         0.0795
     26 O6         -2.3730   12.0520   10.7680 O.3       1 NAG        -0.3463
     27 C7         -9.9850   11.8700   10.3970 C.2       1 NAG         0.1733
     28 O7        -10.1260   13.0690   10.2270 O.2       1 NAG        -0.3974
     29 C8        -11.1410   10.9650   10.7060 C.3       1 NAG         0.0257
     30 C1         -7.8890   10.3360    7.4060 C.3       1 NAG         0.1884
     31 C2         -9.1290   10.4840    6.4980 C.3       1 NAG         0.1341
     32 C3         -9.5100    9.2150    5.7340 C.3       1 NAG         0.1141
     33 C4         -8.2950    8.6220    5.0360 C.3       1 NAG         0.1119
     34 C5         -7.1880    8.4070    6.0610 C.3       1 NAG         0.1130
     35 C6         -5.8790    7.8870    5.4470 C.3       1 NAG         0.0730
     36 O2        -10.2770   10.8840    7.2440 O.3       1 NAG        -0.3841
     37 O3        -10.4630    9.5170    4.7130 O.3       1 NAG        -0.3864
     38 O4         -7.8510    9.4810    3.9900 O.3       1 NAG        -0.3865
     39 O5         -6.8340    9.6260    6.7690 O.3       1 NAG        -0.3405
     40 O6         -6.0890    7.3650    4.1360 O.3       1 NAG        -0.3924
     41 H1         -1.6259   13.9898   10.6410 H         1 NAG         0.0934
     42 H2          0.0418   11.7417   11.8749 H         1 NAG         0.0633
     43 H3          0.6080   14.7439   11.8287 H         1 NAG         0.0645
     44 H4          2.0021   12.5015   10.3001 H         1 NAG         0.0647
     45 H5          0.1580   14.7149    9.2854 H         1 NAG         0.0647
     46 H6          1.9205   14.2015    7.6707 H         1 NAG         0.0584
     47 H7          0.3505   13.5256    7.1185 H         1 NAG         0.0584
     48 H8         -2.3700   11.6869   15.7918 H         1 NAG         0.0467
     49 H9         -3.0205   13.0972   14.8894 H         1 NAG         0.0467
     50 H10        -1.4506   13.2296   15.7523 H         1 NAG         0.0467
     51 H11        -1.2082   14.0118   13.3288 H         1 NAG         0.1857
     52 H12         2.6145   13.9467   12.6646 H         1 NAG         0.2100
     53 H13         3.2756   14.3543   10.8695 H         1 NAG         0.2100
     54 H14         2.4196   12.0805    8.4506 H         1 NAG         0.2095
     55 H15        -7.2958   12.5270   12.1914 H         1 NAG         0.0932
     56 H16        -7.2426   10.2175   11.9033 H         1 NAG         0.2126
     57 H17        -7.8556   13.0821    9.8736 H         1 NAG         0.0633
     58 H18        -8.7380   10.2847   10.4097 H         1 NAG         0.1857
     59 H19        -6.6781   10.3874    9.0817 H         1 NAG         0.0649
     60 H20        -4.8252   11.5469    8.0958 H         1 NAG         0.0647
     61 H21        -5.9864   13.4662    7.5120 H         1 NAG         0.2100
     62 H22        -4.5405   11.0621   10.4728 H         1 NAG         0.0647
     63 H23        -3.4452   13.8136   10.5304 H         1 NAG         0.0587
     64 H24        -3.0764   12.9182    9.0175 H         1 NAG         0.0587
     65 H25       -12.0684   11.5553   10.7456 H         1 NAG         0.0467
     66 H26       -10.9752   10.4771   11.6778 H         1 NAG         0.0467
     67 H27       -11.2271   10.1991    9.9211 H         1 NAG         0.0467
     68 H28        -8.1593    9.7971    8.3261 H         1 NAG         0.0938
     69 H29        -8.8992   11.2677    5.7611 H         1 NAG         0.0671
     70 H30        -9.9324    8.4825    6.4376 H         1 NAG         0.0648
     71 H31        -8.5717    7.6507    4.6000 H         1 NAG         0.0647
     72 H32        -7.5542    7.6676    6.7884 H         1 NAG         0.0647
     73 H33        -5.4747    7.0903    6.0886 H         1 NAG         0.0584
     74 H34        -5.1567    8.7147    5.3909 H         1 NAG         0.0584
     75 H35       -10.9970   11.0543    6.6481 H         1 NAG         0.2101
     76 H36       -10.0854   10.1399    4.1031 H         1 NAG         0.2100
     77 H37        -7.1018    9.0893    3.5566 H         1 NAG         0.2100
     78 H38        -6.4341    8.0498    3.5752 H         1 NAG         0.2095
@<TRIPOS>BOND
     1    1    2 1  
     2    1   12 1  
     3   26    1 1  
     4    2    3 1  
     5    2    9 1  
     6    3    4 1  
     7    3   10 1  
     8    5    4 1  
     9    4   11 1  
    10    5    6 1  
    11   12    5 1  
    12    6   13 1  
    13    7    8 1  
    14    9    7 am 
    15    7   14 2  
    16   15   16 1  
    17   24   15 1  
    18   16   17 1  
    19   16   18 1  
    20   18   19 1  
    21   20   18 1  
    22   19   27 am 
    23   20   21 1  
    24   22   20 1  
    25   21   30 1  
    26   22   23 1  
    27   24   22 1  
    28   25   24 1  
    29   25   26 1  
    30   27   28 2  
    31   27   29 1  
    32   30   31 1  
    33   30   39 1  
    34   31   32 1  
    35   31   36 1  
    36   32   33 1  
    37   32   37 1  
    38   33   34 1  
    39   33   38 1  
    40   34   35 1  
    41   34   39 1  
    42   35   40 1  
    43    1   41 1  
    44    2   42 1  
    45    3   43 1  
    46    4   44 1  
    47    5   45 1  
    48    6   46 1  
    49    6   47 1  
    50    8   48 1  
    51    8   49 1  
    52    8   50 1  
    53    9   51 1  
    54   10   52 1  
    55   11   53 1  
    56   13   54 1  
    57   16   55 1  
    58   17   56 1  
    59   18   57 1  
    60   19   58 1  
    61   20   59 1  
    62   22   60 1  
    63   23   61 1  
    64   24   62 1  
    65   25   63 1  
    66   25   64 1  
    67   29   65 1  
    68   29   66 1  
    69   29   67 1  
    70   30   68 1  
    71   31   69 1  
    72   32   70 1  
    73   33   71 1  
    74   34   72 1  
    75   35   73 1  
    76   35   74 1  
    77   36   75 1  
    78   37   76 1  
    79   38   77 1  
    80   40   78 1  
@<TRIPOS>SUBSTRUCTURE
     1 NAG         1

