### 
### Created by X-TOOL on Mon Aug  2 16:14:38 2021
### 

@<TRIPOS>MOLECULE
6k3l_ligand
   36    39     1     0     0
SMALL
GAST_HUCK


@<TRIPOS>ATOM
      1 C1         12.2540    6.0040  -14.0700 C.ar      1 MOL         0.0307
      2 C2         13.2460    5.0930  -13.7200 C.ar      1 MOL         0.0060
      3 C3         14.2550    4.7910  -14.6980 C.ar      1 MOL        -0.0500
      4 C4         14.2440    5.3810  -15.9560 C.ar      1 MOL        -0.0482
      5 C5         13.2780    6.2690  -16.2610 C.ar      1 MOL         0.0098
      6 C6         12.2560    6.6200  -15.2890 C.ar      1 MOL        -0.0344
      7 C7         12.1660    4.8890  -11.5130 C.ar      1 MOL         0.0590
      8 C8         13.2150    4.4930  -12.3990 C.ar      1 MOL         0.0270
      9 N9         11.2780    6.3600  -13.1840 N.ar      1 MOL        -0.2833
     10 C10        11.2220    5.8370  -11.9360 C.ar      1 MOL         0.1523
     11 C11        13.0660    3.3790   -9.8530 C.ar      1 MOL         0.0146
     12 N12        14.0810    3.0500  -10.7170 N.ar      1 MOL        -0.2918
     13 C13        14.1490    3.5870  -11.9470 C.ar      1 MOL         0.0250
     14 C14        12.1210    4.2880  -10.2200 C.ar      1 MOL        -0.0185
     15 N15        10.1200    6.2680  -11.0630 N.pl3     1 MOL        -0.2502
     16 C16         9.1100    7.2880  -11.3570 C.ar      1 MOL         0.0673
     17 C17         8.6070    7.4010  -12.5910 C.ar      1 MOL        -0.0235
     18 C18         7.5890    8.3680  -12.9090 C.ar      1 MOL         0.0315
     19 C19         7.0720    9.1920  -11.9050 C.ar      1 MOL        -0.0590
     20 C20         7.5790    9.0630  -10.6310 C.ar      1 MOL        -0.0704
     21 C21         8.6100    8.0910  -10.3380 C.ar      1 MOL        -0.0371
     22 CL22        7.0290    8.4050  -14.5850 Cl        1 MOL        -0.0736
     23 C23        13.3350    6.9060  -17.6120 C.2       1 MOL         0.0635
     24 O24        14.4490    6.6480  -18.2970 O.co2     1 MOL        -0.5602
     25 O25        12.4330    7.6050  -18.0250 O.co2     1 MOL        -0.5602
     26 H1         15.0415    4.0878  -14.4489 H         1 MOL         0.0636
     27 H2         15.0056    5.1291  -16.6851 H         1 MOL         0.0629
     28 H3         11.5036    7.3626  -15.5289 H         1 MOL         0.0641
     29 H4         13.0168    2.9135   -8.8753 H         1 MOL         0.0804
     30 H5         14.9627    3.2988  -12.6027 H         1 MOL         0.0861
     31 H6         11.3316    4.5560   -9.5271 H         1 MOL         0.0763
     32 H7         10.0506    5.8030  -10.1465 H         1 MOL         0.2200
     33 H8          8.9757    6.7469  -13.3728 H         1 MOL         0.0546
     34 H9          6.2928    9.9133  -12.1234 H         1 MOL         0.0529
     35 H10         7.2009    9.6977   -9.8377 H         1 MOL         0.0589
     36 H11         8.9910    7.9893   -9.3283 H         1 MOL         0.0542
@<TRIPOS>BOND
     1    2    1 ar 
     2    1    6 ar 
     3    9    1 ar 
     4    2    3 ar 
     5    8    2 ar 
     6    3    4 ar 
     7    4    5 ar 
     8    6    5 ar 
     9    5   23 1  
    10    7    8 ar 
    11    7   10 ar 
    12   14    7 ar 
    13    8   13 ar 
    14   10    9 ar 
    15   10   15 1  
    16   11   12 ar 
    17   11   14 ar 
    18   12   13 ar 
    19   15   16 1  
    20   16   17 ar 
    21   16   21 ar 
    22   17   18 ar 
    23   18   19 ar 
    24   18   22 1  
    25   19   20 ar 
    26   20   21 ar 
    27   23   24 ar 
    28   23   25 ar 
    29    3   26 1  
    30    4   27 1  
    31    6   28 1  
    32   11   29 1  
    33   13   30 1  
    34   14   31 1  
    35   15   32 1  
    36   17   33 1  
    37   19   34 1  
    38   20   35 1  
    39   21   36 1  
@<TRIPOS>SUBSTRUCTURE
     1 MOL         1

