### 
### Created by X-TOOL on Mon Aug  2 16:14:39 2021
### 

@<TRIPOS>MOLECULE
6k4t_ligand
   15    15     1     0     0
SMALL
GAST_HUCK


@<TRIPOS>ATOM
      1 SD          6.3970   -6.4510   -6.9590 S.3       1 JKE        -0.1152
      2 CG          8.2440   -3.8410   -6.1750 C.2       1 JKE         0.0594
      3 CZ          8.8060   -5.0000   -6.8970 C.ar      1 JKE         0.0219
      4 CD1         8.7370   -7.2100   -8.0120 C.ar      1 JKE        -0.0462
      5 OD1         8.9490   -2.8350   -6.0880 O.co2     1 JKE        -0.5629
      6 CD2        10.7970   -5.9760   -7.8840 C.ar      1 JKE        -0.0650
      7 OD2         7.0510   -3.8570   -5.6480 O.co2     1 JKE        -0.5629
      8 CE1         8.0710   -6.1930   -7.3190 C.ar      1 JKE         0.0270
      9 CE2        10.1740   -4.9520   -7.1940 C.ar      1 JKE        -0.0534
     10 CG1        10.0970   -7.1000   -8.3000 C.ar      1 JKE        -0.0651
     11 H1          6.2672   -6.4611   -5.9595 H         1 JKE         0.1233
     12 H2          8.1907   -8.0914   -8.3279 H         1 JKE         0.0572
     13 H3         11.8555   -5.8990   -8.1048 H         1 JKE         0.0566
     14 H4         10.7564   -4.0946   -6.8765 H         1 JKE         0.0633
     15 H5         10.6044   -7.8875   -8.8454 H         1 JKE         0.0621
@<TRIPOS>BOND
     1    8    1 1  
     2    3    2 1  
     3    2    5 ar 
     4    2    7 ar 
     5    3    8 ar 
     6    3    9 ar 
     7    8    4 ar 
     8    4   10 ar 
     9    9    6 ar 
    10    6   10 ar 
    11    1   11 1  
    12    4   12 1  
    13    6   13 1  
    14    9   14 1  
    15   10   15 1  
@<TRIPOS>SUBSTRUCTURE
     1 JKE         1

