### 
### Created by X-TOOL on Mon Aug  2 16:14:39 2021
### 

@<TRIPOS>MOLECULE
6k4x_ligand
   17    17     1     0     0
SMALL
GAST_HUCK


@<TRIPOS>ATOM
      1 O2          7.2130   -3.9210   -5.6920 O.co2     1 D0U        -0.5664
      2 C7          8.3600   -3.9190   -6.1900 C.2       1 D0U         0.0510
      3 O1          9.1220   -2.9120   -6.1140 O.co2     1 D0U        -0.5664
      4 C3          8.8840   -5.1030   -6.9220 C.ar      1 D0U         0.0085
      5 C2         10.2750   -5.0840   -7.2170 C.ar      1 D0U        -0.0647
      6 C4          8.0960   -6.2030   -7.3050 C.ar      1 D0U         0.0153
      7 S1          6.4510   -6.5120   -6.9720 S.3       1 D0U        -0.1186
      8 C5          8.7450   -7.2360   -8.0180 C.ar      1 D0U        -0.0296
      9 C6         10.1070   -7.2120   -8.3260 C.ar      1 D0U         0.0322
     10 N1         10.7130   -8.2670   -8.9960 N.pl3     1 D0U        -0.3365
     11 C1         10.8560   -6.1510   -7.9020 C.ar      1 D0U        -0.0475
     12 H1         10.8832   -4.2410   -6.9097 H         1 D0U         0.0601
     13 H2          6.3142   -6.5578   -5.9744 H         1 D0U         0.1231
     14 H3          8.1577   -8.0878   -8.3414 H         1 D0U         0.0467
     15 H4         11.7191   -8.2290   -9.2134 H         1 D0U         0.1729
     16 H5         10.1563   -9.0873   -9.2755 H         1 D0U         0.1729
     17 H6         11.9214   -6.1382   -8.1016 H         1 D0U         0.0470
@<TRIPOS>BOND
     1    1    2 ar 
     2    2    3 ar 
     3    2    4 1  
     4    4    5 ar 
     5    4    6 ar 
     6    5   11 ar 
     7    6    7 1  
     8    6    8 ar 
     9    8    9 ar 
    10    9   10 1  
    11    9   11 ar 
    12    5   12 1  
    13    7   13 1  
    14    8   14 1  
    15   10   15 1  
    16   10   16 1  
    17   11   17 1  
@<TRIPOS>SUBSTRUCTURE
     1 D0U         1

