### 
### Created by X-TOOL on Mon Aug  2 16:14:39 2021
### 

@<TRIPOS>MOLECULE
6k9u_ligand
   62    67     1     0     0
SMALL
GAST_HUCK


@<TRIPOS>ATOM
      1 C21        15.5050   13.3050   18.7540 C.3       1 D4L        -0.0286
      2 C7         14.7570   14.6090   18.6690 C.ar      1 D4L        -0.0378
      3 C9         14.6700   15.4130   19.7920 C.ar      1 D4L        -0.0496
      4 C10        13.9950   16.6210   19.7460 C.ar      1 D4L        -0.0387
      5 C5         13.3950   17.0140   18.5710 C.ar      1 D4L         0.0577
      6 N3         12.7240   18.2190   18.5260 N.ar      1 D4L        -0.2785
      7 C1         12.1360   18.6320   17.3430 C.ar      1 D4L         0.0607
      8 C20        11.4070   19.9670   17.3810 C.3       1 D4L        -0.0073
      9 C8         14.1660   15.0020   17.4780 C.ar      1 D4L        -0.0363
     10 C6         13.4890   16.2070   17.4380 C.ar      1 D4L         0.0570
     11 N4         12.9080   16.6120   16.2630 N.ar      1 D4L        -0.2766
     12 C2         12.2450   17.8210   16.2020 C.ar      1 D4L         0.0842
     13 C11        11.5720   18.2110   14.9340 C.2       1 D4L         0.0411
     14 C19        10.7710   17.3180   14.2720 C.2       1 D4L        -0.0393
     15 C12        10.2800   17.9510   13.1770 C.2       1 D4L         0.1345
     16 N14         9.4250   17.4980   12.1990 N.2       1 D4L        -0.2919
     17 C16         9.0940   18.4170   11.2080 C.2       1 D4L         0.0911
     18 N24         8.2130   18.0320   10.1810 N.pl3     1 D4L        -0.2919
     19 C26         7.7450   16.6670    9.9520 C.3       1 D4L         0.0321
     20 C28         6.7080   16.7080    8.8440 C.3       1 D4L        -0.0306
     21 C27         6.3910   18.1680    8.6110 C.3       1 D4L        -0.0306
     22 C25         7.5730   18.9210    9.1900 C.3       1 D4L         0.0321
     23 C17         9.6100   19.7130   11.2310 C.2       1 D4L         0.0404
     24 C15        10.4570   20.1020   12.2750 C.2       1 D4L         0.2194
     25 N13        10.7700   19.2080   13.2270 N.pl3     1 D4L        -0.1177
     26 N18        11.5360   19.3750   14.2410 N.2       1 D4L        -0.2061
     27 N22        11.0330   21.3790   12.3460 N.pl3     1 D4L        -0.2683
     28 C23        10.9750   22.4910   11.3840 C.3       1 D4L         0.0509
     29 C33        12.3390   23.2280   11.3960 C.3       1 D4L        -0.0052
     30 C32        12.2770   24.6930   10.9270 C.3       1 D4L         0.0498
     31 O30        11.1070   25.3950   11.3600 O.3       1 D4L        -0.3796
     32 C29         9.9010   24.7330   10.9950 C.3       1 D4L         0.0498
     33 C31         9.8150   23.4150   11.7780 C.3       1 D4L        -0.0052
     34 H1         15.8976   13.1733   19.7731 H         1 D4L         0.0400
     35 H2         16.3399   13.3138   18.0378 H         1 D4L         0.0400
     36 H3         14.8241   12.4753   18.5133 H         1 D4L         0.0400
     37 H4         15.1353   15.0936   20.7175 H         1 D4L         0.0632
     38 H5         13.9395   17.2510   20.6264 H         1 D4L         0.0646
     39 H6         10.9859   20.1832   16.3881 H         1 D4L         0.0445
     40 H7         12.1132   20.7626   17.6608 H         1 D4L         0.0445
     41 H8         10.5949   19.9204   18.1215 H         1 D4L         0.0445
     42 H9         14.2334   14.3766   16.5951 H         1 D4L         0.0569
     43 H10        10.5664   16.2906   14.5696 H         1 D4L         0.0186
     44 H11         7.2931   16.2677   10.8720 H         1 D4L         0.0524
     45 H12         8.5885   16.0285    9.6507 H         1 D4L         0.0524
     46 H13         5.8014   16.1660    9.1510 H         1 D4L         0.0286
     47 H14         7.1129   16.2554    7.9268 H         1 D4L         0.0286
     48 H15         5.4619   18.4496    9.1281 H         1 D4L         0.0286
     49 H16         6.2894   18.3752    7.5355 H         1 D4L         0.0286
     50 H17         8.2873   19.1724    8.3922 H         1 D4L         0.0524
     51 H18         7.2290   19.8445    9.6786 H         1 D4L         0.0524
     52 H19         9.3551   20.4180   10.4411 H         1 D4L         0.0385
     53 H20        11.5783   21.5665   13.1995 H         1 D4L         0.1942
     54 H21        10.7909   22.0972   10.3735 H         1 D4L         0.0571
     55 H22        13.0292   22.6843   10.7342 H         1 D4L         0.0311
     56 H23        12.7288   23.2127   12.4245 H         1 D4L         0.0311
     57 H24        12.3003   24.7052    9.8273 H         1 D4L         0.0560
     58 H25        13.1603   25.2190   11.3183 H         1 D4L         0.0560
     59 H26         9.9043   24.5239    9.9151 H         1 D4L         0.0560
     60 H27         9.0385   25.3691   11.2427 H         1 D4L         0.0560
     61 H28         9.8694   23.6280   12.8558 H         1 D4L         0.0311
     62 H29         8.8605   22.9181   11.5501 H         1 D4L         0.0311
@<TRIPOS>BOND
     1    1    2 1  
     2    2    3 ar 
     3    2    9 ar 
     4    3    4 ar 
     5    4    5 ar 
     6    5    6 ar 
     7    5   10 ar 
     8    6    7 ar 
     9    7    8 1  
    10    7   12 ar 
    11    9   10 ar 
    12   10   11 ar 
    13   11   12 ar 
    14   12   13 1  
    15   13   14 1  
    16   13   26 2  
    17   14   15 2  
    18   15   16 1  
    19   15   25 1  
    20   16   17 2  
    21   17   18 1  
    22   17   23 1  
    23   18   19 1  
    24   18   22 1  
    25   19   20 1  
    26   20   21 1  
    27   21   22 1  
    28   23   24 2  
    29   24   25 1  
    30   24   27 1  
    31   25   26 1  
    32   27   28 1  
    33   28   29 1  
    34   28   33 1  
    35   29   30 1  
    36   30   31 1  
    37   31   32 1  
    38   32   33 1  
    39    1   34 1  
    40    1   35 1  
    41    1   36 1  
    42    3   37 1  
    43    4   38 1  
    44    8   39 1  
    45    8   40 1  
    46    8   41 1  
    47    9   42 1  
    48   14   43 1  
    49   19   44 1  
    50   19   45 1  
    51   20   46 1  
    52   20   47 1  
    53   21   48 1  
    54   21   49 1  
    55   22   50 1  
    56   22   51 1  
    57   23   52 1  
    58   27   53 1  
    59   28   54 1  
    60   29   55 1  
    61   29   56 1  
    62   30   57 1  
    63   30   58 1  
    64   32   59 1  
    65   32   60 1  
    66   33   61 1  
    67   33   62 1  
@<TRIPOS>SUBSTRUCTURE
     1 D4L         1

