### 
### Created by X-TOOL on Mon Aug  2 16:14:39 2021
### 

@<TRIPOS>MOLECULE
6kdx_ligand
   42    45     1     0     0
SMALL
GAST_HUCK


@<TRIPOS>ATOM
      1 C22        26.4380    4.8870   54.7100 C.ar      1 D6X        -0.0604
      2 C23        26.4620    4.3560   55.9900 C.ar      1 D6X        -0.0610
      3 C21        25.2510    5.3490   54.1770 C.ar      1 D6X        -0.0516
      4 C17        22.8960    5.7510   54.3650 C.ar      1 D6X        -0.0394
      5 C24        25.2910    4.3040   56.7300 C.ar      1 D6X        -0.0475
      6 C16        21.7390    5.6890   55.1110 C.ar      1 D6X        -0.0089
      7 C20        24.0770    5.2910   54.9300 C.ar      1 D6X        -0.0028
      8 C19        24.0790    4.7720   56.2210 C.ar      1 D6X         0.0274
      9 C15        21.8160    5.1510   56.3850 C.ar      1 D6X         0.1102
     10 C8         18.6960    3.3110   59.4710 C.2       1 D6X         0.0584
     11 C6         18.4340    2.9580   61.5130 C.2       1 D6X         0.2115
     12 C2         16.3150    1.5790   62.7210 C.2       1 D6X         0.0095
     13 C1         16.3620    1.7350   61.4000 C.2       1 D6X         0.1299
     14 C3         17.4650    2.1970   63.4030 C.2       1 D6X         0.0169
     15 C13        15.3040    1.1970   60.4860 C.3       1 D6X         0.0214
     16 C14        17.4980    2.0600   64.8760 C.3       1 D6X        -0.0113
     17 C10        19.2090    3.7530   58.1840 C.3       1 D6X         0.0173
     18 C11        20.6030    4.2950   58.2200 C.3       1 D6X         0.0398
     19 N18        22.9580    4.6900   56.9550 N.ar      1 D6X        -0.2919
     20 N7         19.2760    3.5580   60.6950 N.2       1 D6X        -0.3008
     21 N9         17.5660    2.6100   59.4870 N.2       1 D6X        -0.1924
     22 N4         18.4580    2.8450   62.8700 N.2       1 D6X        -0.2721
     23 N5         17.4110    2.3890   60.8100 N.pl3     1 D6X        -0.1154
     24 N12        20.5950    5.1340   57.0500 N.pl3     1 D6X        -0.3029
     25 H1         27.3507    4.9396   54.1276 H         1 D6X         0.0604
     26 H2         27.3898    3.9840   56.4094 H         1 D6X         0.0638
     27 H3         25.2308    5.7571   53.1730 H         1 D6X         0.0644
     28 H4         22.8838    6.1509   53.3575 H         1 D6X         0.0755
     29 H5         25.3175    3.8886   57.7309 H         1 D6X         0.0603
     30 H6         20.7976    6.0502   54.7130 H         1 D6X         0.0647
     31 H7         15.5151    1.0529   63.2400 H         1 D6X         0.0470
     32 H8         14.5245    0.6984   61.0808 H         1 D6X         0.0519
     33 H9         15.7537    0.4731   59.7905 H         1 D6X         0.0519
     34 H10        14.8568    2.0244   59.9156 H         1 D6X         0.0519
     35 H11        18.3963    2.5575   65.2705 H         1 D6X         0.0460
     36 H12        17.5216    0.9936   65.1447 H         1 D6X         0.0460
     37 H13        16.6007    2.5272   65.3079 H         1 D6X         0.0460
     38 H14        18.5442    4.5421   57.8027 H         1 D6X         0.0470
     39 H15        19.1925    2.8953   57.4955 H         1 D6X         0.0470
     40 H16        21.3516    3.4932   58.1383 H         1 D6X         0.0546
     41 H17        20.7877    4.8773   59.1347 H         1 D6X         0.0546
     42 H18        19.7703    5.6664   56.7380 H         1 D6X         0.1833
@<TRIPOS>BOND
     1    2    1 ar 
     2    3    1 ar 
     3    5    2 ar 
     4    7    3 ar 
     5    6    4 ar 
     6    4    7 ar 
     7    8    5 ar 
     8    9    6 ar 
     9    8    7 ar 
    10   19    8 ar 
    11    9   19 ar 
    12   24    9 1  
    13   17   10 1  
    14   10   20 1  
    15   10   21 2  
    16   20   11 2  
    17   11   22 1  
    18   11   23 1  
    19   13   12 2  
    20   14   12 1  
    21   13   15 1  
    22   23   13 1  
    23   14   16 1  
    24   22   14 2  
    25   18   17 1  
    26   18   24 1  
    27   21   23 1  
    28    1   25 1  
    29    2   26 1  
    30    3   27 1  
    31    4   28 1  
    32    5   29 1  
    33    6   30 1  
    34   12   31 1  
    35   15   32 1  
    36   15   33 1  
    37   15   34 1  
    38   16   35 1  
    39   16   36 1  
    40   16   37 1  
    41   17   38 1  
    42   17   39 1  
    43   18   40 1  
    44   18   41 1  
    45   24   42 1  
@<TRIPOS>SUBSTRUCTURE
     1 D6X         1

