### 
### Created by X-TOOL on Mon Aug  2 16:14:40 2021
### 

@<TRIPOS>MOLECULE
6kdz_ligand
   43    47     1     0     0
SMALL
GAST_HUCK


@<TRIPOS>ATOM
      1 C26        26.7700    4.5660   57.2640 C.ar      1 D79        -0.0397
      2 C27        25.4950    4.6100   57.7910 C.ar      1 D79        -0.0308
      3 C25        27.0160    4.9170   55.9450 C.ar      1 D79         0.0031
      4 C22        24.6480    5.0390   56.7930 C.ar      1 D79         0.1006
      5 C23        24.9110    5.3900   55.4640 C.ar      1 D79         0.1680
      6 C18        23.3010    5.2000   56.9600 C.2       1 D79         0.2007
      7 C3         18.9860    3.2980   59.9480 C.2       1 D79         0.0589
      8 C8         18.4450    2.9980   61.9370 C.2       1 D79         0.2115
      9 C11        16.0860    1.9480   62.8990 C.2       1 D79         0.0095
     10 C15        20.6260    5.7340   56.5990 C.2       1 D79         0.0004
     11 C12        16.2550    2.0690   61.5850 C.2       1 D79         0.1299
     12 C16        21.4740    5.8960   55.5800 C.2       1 D79         0.2202
     13 C10        17.2330    2.4190   63.7030 C.2       1 D79         0.0169
     14 C4         21.2720    5.2630   57.8430 C.2       1 D79         0.0022
     15 C14        15.1950    1.6500   60.6340 C.3       1 D79         0.0214
     16 C13        17.0450    2.2990   65.1660 C.3       1 D79        -0.0113
     17 C5         19.7970    3.6810   58.7910 C.3       1 D79         0.0101
     18 C6         20.4090    5.0430   59.0150 C.3       1 D79         0.0048
     19 N24        26.1650    5.3310   54.9890 N.ar      1 D79        -0.2725
     20 N20        23.7830    5.7480   54.8420 N.pl3     1 D79        -0.1587
     21 N1         19.4450    3.4490   61.2270 N.2       1 D79        -0.3007
     22 N2         17.7660    2.7900   59.8160 N.2       1 D79        -0.1923
     23 N17        22.5180    5.0040   58.0330 N.2       1 D79        -0.2849
     24 N9         18.3490    2.9160   63.2820 N.2       1 D79        -0.2721
     25 N19        22.8050    5.6350   55.7590 N.am      1 D79        -0.0803
     26 N7         17.4280    2.5960   61.1040 N.pl3     1 D79        -0.1154
     27 O21        21.0240    6.3200   54.3410 O.2       1 D79        -0.4175
     28 H1         27.5947    4.2511   57.8931 H         1 D79         0.0617
     29 H2         25.2118    4.3536   58.8055 H         1 D79         0.0771
     30 H3         28.0530    4.8470   55.6373 H         1 D79         0.0837
     31 H4         15.1807    1.5374   63.3437 H         1 D79         0.0470
     32 H5         19.5577    5.9306   56.5210 H         1 D79         0.0323
     33 H6         14.3349    1.2550   61.1945 H         1 D79         0.0519
     34 H7         15.5884    0.8684   59.9674 H         1 D79         0.0519
     35 H8         14.8761    2.5161   60.0355 H         1 D79         0.0519
     36 H9         17.9423    2.6705   65.6826 H         1 D79         0.0460
     37 H10        16.8808    1.2437   65.4293 H         1 D79         0.0460
     38 H11        16.1722    2.8937   65.4736 H         1 D79         0.0460
     39 H12        19.1605    3.7111   57.8943 H         1 D79         0.0478
     40 H13        20.5983    2.9412   58.6473 H         1 D79         0.0478
     41 H14        19.6273    5.8148   59.0713 H         1 D79         0.0500
     42 H15        21.0025    5.0539   59.9411 H         1 D79         0.0500
     43 H16        23.6832    6.0486   53.8619 H         1 D79         0.2269
@<TRIPOS>BOND
     1    2    1 ar 
     2    1    3 ar 
     3    4    2 ar 
     4   19    3 ar 
     5    4    5 ar 
     6    6    4 1  
     7    5   19 ar 
     8    5   20 1  
     9   23    6 2  
    10    6   25 am 
    11   17    7 1  
    12    7   21 1  
    13    7   22 2  
    14   21    8 2  
    15    8   24 1  
    16    8   26 1  
    17   11    9 2  
    18   13    9 1  
    19   10   12 1  
    20   14   10 2  
    21   11   15 1  
    22   26   11 1  
    23   12   25 am 
    24   12   27 2  
    25   13   16 1  
    26   24   13 2  
    27   18   14 1  
    28   14   23 1  
    29   17   18 1  
    30   20   25 1  
    31   22   26 1  
    32    1   28 1  
    33    2   29 1  
    34    3   30 1  
    35    9   31 1  
    36   10   32 1  
    37   15   33 1  
    38   15   34 1  
    39   15   35 1  
    40   16   36 1  
    41   16   37 1  
    42   16   38 1  
    43   17   39 1  
    44   17   40 1  
    45   18   41 1  
    46   18   42 1  
    47   20   43 1  
@<TRIPOS>SUBSTRUCTURE
     1 D79         1

