### 
### Created by X-TOOL on Mon Aug  2 16:14:40 2021
### 

@<TRIPOS>MOLECULE
6ke0_ligand
   46    50     1     0     0
SMALL
GAST_HUCK


@<TRIPOS>ATOM
      1 C10        26.9070    4.2290   56.4030 C.ar      1 D7C        -0.0817
      2 C11        26.7630    4.6310   55.0910 C.ar      1 D7C        -0.0795
      3 C9         25.8870    4.3350   57.3230 C.ar      1 D7C        -0.0704
      4 C12        25.5910    5.1630   54.6010 C.ar      1 D7C        -0.0455
      5 C8         24.6890    4.8620   56.8630 C.ar      1 D7C         0.0086
      6 C7         24.5810    5.2550   55.5340 C.ar      1 D7C         0.0764
      7 C16        19.8740    4.2580   59.3760 C.2       1 D7C         0.0760
      8 C19        18.6500    3.5560   60.9090 C.2       1 D7C         0.2118
      9 C5         22.7190    5.5840   56.6590 C.2       1 D7C         0.2463
     10 C22        16.3250    2.0030   60.6450 C.2       1 D7C         0.0096
     11 C21        17.0020    2.3710   59.5570 C.2       1 D7C         0.1300
     12 C23        16.9290    2.4930   61.9130 C.2       1 D7C         0.0170
     13 C13        20.4360    5.5480   57.3310 C.2       1 D7C         0.2311
     14 C1         22.4580    6.2630   54.4300 C.3       1 D7C         0.0862
     15 C2         21.2600    6.6650   55.2540 C.3       1 D7C         0.0996
     16 C25        16.5750    1.9870   58.1750 C.3       1 D7C         0.0214
     17 C26        16.2140    2.1170   63.1730 C.3       1 D7C        -0.0112
     18 C27        21.2890    8.1660   55.4020 C.3       1 D7C        -0.0328
     19 C15        20.9450    4.9230   58.6180 C.3       1 D7C         0.0943
     20 N6         23.5210    5.0750   57.5630 N.2       1 D7C        -0.3138
     21 N18        19.7460    4.2730   60.7400 N.2       1 D7C        -0.2983
     22 N17        18.9300    3.5800   58.7240 N.2       1 D7C        -0.1895
     23 N24        18.0060    3.2120   62.0480 N.2       1 D7C        -0.2720
     24 N4         23.2990    5.7070   55.4560 N.pl3     1 D7C        -0.2112
     25 N20        18.1400    3.1280   59.7060 N.pl3     1 D7C        -0.1149
     26 N3         21.4570    6.0590   56.5500 N.am      1 D7C        -0.1630
     27 O14        19.2510    5.6010   57.0170 O.2       1 D7C        -0.3773
     28 H1         27.8569    3.8149   56.7214 H         1 D7C         0.0506
     29 H2         27.6065    4.5238   54.4187 H         1 D7C         0.0508
     30 H3         26.0140    4.0227   58.3532 H         1 D7C         0.0510
     31 H4         25.4733    5.4815   53.5715 H         1 D7C         0.0529
     32 H5         15.4177    1.4019   60.6089 H         1 D7C         0.0470
     33 H6         22.9279    7.1309   53.9443 H         1 D7C         0.0624
     34 H7         22.1956    5.5140   53.6683 H         1 D7C         0.0624
     35 H8         20.3184    6.3317   54.7933 H         1 D7C         0.0662
     36 H9         15.6542    1.3876   58.2290 H         1 D7C         0.0519
     37 H10        17.3697    1.3958   57.6966 H         1 D7C         0.0519
     38 H11        16.3871    2.8952   57.5836 H         1 D7C         0.0519
     39 H12        16.7514    2.5335   64.0377 H         1 D7C         0.0460
     40 H13        16.1744    1.0211   63.2591 H         1 D7C         0.0460
     41 H14        15.1908    2.5201   63.1483 H         1 D7C         0.0460
     42 H15        20.4253    8.4922   56.0001 H         1 D7C         0.0259
     43 H16        21.2437    8.6335   54.4073 H         1 D7C         0.0259
     44 H17        22.2190    8.4668   55.9066 H         1 D7C         0.0259
     45 H18        21.7168    4.1797   58.3694 H         1 D7C         0.0691
     46 H19        21.3848    5.7125   59.2451 H         1 D7C         0.0691
@<TRIPOS>BOND
     1    2    1 ar 
     2    3    1 ar 
     3    4    2 ar 
     4    5    3 ar 
     5    6    4 ar 
     6    6    5 ar 
     7   20    5 1  
     8   24    6 1  
     9   19    7 1  
    10    7   21 1  
    11    7   22 2  
    12   21    8 2  
    13    8   23 1  
    14    8   25 1  
    15    9   20 2  
    16   24    9 1  
    17    9   26 1  
    18   11   10 2  
    19   12   10 1  
    20   11   16 1  
    21   25   11 1  
    22   12   17 1  
    23   23   12 2  
    24   13   19 1  
    25   26   13 am 
    26   13   27 2  
    27   14   15 1  
    28   14   24 1  
    29   15   18 1  
    30   15   26 1  
    31   22   25 1  
    32    1   28 1  
    33    2   29 1  
    34    3   30 1  
    35    4   31 1  
    36   10   32 1  
    37   14   33 1  
    38   14   34 1  
    39   15   35 1  
    40   16   36 1  
    41   16   37 1  
    42   16   38 1  
    43   17   39 1  
    44   17   40 1  
    45   17   41 1  
    46   18   42 1  
    47   18   43 1  
    48   18   44 1  
    49   19   45 1  
    50   19   46 1  
@<TRIPOS>SUBSTRUCTURE
     1 D7C         1

