### 
### Created by X-TOOL on Mon Aug  2 16:10:55 2021
### 

@<TRIPOS>MOLECULE
6keb_ligand
   56    58     1     0     0
SMALL
GAST_HUCK


@<TRIPOS>ATOM
      1 C13        24.5880    4.2360  215.4820 C.ar      1 D6C        -0.0832
      2 C15        25.8340    2.5140  216.5690 C.ar      1 D6C        -0.0465
      3 C21        28.0730   -1.0710  216.5180 C.3       1 D6C        -0.0433
      4 C22        29.6990   -0.1090  217.8530 C.3       1 D6C        -0.0433
      5 C28        31.3510    0.5870  214.8330 C.3       1 D6C         0.0374
      6 C01        34.0060    9.7070  215.6460 C.3       1 D6C         0.0579
      7 O02        33.9270    8.7520  216.6550 O.3       1 D6C        -0.3257
      8 C03        32.8770    7.8620  216.4570 C.ar      1 D6C         0.0837
      9 C04        32.0290    7.4610  217.4790 C.ar      1 D6C        -0.0395
     10 C05        31.0050    6.5700  217.2050 C.ar      1 D6C        -0.0673
     11 C06        30.8430    6.0920  215.9190 C.ar      1 D6C        -0.0338
     12 C07        31.7020    6.4980  214.9310 C.ar      1 D6C        -0.0673
     13 C08        32.7120    7.3780  215.1910 C.ar      1 D6C        -0.0395
     14 C09        29.7400    5.1050  215.5280 C.3       1 D6C         0.0930
     15 S10        28.2520    5.7370  216.2910 S.3       1 D6C        -0.0893
     16 C11        26.8720    4.6020  216.1850 C.ar      1 D6C         0.0393
     17 C12        25.6990    5.0550  215.5970 C.ar      1 D6C        -0.0628
     18 C14        24.6640    2.9480  215.9860 C.ar      1 D6C        -0.0824
     19 C16        26.9730    3.3330  216.6540 C.ar      1 D6C         0.0825
     20 N17        28.1860    2.8400  217.3480 N.am      1 D6C        -0.2144
     21 C18        27.8300    2.0820  218.5360 C.3       1 D6C         0.0941
     22 C19        27.4970    0.6550  218.0930 C.3       1 D6C        -0.0066
     23 N20        28.4840    0.1660  217.1420 N.4       1 D6C         0.2327
     24 C23        29.6320    2.9940  217.1400 C.2       1 D6C         0.2416
     25 O24        30.4060    2.4980  217.8950 O.2       1 D6C        -0.3820
     26 C25        30.2550    3.7200  215.9480 C.3       1 D6C         0.2025
     27 O26        30.1740    2.8400  214.8560 O.3       1 D6C        -0.2487
     28 C27        31.3320    2.0910  214.6330 C.2       1 D6C         0.2333
     29 O29        32.3130    2.6290  214.2780 O.2       1 D6C        -0.3705
     30 H1         23.6809    4.5943  215.0090 H         1 D6C         0.0470
     31 H2         25.8777    1.5098  216.9748 H         1 D6C         0.0480
     32 H3         28.8482   -1.3998  215.8102 H         1 D6C         0.0777
     33 H4         27.1273   -0.9132  215.9788 H         1 D6C         0.0777
     34 H5         27.9308   -1.8416  217.2900 H         1 D6C         0.0777
     35 H6         30.0508    0.8090  218.3465 H         1 D6C         0.0777
     36 H7         30.4650   -0.4624  217.1471 H         1 D6C         0.0777
     37 H8         29.5130   -0.8844  218.6107 H         1 D6C         0.0777
     38 H9         32.3546    0.1993  214.6040 H         1 D6C         0.0483
     39 H10        30.6153    0.1186  214.1627 H         1 D6C         0.0483
     40 H11        31.0969    0.3527  215.8773 H         1 D6C         0.0483
     41 H12        34.8489   10.3845  215.8476 H         1 D6C         0.0575
     42 H13        33.0706   10.2850  215.6141 H         1 D6C         0.0575
     43 H14        34.1611    9.2066  214.6788 H         1 D6C         0.0575
     44 H15        32.1669    7.8422  218.4844 H         1 D6C         0.0525
     45 H16        30.3348    6.2496  217.9945 H         1 D6C         0.0530
     46 H17        31.5768    6.1132  213.9253 H         1 D6C         0.0530
     47 H18        33.3798    7.6911  214.3966 H         1 D6C         0.0525
     48 H19        29.5897    5.0972  214.4384 H         1 D6C         0.0630
     49 H20        25.6516    6.0703  215.2202 H         1 D6C         0.0521
     50 H21        23.8081    2.2858  215.9220 H         1 D6C         0.0520
     51 H22        26.9550    2.5372  219.0230 H         1 D6C         0.0637
     52 H23        28.6755    2.0685  219.2395 H         1 D6C         0.0637
     53 H24        26.5044    0.6468  217.6190 H         1 D6C         0.0839
     54 H25        27.4880   -0.0034  218.9741 H         1 D6C         0.0839
     55 H26        28.6416    0.8664  216.4344 H         1 D6C         0.2029
     56 H27        31.3164    3.8631  216.1987 H         1 D6C         0.0934
@<TRIPOS>BOND
     1   17    1 ar 
     2   18    1 ar 
     3    2   18 ar 
     4   19    2 ar 
     5   23    3 1  
     6   23    4 1  
     7   28    5 1  
     8    7    6 1  
     9    8    7 1  
    10    9    8 ar 
    11   13    8 ar 
    12   10    9 ar 
    13   11   10 ar 
    14   11   12 ar 
    15   14   11 1  
    16   12   13 ar 
    17   14   15 1  
    18   26   14 1  
    19   15   16 1  
    20   16   17 ar 
    21   19   16 ar 
    22   20   19 1  
    23   20   21 1  
    24   24   20 am 
    25   21   22 1  
    26   22   23 1  
    27   24   25 2  
    28   26   24 1  
    29   27   26 1  
    30   27   28 1  
    31   28   29 2  
    32    1   30 1  
    33    2   31 1  
    34    3   32 1  
    35    3   33 1  
    36    3   34 1  
    37    4   35 1  
    38    4   36 1  
    39    4   37 1  
    40    5   38 1  
    41    5   39 1  
    42    5   40 1  
    43    6   41 1  
    44    6   42 1  
    45    6   43 1  
    46    9   44 1  
    47   10   45 1  
    48   12   46 1  
    49   13   47 1  
    50   14   48 1  
    51   17   49 1  
    52   18   50 1  
    53   21   51 1  
    54   21   52 1  
    55   22   53 1  
    56   22   54 1  
    57   23   55 1  
    58   26   56 1  
@<TRIPOS>SUBSTRUCTURE
     1 D6C         1

