### 
### Created by X-TOOL on Mon Aug  2 16:10:56 2021
### 

@<TRIPOS>MOLECULE
6kjd_ligand
   67    68     1     0     0
SMALL
GAST_HUCK


@<TRIPOS>ATOM
      1 O1         10.8500   39.7040   11.1860 O.co2     1 LVA        -0.5689
      2 O2         11.1610   37.2020   10.5580 O.3       1 LVA        -0.3900
      3 O3          8.9530   40.1950   12.2090 O.co2     1 LVA        -0.5689
      4 O8         10.1450   38.0880    6.5360 O.3       1 LVA        -0.3917
      5 O4         10.1070   32.2810    6.1940 O.3       1 LVA        -0.2712
      6 C5          6.2290   32.9760    4.2110 C.2       1 LVA        -0.0819
      7 C6          7.6620   32.7920    3.8510 C.2       1 LVA        -0.0677
      8 C7         10.0030   37.2310    7.6760 C.3       1 LVA         0.0577
      9 C8          5.8630   34.0090    4.9770 C.2       1 LVA        -0.0815
     10 C9          8.7690   33.6150    4.4730 C.3       1 LVA         0.0160
     11 C10         9.6250   39.3710   11.6040 C.2       1 LVA         0.0373
     12 C11         6.8790   35.0740    5.3640 C.3       1 LVA        -0.0129
     13 C12         8.2500   34.4370    5.6520 C.3       1 LVA        -0.0163
     14 C13         9.7740   37.2880   10.2130 C.3       1 LVA         0.0689
     15 C14         7.9970   31.8810    2.9380 C.2       1 LVA        -0.0920
     16 C15        10.0430   32.7940    4.8280 C.3       1 LVA         0.0991
     17 C16         8.9600   36.1690    7.3350 C.3       1 LVA        -0.0262
     18 C17         9.5610   38.0410    8.8990 C.3       1 LVA         0.0008
     19 C18         9.3050   35.4740    6.0200 C.3       1 LVA        -0.0438
     20 C19        10.2960   31.6840    3.7960 C.3       1 LVA        -0.0111
     21 C20         6.9350   36.1410    4.2670 C.3       1 LVA        -0.0519
     22 C21         9.0490   37.9980   11.3530 C.3       1 LVA         0.0264
     23 C22         9.4450   31.8100    2.5320 C.3       1 LVA        -0.0250
     24 C23         9.6230   30.6110    1.6100 C.3       1 LVA        -0.0555
     25 C24        11.1350   32.8790    7.1800 C.2       1 LVA         0.2369
     26 C25        10.8360   33.1030    8.6360 C.3       1 LVA         0.0570
     27 O26        12.3150   33.2280    6.9770 O.2       1 LVA        -0.3701
     28 C27        12.1530   33.5940    9.2810 C.3       1 LVA        -0.0350
     29 C28        10.3020   31.8200    9.2620 C.3       1 LVA        -0.0440
     30 C29        12.0050   34.1510   10.6870 C.3       1 LVA        -0.0629
     31 H1         11.5171   38.0775   10.6543 H         1 LVA         0.2099
     32 H2         10.7906   38.7591    6.7242 H         1 LVA         0.2098
     33 H3          5.4809   32.2710    3.8513 H         1 LVA         0.0405
     34 H4         10.9655   36.7456    7.8949 H         1 LVA         0.0594
     35 H5          4.8342   34.0886    5.3252 H         1 LVA         0.0629
     36 H6          9.0817   34.3374    3.7047 H         1 LVA         0.0452
     37 H7          6.5364   35.5592    6.2898 H         1 LVA         0.0478
     38 H8          8.1228   33.7604    6.5099 H         1 LVA         0.0351
     39 H9          9.3692   36.2712   10.1025 H         1 LVA         0.0612
     40 H10         7.2534   31.2148    2.5031 H         1 LVA         0.0428
     41 H11        10.8829   33.4986    4.7385 H         1 LVA         0.0672
     42 H12         7.9742   36.6482    7.2420 H         1 LVA         0.0290
     43 H13         8.9296   35.4212    8.1411 H         1 LVA         0.0290
     44 H14         8.4913   38.2764    8.7976 H         1 LVA         0.0316
     45 H15        10.1407   38.9753    8.9307 H         1 LVA         0.0316
     46 H16         9.3623   36.2271    5.2203 H         1 LVA         0.0272
     47 H17        10.2793   34.9739    6.1232 H         1 LVA         0.0272
     48 H18        10.0748   30.7152    4.2676 H         1 LVA         0.0319
     49 H19        11.3562   31.7165    3.5047 H         1 LVA         0.0319
     50 H20         5.9290   36.5567    4.1082 H         1 LVA         0.0259
     51 H21         7.2960   35.6873    3.3322 H         1 LVA         0.0259
     52 H22         7.6201   36.9455    4.5726 H         1 LVA         0.0259
     53 H23         7.9851   38.0987   11.0923 H         1 LVA         0.0456
     54 H24         9.1468   37.3963   12.2686 H         1 LVA         0.0456
     55 H25         9.7290   32.7265    1.9942 H         1 LVA         0.0426
     56 H26         8.9960   30.7401    0.7154 H         1 LVA         0.0253
     57 H27         9.3231   29.6942    2.1387 H         1 LVA         0.0253
     58 H28        10.6783   30.5327    1.3098 H         1 LVA         0.0253
     59 H29        10.0701   33.8854    8.7420 H         1 LVA         0.0551
     60 H30        12.5729   34.3849    8.6421 H         1 LVA         0.0291
     61 H31        12.8517   32.7453    9.3210 H         1 LVA         0.0291
     62 H32         9.3684   31.5277    8.7591 H         1 LVA         0.0258
     63 H33        10.1055   31.9878   10.3312 H         1 LVA         0.0258
     64 H34        11.0466   31.0185    9.1474 H         1 LVA         0.0258
     65 H35        12.9888   34.4725   11.0594 H         1 LVA         0.0231
     66 H36        11.5990   33.3721   11.3491 H         1 LVA         0.0231
     67 H37        11.3202   35.0116   10.6703 H         1 LVA         0.0231
@<TRIPOS>BOND
     1   11    1 ar 
     2   14    2 1  
     3   11    3 ar 
     4    8    4 1  
     5   16    5 1  
     6    5   25 1  
     7    7    6 1  
     8    9    6 2  
     9   10    7 1  
    10    7   15 2  
    11   17    8 1  
    12    8   18 1  
    13   12    9 1  
    14   13   10 1  
    15   10   16 1  
    16   22   11 1  
    17   13   12 1  
    18   12   21 1  
    19   19   13 1  
    20   18   14 1  
    21   14   22 1  
    22   15   23 1  
    23   16   20 1  
    24   17   19 1  
    25   20   23 1  
    26   23   24 1  
    27   25   26 1  
    28   25   27 2  
    29   26   28 1  
    30   26   29 1  
    31   28   30 1  
    32    2   31 1  
    33    4   32 1  
    34    6   33 1  
    35    8   34 1  
    36    9   35 1  
    37   10   36 1  
    38   12   37 1  
    39   13   38 1  
    40   14   39 1  
    41   15   40 1  
    42   16   41 1  
    43   17   42 1  
    44   17   43 1  
    45   18   44 1  
    46   18   45 1  
    47   19   46 1  
    48   19   47 1  
    49   20   48 1  
    50   20   49 1  
    51   21   50 1  
    52   21   51 1  
    53   21   52 1  
    54   22   53 1  
    55   22   54 1  
    56   23   55 1  
    57   24   56 1  
    58   24   57 1  
    59   24   58 1  
    60   26   59 1  
    61   28   60 1  
    62   28   61 1  
    63   29   62 1  
    64   29   63 1  
    65   29   64 1  
    66   30   65 1  
    67   30   66 1  
    68   30   67 1  
@<TRIPOS>SUBSTRUCTURE
     1 LVA         1

