### 
### Created by X-TOOL on Mon Aug  2 16:10:56 2021
### 

@<TRIPOS>MOLECULE
6kjf_ligand
   70    71     1     0     0
SMALL
GAST_HUCK


@<TRIPOS>ATOM
      1 O1A        -9.4830   38.3300  -13.0740 O.co2     1 SIM        -0.5689
      2 O1B       -10.5950   39.7270  -11.7780 O.co2     1 SIM        -0.5689
      3 O3        -11.0390   38.0490  -10.2740 O.3       1 SIM        -0.3900
      4 O5        -10.2470   38.5670   -6.3200 O.3       1 SIM        -0.3917
      5 O14       -10.1130   32.9420   -5.8620 O.3       1 SIM        -0.2717
      6 O18       -12.2120   34.0970   -5.9450 O.2       1 SIM        -0.3120
      7 C1         -9.6480   38.8210  -11.9800 C.2       1 SIM         0.0373
      8 C2         -8.7930   38.4070  -10.8350 C.3       1 SIM         0.0264
      9 C3         -9.7300   37.8100   -9.8240 C.3       1 SIM         0.0689
     10 C4         -9.5430   38.5420   -8.5260 C.3       1 SIM         0.0008
     11 C5         -9.9960   37.6970   -7.3890 C.3       1 SIM         0.0577
     12 C6         -8.8920   36.7310   -7.0380 C.3       1 SIM        -0.0262
     13 C7         -9.2210   36.0640   -5.7200 C.3       1 SIM        -0.0438
     14 C8         -8.2180   35.0000   -5.4060 C.3       1 SIM        -0.0163
     15 C9         -6.8670   35.6150   -5.1100 C.3       1 SIM        -0.0129
     16 C10        -5.8790   34.5550   -4.7810 C.2       1 SIM        -0.0815
     17 C11        -6.2750   33.4770   -4.1870 C.2       1 SIM        -0.0819
     18 C12        -7.6260   33.3440   -3.6720 C.2       1 SIM        -0.0677
     19 C17        -7.9020   32.5050   -2.7040 C.2       1 SIM        -0.0920
     20 C16        -9.3230   32.3680   -2.2900 C.3       1 SIM        -0.0250
     21 C15       -10.2250   32.2940   -3.5110 C.3       1 SIM        -0.0112
     22 C14        -9.9890   33.3830   -4.5310 C.3       1 SIM         0.0982
     23 C13        -8.7190   34.1830   -4.2380 C.3       1 SIM         0.0159
     24 C9A        -6.9100   36.6460   -3.9940 C.3       1 SIM        -0.0519
     25 C18       -11.3680   33.4370   -6.5040 C.2       1 SIM         0.2616
     26 C19       -11.7680   33.0800   -7.8690 C.3       1 SIM         0.0566
     27 C20       -10.9170   33.6730   -9.0110 C.3       1 SIM        -0.0433
     28 C21       -11.7420   34.4400  -10.0460 C.3       1 SIM        -0.0658
     29 C22       -11.8190   31.5280   -7.7780 C.3       1 SIM        -0.0525
     30 C23       -13.0690   33.7880   -8.0300 C.3       1 SIM        -0.0525
     31 C24        -9.4550   31.1180   -1.4630 C.3       1 SIM        -0.0555
     32 H1        -11.1811   38.9854  -10.3484 H         1 SIM         0.2099
     33 H2        -10.9204   39.1886   -6.5704 H         1 SIM         0.2098
     34 H3         -8.2737   39.2782  -10.4092 H         1 SIM         0.0456
     35 H4         -8.0525   37.6610  -11.1592 H         1 SIM         0.0456
     36 H5         -9.5442   36.7330   -9.6989 H         1 SIM         0.0612
     37 H6        -10.1315   39.4712   -8.5449 H         1 SIM         0.0316
     38 H7         -8.4781   38.7850   -8.3962 H         1 SIM         0.0316
     39 H8        -10.9088   37.1434   -7.6542 H         1 SIM         0.0594
     40 H9         -7.9404   37.2754   -6.9483 H         1 SIM         0.0290
     41 H10        -8.8052   35.9682   -7.8257 H         1 SIM         0.0290
     42 H11       -10.2213   35.6109   -5.7835 H         1 SIM         0.0272
     43 H12        -9.2104   36.8187   -4.9199 H         1 SIM         0.0272
     44 H13        -8.1147   34.3396   -6.2796 H         1 SIM         0.0351
     45 H14        -6.5293   36.1273   -6.0230 H         1 SIM         0.0478
     46 H15        -4.8289   34.6852   -5.0383 H         1 SIM         0.0629
     47 H16        -5.5781   32.6484   -4.0701 H         1 SIM         0.0405
     48 H17        -7.1165   31.9274   -2.2190 H         1 SIM         0.0428
     49 H18        -9.6125   33.2390   -1.6838 H         1 SIM         0.0426
     50 H19       -11.2691   32.3617   -3.1715 H         1 SIM         0.0318
     51 H20       -10.0610   31.3229   -4.0010 H         1 SIM         0.0318
     52 H21       -10.8151   34.0959   -4.3921 H         1 SIM         0.0671
     53 H22        -8.9945   34.9050   -3.4551 H         1 SIM         0.0452
     54 H23        -5.9007   37.0516   -3.8305 H         1 SIM         0.0259
     55 H24        -7.2683   36.1705   -3.0691 H         1 SIM         0.0259
     56 H25        -7.5921   37.4621   -4.2748 H         1 SIM         0.0259
     57 H26       -10.3953   32.8499   -9.5211 H         1 SIM         0.0253
     58 H27       -10.1780   34.3610   -8.5745 H         1 SIM         0.0253
     59 H28       -11.0754   34.8337  -10.8275 H         1 SIM         0.0228
     60 H29       -12.2632   35.2745   -9.5541 H         1 SIM         0.0228
     61 H30       -12.4805   33.7634  -10.5007 H         1 SIM         0.0228
     62 H31       -12.4529   31.2311   -6.9295 H         1 SIM         0.0221
     63 H32       -10.8020   31.1357   -7.6307 H         1 SIM         0.0221
     64 H33       -12.2383   31.1196   -8.7094 H         1 SIM         0.0221
     65 H34       -12.8924   34.8725   -8.0809 H         1 SIM         0.0221
     66 H35       -13.7181   33.5621   -7.1712 H         1 SIM         0.0221
     67 H36       -13.5570   33.4522   -8.9568 H         1 SIM         0.0221
     68 H37        -8.7965   31.1882   -0.5847 H         1 SIM         0.0253
     69 H38        -9.1672   30.2458   -2.0683 H         1 SIM         0.0253
     70 H39       -10.4978   31.0062   -1.1313 H         1 SIM         0.0253
@<TRIPOS>BOND
     1    7    1 ar 
     2    7    2 ar 
     3    9    3 1  
     4   11    4 1  
     5   22    5 1  
     6    5   25 1  
     7   25    6 2  
     8    8    7 1  
     9    9    8 1  
    10   10    9 1  
    11   11   10 1  
    12   12   11 1  
    13   13   12 1  
    14   14   13 1  
    15   14   15 1  
    16   23   14 1  
    17   16   15 1  
    18   15   24 1  
    19   17   16 2  
    20   18   17 1  
    21   19   18 2  
    22   18   23 1  
    23   20   19 1  
    24   21   20 1  
    25   20   31 1  
    26   21   22 1  
    27   22   23 1  
    28   25   26 1  
    29   26   27 1  
    30   26   29 1  
    31   26   30 1  
    32   27   28 1  
    33    3   32 1  
    34    4   33 1  
    35    8   34 1  
    36    8   35 1  
    37    9   36 1  
    38   10   37 1  
    39   10   38 1  
    40   11   39 1  
    41   12   40 1  
    42   12   41 1  
    43   13   42 1  
    44   13   43 1  
    45   14   44 1  
    46   15   45 1  
    47   16   46 1  
    48   17   47 1  
    49   19   48 1  
    50   20   49 1  
    51   21   50 1  
    52   21   51 1  
    53   22   52 1  
    54   23   53 1  
    55   24   54 1  
    56   24   55 1  
    57   24   56 1  
    58   27   57 1  
    59   27   58 1  
    60   28   59 1  
    61   28   60 1  
    62   28   61 1  
    63   29   62 1  
    64   29   63 1  
    65   29   64 1  
    66   30   65 1  
    67   30   66 1  
    68   30   67 1  
    69   31   68 1  
    70   31   69 1  
    71   31   70 1  
@<TRIPOS>SUBSTRUCTURE
     1 SIM         1

