### 
### Created by X-TOOL on Mon Aug  2 16:14:40 2021
### 

@<TRIPOS>MOLECULE
6kla_ligand
   50    53     1     0     0
SMALL
GAST_HUCK


@<TRIPOS>ATOM
      1 C10         6.3070    5.0830   16.5460 C.3       1 DJX         0.0468
      2 N12         4.1940    4.1520   16.1020 N.pl3     1 DJX        -0.3541
      3 C13         4.7190    2.9430   16.2560 C.3       1 DJX         0.0279
      4 C15         2.7810    4.2970   15.7680 C.3       1 DJX         0.0046
      5 C17        12.4970    5.7550   18.2770 C.2       1 DJX         0.2124
      6 C20        14.5450    6.5850   18.8720 C.2       1 DJX        -0.0165
      7 C22        16.0170    4.8260   20.0560 C.ar      1 DJX        -0.0010
      8 C24        18.0980    5.3300   21.1190 C.ar      1 DJX         0.0029
      9 C26        17.5280    3.1180   20.7540 C.ar      1 DJX         0.0029
     10 C1         10.2860    4.7040   17.6190 C.ar      1 DJX         0.1350
     11 C2          8.9960    4.8750   17.1290 C.ar      1 DJX         0.0209
     12 C3          8.1960    3.7460   17.0660 C.ar      1 DJX         0.1089
     13 C5          9.8820    2.4940   18.0110 C.ar      1 DJX         0.0703
     14 C7         10.4150    1.1570   18.5120 C.3       1 DJX        -0.0028
     15 C11         4.9630    5.2220   16.2470 C.3       1 DJX         0.0279
     16 C14         6.0620    2.7850   16.5530 C.3       1 DJX         0.0468
     17 C16         2.0770    5.2500   16.7310 C.3       1 DJX        -0.0497
     18 C19        14.7350    5.2910   19.3730 C.2       1 DJX         0.0533
     19 C23        16.9180    5.7700   20.5430 C.ar      1 DJX        -0.0341
     20 C27        16.3250    3.4700   20.1570 C.ar      1 DJX        -0.0341
     21 N4          8.6440    2.5940   17.5390 N.ar      1 DJX        -0.2701
     22 N6         10.6990    3.5230   18.0460 N.ar      1 DJX        -0.2662
     23 N8         11.1760    5.8440   17.6690 N.pl3     1 DJX        -0.2165
     24 N9          6.8190    3.8660   16.6500 N.pl3     1 DJX        -0.2890
     25 N21        13.3320    6.7900   18.2940 N.2       1 DJX        -0.2981
     26 N25        18.3590    4.0400   21.2090 N.ar      1 DJX        -0.3069
     27 S18        13.2860    4.4540   19.0600 S.3       1 DJX         0.0292
     28 H1          6.4770    5.5875   17.5086 H         1 DJX         0.0539
     29 H2          6.8685    5.6024   15.7555 H         1 DJX         0.0539
     30 H3          4.5401    2.4014   15.3155 H         1 DJX         0.0480
     31 H4          4.1590    2.4593   17.0699 H         1 DJX         0.0480
     32 H5          2.2971    3.3107   15.8226 H         1 DJX         0.0457
     33 H6          2.6935    4.6923   14.7452 H         1 DJX         0.0457
     34 H7         15.3053    7.3617   18.9398 H         1 DJX         0.0633
     35 H8         18.8127    6.0511   21.4988 H         1 DJX         0.0799
     36 H9         17.7901    2.0704   20.8485 H         1 DJX         0.0799
     37 H10         8.6335    5.8460   16.8113 H         1 DJX         0.0520
     38 H11         9.6287    0.3928   18.4245 H         1 DJX         0.0460
     39 H12        10.7164    1.2539   19.5654 H         1 DJX         0.0460
     40 H13        11.2845    0.8592   17.9077 H         1 DJX         0.0460
     41 H14         4.9061    5.7819   15.3019 H         1 DJX         0.0480
     42 H15         4.5201    5.8217   17.0558 H         1 DJX         0.0480
     43 H16         6.4969    2.1539   15.7640 H         1 DJX         0.0539
     44 H17         6.1216    2.2594   17.5175 H         1 DJX         0.0539
     45 H18         1.0166    5.3364   16.4516 H         1 DJX         0.0245
     46 H19         2.5518    6.2409   16.6789 H         1 DJX         0.0245
     47 H20         2.1553    4.8593   17.7563 H         1 DJX         0.0245
     48 H21        16.6996    6.8294   20.4724 H         1 DJX         0.0667
     49 H22        15.6458    2.7135   19.7808 H         1 DJX         0.0667
     50 H23        10.8681    6.7400   17.2650 H         1 DJX         0.2304
@<TRIPOS>BOND
     1    1   15 1  
     2   24    1 1  
     3    2    3 1  
     4    2    4 1  
     5   15    2 1  
     6    3   16 1  
     7    4   17 1  
     8   23    5 1  
     9    5   25 2  
    10    5   27 1  
    11    6   18 2  
    12   25    6 1  
    13   18    7 1  
    14    7   19 ar 
    15    7   20 ar 
    16   19    8 ar 
    17    8   26 ar 
    18   20    9 ar 
    19    9   26 ar 
    20   11   10 ar 
    21   10   22 ar 
    22   10   23 1  
    23   12   11 ar 
    24   21   12 ar 
    25   12   24 1  
    26   13   14 1  
    27   13   21 ar 
    28   13   22 ar 
    29   16   24 1  
    30   18   27 1  
    31    1   28 1  
    32    1   29 1  
    33    3   30 1  
    34    3   31 1  
    35    4   32 1  
    36    4   33 1  
    37    6   34 1  
    38    8   35 1  
    39    9   36 1  
    40   11   37 1  
    41   14   38 1  
    42   14   39 1  
    43   14   40 1  
    44   15   41 1  
    45   15   42 1  
    46   16   43 1  
    47   16   44 1  
    48   17   45 1  
    49   17   46 1  
    50   17   47 1  
    51   19   48 1  
    52   20   49 1  
    53   23   50 1  
@<TRIPOS>SUBSTRUCTURE
     1 DJX         1

