### 
### Created by X-TOOL on Mon Aug  2 16:14:41 2021
### 

@<TRIPOS>MOLECULE
6klk_ligand
   12    12     1     0     0
SMALL
GAST_HUCK


@<TRIPOS>ATOM
      1 N1         -3.8580   41.0340   12.5190 N.am      1 URF        -0.2073
      2 C2         -5.0110   41.1360   11.8080 C.2       1 URF         0.3248
      3 N3         -6.1530   40.5360   12.2130 N.am      1 URF        -0.1844
      4 C4         -6.1750   39.8220   13.3490 C.2       1 URF         0.2212
      5 C5         -4.9380   39.6910   14.1350 C.2       1 URF         0.1928
      6 C6         -3.7880   40.3310   13.6720 C.2       1 URF         0.0823
      7 O2         -5.0360   41.8060   10.7400 O.2       1 URF        -0.3832
      8 O4         -7.2060   39.2590   13.7730 O.2       1 URF        -0.4071
      9 F5         -4.9860   38.9680   15.2670 F         1 URF        -0.2165
     10 H1         -3.0366   41.4924   12.1797 H         1 URF         0.2411
     11 H2         -6.9841   40.6246   11.6641 H         1 URF         0.2260
     12 H3         -2.8536   40.2658   14.2275 H         1 URF         0.1104
@<TRIPOS>BOND
     1    1    2 am 
     2    1    6 1  
     3    2    3 am 
     4    2    7 2  
     5    3    4 am 
     6    4    5 1  
     7    4    8 2  
     8    5    6 2  
     9    5    9 1  
    10    1   10 1  
    11    3   11 1  
    12    6   12 1  
@<TRIPOS>SUBSTRUCTURE
     1 URF         1

