### 
### Created by X-TOOL on Mon Aug  2 16:14:42 2021
### 

@<TRIPOS>MOLECULE
6knh_ligand
   18    17     1     0     0
SMALL
GAST_HUCK


@<TRIPOS>ATOM
      1 C1        -52.0560  -37.6180   24.5980 C.2       1 CIT         0.0371
      2 O1        -52.2560  -38.4700   23.7070 O.co2     1 CIT        -0.5690
      3 O2        -52.3870  -36.4220   24.4540 O.co2     1 CIT        -0.5690
      4 C2        -51.3930  -38.0860   25.8820 C.3       1 CIT         0.0356
      5 C3        -50.7410  -36.9890   26.7290 C.3       1 CIT         0.1328
      6 O7        -51.7710  -36.2050   27.3520 O.3       1 CIT        -0.3818
      7 C4        -49.8970  -37.6900   27.7980 C.3       1 CIT         0.0356
      8 C5        -49.3550  -36.7590   28.8670 C.2       1 CIT         0.0371
      9 O3        -49.8780  -35.6350   29.0480 O.co2     1 CIT        -0.5690
     10 O4        -48.3900  -37.1630   29.5480 O.co2     1 CIT        -0.5690
     11 C6        -49.8360  -36.0890   25.8910 C.2       1 CIT         0.0796
     12 O5        -49.0150  -36.6200   25.1060 O.co2     1 CIT        -0.5449
     13 O6        -49.9380  -34.8430   26.0020 O.co2     1 CIT        -0.5449
     14 H1        -50.6137  -38.8147   25.6142 H         1 CIT         0.0452
     15 H2        -52.1594  -38.5786   26.4984 H         1 CIT         0.0452
     16 H3        -52.3168  -35.8111   26.6816 H         1 CIT         0.2091
     17 H4        -49.0458  -38.1783   27.3011 H         1 CIT         0.0452
     18 H5        -50.5220  -38.4515   28.2874 H         1 CIT         0.0452
@<TRIPOS>BOND
     1    1    2 ar 
     2    1    3 ar 
     3    1    4 1  
     4    4    5 1  
     5    5    6 1  
     6    5    7 1  
     7    5   11 1  
     8    7    8 1  
     9    8    9 ar 
    10    8   10 ar 
    11   11   12 ar 
    12   11   13 ar 
    13    4   14 1  
    14    4   15 1  
    15    6   16 1  
    16    7   17 1  
    17    7   18 1  
@<TRIPOS>SUBSTRUCTURE
     1 CIT         1

