### 
### Created by X-TOOL on Mon Aug  2 16:10:56 2021
### 

@<TRIPOS>MOLECULE
6kqi_ligand
   67    68     1     0     0
SMALL
GAST_HUCK


@<TRIPOS>ATOM
      1 CAA        21.9060   -7.7370   46.5050 C.3       1 MOL        -0.0653
      2 CAB        23.0720   -7.6970   45.5170 C.3       1 MOL        -0.0559
      3 CAC        22.8290   -6.6240   44.4440 C.3       1 MOL        -0.0533
      4 CAD        23.7770   -6.8800   43.2630 C.3       1 MOL        -0.0539
      5 CAE        23.8500   -5.6580   42.3430 C.3       1 MOL        -0.0612
      6 CAF        23.3060   -6.0260   40.9580 C.3       1 MOL        -0.0766
      7 CAG        24.3060   -5.7360   39.8280 C.3       1 MOL        -0.0532
      8 CAH        25.3500   -4.7070   40.2600 C.3       1 MOL        -0.0885
      9 CAI        23.5220   -5.1660   38.6410 C.3       1 MOL        -0.0885
     10 CAJ        24.9520   -6.9270   39.4560 C.ar      1 MOL        -0.0670
     11 CAK        25.8690   -7.5370   40.3090 C.ar      1 MOL        -0.0539
     12 CAL        26.4990   -8.7220   39.9340 C.ar      1 MOL        -0.0332
     13 CAM        26.2440   -9.3080   38.6920 C.ar      1 MOL         0.0241
     14 CAN        26.8500  -10.5070   38.2780 C.3       1 MOL         0.0127
     15 CAO        25.8920  -11.6400   38.6260 C.3       1 MOL        -0.0104
     16 CAP        26.4390  -12.9640   38.1500 C.3       1 MOL         0.0579
     17 CAR        27.7580  -13.2230   38.8320 C.3       1 MOL        -0.0262
     18 CAS        28.7440  -12.1280   38.4730 C.3       1 MOL        -0.0452
     19 CAT        28.2260  -10.7750   38.9370 C.3       1 MOL        -0.0247
     20 CAU        29.2830   -9.7240   38.5590 C.3       1 MOL        -0.0455
     21 CAV        30.4740   -9.8190   39.5210 C.3       1 MOL        -0.0293
     22 CAW        30.2650   -8.8380   40.6800 C.3       1 MOL         0.0442
     23 CAY        25.3190   -8.6960   37.8520 C.ar      1 MOL         0.1201
     24 CBA        24.6810   -7.5190   38.2240 C.ar      1 MOL        -0.0185
     25 OAQ        25.5220  -14.0040   38.5040 O.3       1 MOL        -0.3916
     26 OAX        31.4260   -8.8070   41.5150 O.3       1 MOL        -0.3950
     27 OAZ        25.0810   -9.3000   36.6530 O.3       1 MOL        -0.3288
     28 H1         22.0958   -8.5092   47.2651 H         1 MOL         0.0230
     29 H2         20.9767   -7.9736   45.9661 H         1 MOL         0.0230
     30 H3         21.8066   -6.7571   46.9947 H         1 MOL         0.0230
     31 H4         23.1695   -8.6793   45.0316 H         1 MOL         0.0263
     32 H5         23.9994   -7.4627   46.0602 H         1 MOL         0.0263
     33 H6         23.0258   -5.6276   44.8665 H         1 MOL         0.0265
     34 H7         21.7860   -6.6763   44.0986 H         1 MOL         0.0265
     35 H8         23.4097   -7.7423   42.6872 H         1 MOL         0.0265
     36 H9         24.7830   -7.0993   43.6502 H         1 MOL         0.0265
     37 H10        24.8962   -5.3309   42.2506 H         1 MOL         0.0257
     38 H11        23.2470   -4.8424   42.7686 H         1 MOL         0.0257
     39 H12        22.3904   -5.4447   40.7744 H         1 MOL         0.0159
     40 H13        23.0669   -7.0996   40.9484 H         1 MOL         0.0159
     41 H14        26.0484   -4.5227   39.4303 H         1 MOL         0.0123
     42 H15        25.9055   -5.0906   41.1285 H         1 MOL         0.0123
     43 H16        24.8477   -3.7670   40.5320 H         1 MOL         0.0123
     44 H17        22.7651   -5.8956   38.3172 H         1 MOL         0.0123
     45 H18        24.2127   -4.9610   37.8098 H         1 MOL         0.0123
     46 H19        23.0254   -4.2324   38.9439 H         1 MOL         0.0123
     47 H20        26.0936   -7.0875   41.2695 H         1 MOL         0.0764
     48 H21        27.1965   -9.1955   40.6154 H         1 MOL         0.0631
     49 H22        26.9935  -10.4693   37.1881 H         1 MOL         0.0522
     50 H23        24.9219  -11.4547   38.1417 H         1 MOL         0.0322
     51 H24        25.7562  -11.6763   39.7170 H         1 MOL         0.0322
     52 H25        26.5781  -12.9418   37.0591 H         1 MOL         0.0595
     53 H26        28.1551  -14.1946   38.5028 H         1 MOL         0.0290
     54 H27        27.6092  -13.2379   39.9218 H         1 MOL         0.0290
     55 H28        28.8824  -12.1083   37.3819 H         1 MOL         0.0271
     56 H29        29.7079  -12.3339   38.9613 H         1 MOL         0.0271
     57 H30        28.0991  -10.7793   40.0296 H         1 MOL         0.0333
     58 H31        28.8395   -8.7195   38.6244 H         1 MOL         0.0271
     59 H32        29.6283   -9.9062   37.5306 H         1 MOL         0.0271
     60 H33        31.4006   -9.5641   38.9858 H         1 MOL         0.0287
     61 H34        30.5480  -10.8434   39.9149 H         1 MOL         0.0287
     62 H35        29.3974   -9.1583   41.2755 H         1 MOL         0.0557
     63 H36        30.0809   -7.8316   40.2758 H         1 MOL         0.0557
     64 H37        23.9673   -7.0580   37.5509 H         1 MOL         0.0720
     65 H38        25.4010  -14.0108   39.4462 H         1 MOL         0.2098
     66 H39        32.1760   -8.5289   41.0024 H         1 MOL         0.2094
     67 H40        25.3076   -8.7039   35.9489 H         1 MOL         0.2468
@<TRIPOS>BOND
     1    1    2 1  
     2    2    3 1  
     3    3    4 1  
     4    4    5 1  
     5    5    6 1  
     6    6    7 1  
     7    7    8 1  
     8    7    9 1  
     9    7   10 1  
    10   10   11 ar 
    11   10   24 ar 
    12   11   12 ar 
    13   12   13 ar 
    14   13   14 1  
    15   13   23 ar 
    16   14   15 1  
    17   14   19 1  
    18   15   16 1  
    19   16   17 1  
    20   16   25 1  
    21   17   18 1  
    22   18   19 1  
    23   19   20 1  
    24   20   21 1  
    25   21   22 1  
    26   22   26 1  
    27   23   24 ar 
    28   23   27 1  
    29    1   28 1  
    30    1   29 1  
    31    1   30 1  
    32    2   31 1  
    33    2   32 1  
    34    3   33 1  
    35    3   34 1  
    36    4   35 1  
    37    4   36 1  
    38    5   37 1  
    39    5   38 1  
    40    6   39 1  
    41    6   40 1  
    42    8   41 1  
    43    8   42 1  
    44    8   43 1  
    45    9   44 1  
    46    9   45 1  
    47    9   46 1  
    48   11   47 1  
    49   12   48 1  
    50   14   49 1  
    51   15   50 1  
    52   15   51 1  
    53   16   52 1  
    54   17   53 1  
    55   17   54 1  
    56   18   55 1  
    57   18   56 1  
    58   19   57 1  
    59   20   58 1  
    60   20   59 1  
    61   21   60 1  
    62   21   61 1  
    63   22   62 1  
    64   22   63 1  
    65   24   64 1  
    66   25   65 1  
    67   26   66 1  
    68   27   67 1  
@<TRIPOS>SUBSTRUCTURE
     1 MOL         1

