### 
### Created by X-TOOL on Mon Aug  2 16:14:42 2021
### 

@<TRIPOS>MOLECULE
6kzc_ligand
   64    68     1     0     0
SMALL
GAST_HUCK


@<TRIPOS>ATOM
      1 CAA        -3.8090  -17.3470   15.6540 C.2       1 DZC         0.0371
      2 CAC        -2.6750  -17.7510   13.5800 C.2       1 DZC         0.0661
      3 CAD        -3.9000  -17.7700   12.9700 C.2       1 DZC         0.1741
      4 CAF        -5.0650  -17.3680   15.0170 C.2       1 DZC         0.0956
      5 CAH        -5.6500  -17.8460   11.7520 C.2       1 DZC         0.0001
      6 CAI        -5.9530  -17.6580   12.8980 C.2       1 DZC         0.1457
      7 CAJ        -7.3800  -17.4880   13.3800 C.1       1 DZC        -0.0463
      8 CAK        -8.5010  -17.3380   13.7810 C.1       1 DZC        -0.0754
      9 CAL        -9.9100  -17.1250   14.2920 C.ar      1 DZC         0.0265
     10 CAM       -10.4750  -17.9520   15.2470 C.ar      1 DZC        -0.0507
     11 CAN       -11.7670  -17.6990   15.6810 C.ar      1 DZC        -0.0635
     12 CAO       -12.4780  -16.6140   15.1610 C.ar      1 DZC        -0.0493
     13 CAP       -11.9100  -15.7910   14.1970 C.ar      1 DZC         0.0574
     14 CAQ       -10.6000  -16.0380   13.7760 C.ar      1 DZC        -0.0104
     15 CAR        -9.8790  -15.2000   12.7320 C.3       1 DZC        -0.0260
     16 CAS       -12.7410  -14.5900   13.7200 C.2       1 DZC         0.2273
     17 CAV       -15.0280  -13.5200   13.4090 C.ar      1 DZC         0.0845
     18 CAW       -16.2870  -13.4990   13.9490 C.ar      1 DZC         0.0068
     19 CAX       -17.1610  -12.4620   13.7020 C.ar      1 DZC         0.0583
     20 CAY       -16.7570  -11.3980   12.9000 C.ar      1 DZC        -0.0286
     21 CAZ       -15.4620  -11.3670   12.3330 C.ar      1 DZC         0.0216
     22 NAB        -2.6440  -17.5390   14.9320 N.2       1 DZC        -0.2936
     23 NAE        -5.0770  -17.5770   13.7130 N.pl3     1 DZC        -0.1842
     24 NAG        -4.3600  -17.9740   11.5190 N.2       1 DZC        -0.3201
     25 NAT       -14.1840  -14.6380   13.7570 N.am      1 DZC        -0.2311
     26 OAU       -12.1650  -13.5660   13.3940 O.2       1 DZC        -0.3771
     27 CBA       -14.6010  -12.4520   12.6120 C.ar      1 DZC        -0.0240
     28 CBB       -15.0100  -10.2060   11.4640 C.3       1 DZC         0.3691
     29 CBD       -18.6110  -11.3470   14.8710 C.3       1 DZC         0.0671
     30 CBE       -19.0880  -11.5630   16.2850 C.3       1 DZC        -0.0120
     31 CBG       -18.6470  -13.6940   16.2660 C.3       1 DZC        -0.0120
     32 CBH       -18.7970  -13.5590   14.7510 C.3       1 DZC         0.0671
     33 CBI       -18.7270  -12.6120   18.1190 C.3       1 DZC        -0.0430
     34 NBC       -18.3920  -12.4420   14.2130 N.pl3     1 DZC        -0.2961
     35 NBF       -18.4230  -12.5380   16.8550 N.4       1 DZC         0.2358
     36 FBJ       -14.2820   -9.3660   12.2140 F         1 DZC        -0.2217
     37 FBK       -16.0900   -9.5650   10.9930 F         1 DZC        -0.2217
     38 FBL       -14.2550  -10.6540   10.4490 F         1 DZC        -0.2217
     39 H1         -3.7539  -17.1775   16.7283 H         1 DZC         0.0731
     40 H2         -1.7586  -17.8991   13.0107 H         1 DZC         0.0987
     41 H3         -5.9874  -17.2182   15.5762 H         1 DZC         0.1197
     42 H4         -6.3924  -17.9067   10.9576 H         1 DZC         0.0577
     43 H5         -9.9142  -18.7873   15.6507 H         1 DZC         0.0631
     44 H6        -12.2255  -18.3423   16.4232 H         1 DZC         0.0569
     45 H7        -13.4831  -16.4127   15.5136 H         1 DZC         0.0638
     46 H8         -8.8651  -15.5981   12.5787 H         1 DZC         0.0409
     47 H9         -9.8152  -14.1579   13.0784 H         1 DZC         0.0409
     48 H10       -10.4350  -15.2378   11.7836 H         1 DZC         0.0409
     49 H11       -16.6034  -14.3173   14.5856 H         1 DZC         0.0663
     50 H12       -17.4445  -10.5823   12.7076 H         1 DZC         0.0624
     51 H13       -14.6219  -15.4917   14.0389 H         1 DZC         0.2250
     52 H14       -13.5969  -12.4571   12.2035 H         1 DZC         0.0623
     53 H15       -17.6738  -10.7722   14.9066 H         1 DZC         0.0566
     54 H16       -19.3761  -10.7680   14.3330 H         1 DZC         0.0566
     55 H17       -20.1583  -11.8165   16.2702 H         1 DZC         0.0834
     56 H18       -18.9381  -10.6384   16.8618 H         1 DZC         0.0834
     57 H19       -17.8037  -14.3675   16.4785 H         1 DZC         0.0834
     58 H20       -19.5726  -14.1250   16.6752 H         1 DZC         0.0834
     59 H21       -19.8644  -13.6747   14.5116 H         1 DZC         0.0566
     60 H22       -18.2263  -14.3769   14.2869 H         1 DZC         0.0566
     61 H23       -18.5357  -11.6412   18.5995 H         1 DZC         0.0778
     62 H24       -18.1112  -13.3866   18.5995 H         1 DZC         0.0778
     63 H25       -19.7908  -12.8707   18.2258 H         1 DZC         0.0778
     64 H26       -17.4393  -12.3327   16.7763 H         1 DZC         0.2032
@<TRIPOS>BOND
     1    4    1 2  
     2    1   22 1  
     3    3    2 1  
     4    2   22 2  
     5   23    3 1  
     6    3   24 2  
     7   23    4 1  
     8    6    5 2  
     9    5   24 1  
    10    7    6 1  
    11    6   23 1  
    12    8    7 3  
    13    9    8 1  
    14    9   10 ar 
    15   14    9 ar 
    16   11   10 ar 
    17   12   11 ar 
    18   13   12 ar 
    19   13   14 ar 
    20   16   13 1  
    21   14   15 1  
    22   25   16 am 
    23   16   26 2  
    24   18   17 ar 
    25   17   25 1  
    26   17   27 ar 
    27   19   18 ar 
    28   19   20 ar 
    29   34   19 1  
    30   20   21 ar 
    31   21   27 ar 
    32   21   28 1  
    33   28   36 1  
    34   28   37 1  
    35   28   38 1  
    36   30   29 1  
    37   29   34 1  
    38   35   30 1  
    39   31   32 1  
    40   31   35 1  
    41   32   34 1  
    42   35   33 1  
    43    1   39 1  
    44    2   40 1  
    45    4   41 1  
    46    5   42 1  
    47   10   43 1  
    48   11   44 1  
    49   12   45 1  
    50   15   46 1  
    51   15   47 1  
    52   15   48 1  
    53   18   49 1  
    54   20   50 1  
    55   25   51 1  
    56   27   52 1  
    57   29   53 1  
    58   29   54 1  
    59   30   55 1  
    60   30   56 1  
    61   31   57 1  
    62   31   58 1  
    63   32   59 1  
    64   32   60 1  
    65   33   61 1  
    66   33   62 1  
    67   33   63 1  
    68   35   64 1  
@<TRIPOS>SUBSTRUCTURE
     1 DZC         1

