### 
### Created by X-TOOL on Mon Aug  2 16:14:42 2021
### 

@<TRIPOS>MOLECULE
6kzd_ligand
   86    91     1     0     0
SMALL
GAST_HUCK


@<TRIPOS>ATOM
      1 CBN       -18.6940  -13.2000   15.8530 C.3       1 DZ6         0.0665
      2 CBO       -18.5140  -12.5920   17.2460 C.3       1 DZ6        -0.0120
      3 NBP       -18.5430  -11.2520   17.2890 N.4       1 DZ6         0.2359
      4 CBS       -18.8290  -10.8470   18.4910 C.3       1 DZ6        -0.0430
      5 CBQ       -19.4160  -10.7490   16.4080 C.3       1 DZ6        -0.0120
      6 CBR       -19.1830  -11.2240   14.9710 C.3       1 DZ6         0.0665
      7 NBM       -18.4740  -12.3660   14.8160 N.pl3     1 DZ6        -0.3030
      8 CBE       -17.1930  -12.5040   13.7050 C.ar      1 DZ6         0.0196
      9 CBD       -16.2600  -13.5350   13.8930 C.ar      1 DZ6        -0.0323
     10 CBF       -16.8630  -11.5270   12.7630 C.ar      1 DZ6        -0.0583
     11 CBG       -15.6520  -11.5730   12.0600 C.ar      1 DZ6        -0.0653
     12 CBI       -15.3180  -10.5010   11.0520 C.3       1 DZ6        -0.0192
     13 CBK       -16.5440  -10.1550   10.2320 C.3       1 DZ6        -0.0533
     14 CBJ       -14.7610   -9.2920   11.7640 C.3       1 DZ6        -0.0533
     15 CBH       -14.7340  -12.6070   12.2710 C.ar      1 DZ6        -0.0534
     16 CBC       -15.0740  -13.5970   13.1790 C.ar      1 DZ6         0.0470
     17 NBA       -14.2360  -14.7150   13.5520 N.am      1 DZ6        -0.2388
     18 CAZ       -12.8240  -14.6040   13.5840 C.2       1 DZ6         0.2256
     19 OBB       -12.2260  -13.5690   13.3070 O.2       1 DZ6        -0.3770
     20 CAW       -12.0280  -15.7880   14.1300 C.ar      1 DZ6         0.0507
     21 CAX       -10.8100  -16.1420   13.6190 C.ar      1 DZ6        -0.0229
     22 CAY       -10.2100  -15.4690   12.4030 C.3       1 DZ6        -0.0299
     23 CAV       -12.5370  -16.4100   15.2600 C.ar      1 DZ6        -0.0550
     24 CAU       -11.8460  -17.4590   15.8920 C.ar      1 DZ6        -0.0698
     25 CAT       -10.6110  -17.8530   15.3730 C.ar      1 DZ6        -0.0624
     26 CAS       -10.1650  -17.2140   14.2290 C.ar      1 DZ6        -0.0336
     27 CAR        -8.8080  -17.5030   13.6890 C.3       1 DZ6        -0.0098
     28 CAQ        -7.5610  -17.6650   13.2150 C.3       1 DZ6         0.0137
     29 CAP        -6.1570  -17.8400   12.7350 C.2       1 DZ6         0.0805
     30 CAO        -5.5620  -18.1920   11.5110 C.2       1 DZ6        -0.0221
     31 NAN        -4.2320  -18.0960   11.7620 N.2       1 DZ6        -0.3380
     32 CAK        -4.0320  -17.6830   13.0600 C.2       1 DZ6         0.1647
     33 CAJ        -2.8110  -17.4380   13.7470 C.2       1 DZ6         0.0582
     34 NAI        -2.9080  -17.0350   15.0240 N.2       1 DZ6        -0.2955
     35 NAL        -5.1810  -17.5190   13.6420 N.pl3     1 DZ6        -0.1948
     36 CAM        -5.2730  -17.0950   14.9540 C.2       1 DZ6         0.0979
     37 CAH        -4.0920  -16.8640   15.6460 C.2       1 DZ6         0.0672
     38 CAD        -4.1080  -16.3450   17.0590 C.ar      1 DZ6        -0.0212
     39 CAC        -3.2530  -16.8050   18.0460 C.ar      1 DZ6        -0.0665
     40 CAB        -3.3270  -16.2300   19.3040 C.ar      1 DZ6        -0.0447
     41 CAA        -4.2300  -15.2010   19.5630 C.ar      1 DZ6         0.0353
     42 NAG        -4.3040  -14.6100   20.8580 N.pl3     1 DZ6        -0.3368
     43 CAF        -5.0680  -14.7380   18.5650 C.ar      1 DZ6        -0.0447
     44 CAE        -5.0000  -15.3070   17.3140 C.ar      1 DZ6        -0.0665
     45 H1        -19.7276  -13.5684   15.7764 H         1 DZ6         0.0566
     46 H2        -17.9958  -14.0449   15.7606 H         1 DZ6         0.0566
     47 H3        -17.5425  -12.9248   17.6403 H         1 DZ6         0.0834
     48 H4        -19.3207  -12.9713   17.8904 H         1 DZ6         0.0834
     49 H5        -17.6252  -10.9110   17.0492 H         1 DZ6         0.2032
     50 H6        -18.8495   -9.7474   18.5122 H         1 DZ6         0.0778
     51 H7        -18.0651  -11.2130   19.1928 H         1 DZ6         0.0778
     52 H8        -19.8143  -11.2378   18.7849 H         1 DZ6         0.0778
     53 H9        -19.3369   -9.6520   16.4283 H         1 DZ6         0.0834
     54 H10       -20.4293  -11.0493   16.7130 H         1 DZ6         0.0834
     55 H11       -18.6475  -10.4244   14.4383 H         1 DZ6         0.0566
     56 H12       -20.1683  -11.3778   14.5069 H         1 DZ6         0.0566
     57 H13       -16.4741  -14.3089   14.6212 H         1 DZ6         0.0339
     58 H14       -17.5577  -10.7170   12.5720 H         1 DZ6         0.0332
     59 H15       -14.5459  -10.8872   10.3703 H         1 DZ6         0.0451
     60 H16       -16.2880   -9.3733    9.5016 H         1 DZ6         0.0254
     61 H17       -17.3390   -9.7883   10.8979 H         1 DZ6         0.0254
     62 H18       -16.8951  -11.0521    9.7010 H         1 DZ6         0.0254
     63 H19       -13.8748   -9.5852   12.3460 H         1 DZ6         0.0254
     64 H20       -15.5245   -8.8809   12.4408 H         1 DZ6         0.0254
     65 H21       -14.4777   -8.5289   11.0241 H         1 DZ6         0.0254
     66 H22       -13.7882  -12.6330   11.7419 H         1 DZ6         0.0335
     67 H23       -14.6630  -15.5866   13.7929 H         1 DZ6         0.2246
     68 H24       -10.8679  -14.6508   12.0748 H         1 DZ6         0.0390
     69 H25       -10.1059  -16.2039   11.5912 H         1 DZ6         0.0390
     70 H26        -9.2203  -15.0632   12.6594 H         1 DZ6         0.0390
     71 H27       -13.4873  -16.0807   15.6645 H         1 DZ6         0.0592
     72 H28       -12.2630  -17.9511   16.7632 H         1 DZ6         0.0554
     73 H29       -10.0235  -18.6302   15.8482 H         1 DZ6         0.0572
     74 H30        -9.2380  -17.9392   12.7753 H         1 DZ6         0.0433
     75 H31        -8.6530  -18.2955   14.4359 H         1 DZ6         0.0433
     76 H32        -7.7139  -16.8422   12.5011 H         1 DZ6         0.0453
     77 H33        -7.8514  -18.6165   12.7456 H         1 DZ6         0.0453
     78 H34        -6.0527  -18.4749   10.5809 H         1 DZ6         0.0421
     79 H35        -1.8454  -17.5707   13.2613 H         1 DZ6         0.0976
     80 H36        -6.2412  -16.9468   15.4299 H         1 DZ6         0.1173
     81 H37        -2.5421  -17.5968   17.8391 H         1 DZ6         0.0575
     82 H38        -2.6758  -16.5841   20.0950 H         1 DZ6         0.0517
     83 H39        -4.9749  -13.8498   21.0396 H         1 DZ6         0.1724
     84 H40        -3.6866  -14.9431   21.6122 H         1 DZ6         0.1724
     85 H41        -5.7698  -13.9366   18.7658 H         1 DZ6         0.0517
     86 H42        -5.6452  -14.9447   16.5219 H         1 DZ6         0.0575
@<TRIPOS>BOND
     1    1    2 1  
     2    1    7 1  
     3    2    3 1  
     4    3    4 1  
     5    3    5 1  
     6    5    6 1  
     7    6    7 1  
     8    7    8 1  
     9    8    9 ar 
    10    8   10 ar 
    11    9   16 ar 
    12   10   11 ar 
    13   11   12 1  
    14   11   15 ar 
    15   12   13 1  
    16   12   14 1  
    17   15   16 ar 
    18   16   17 1  
    19   17   18 am 
    20   18   19 2  
    21   18   20 1  
    22   20   21 ar 
    23   20   23 ar 
    24   21   22 1  
    25   21   26 ar 
    26   23   24 ar 
    27   24   25 ar 
    28   25   26 ar 
    29   26   27 1  
    30   27   28 1  
    31   28   29 1  
    32   29   30 2  
    33   29   35 1  
    34   30   31 1  
    35   31   32 2  
    36   32   33 1  
    37   32   35 1  
    38   33   34 2  
    39   34   37 1  
    40   35   36 1  
    41   36   37 2  
    42   37   38 1  
    43   38   39 ar 
    44   38   44 ar 
    45   39   40 ar 
    46   40   41 ar 
    47   41   42 1  
    48   41   43 ar 
    49   43   44 ar 
    50    1   45 1  
    51    1   46 1  
    52    2   47 1  
    53    2   48 1  
    54    3   49 1  
    55    4   50 1  
    56    4   51 1  
    57    4   52 1  
    58    5   53 1  
    59    5   54 1  
    60    6   55 1  
    61    6   56 1  
    62    9   57 1  
    63   10   58 1  
    64   12   59 1  
    65   13   60 1  
    66   13   61 1  
    67   13   62 1  
    68   14   63 1  
    69   14   64 1  
    70   14   65 1  
    71   15   66 1  
    72   17   67 1  
    73   22   68 1  
    74   22   69 1  
    75   22   70 1  
    76   23   71 1  
    77   24   72 1  
    78   25   73 1  
    79   27   74 1  
    80   27   75 1  
    81   28   76 1  
    82   28   77 1  
    83   30   78 1  
    84   33   79 1  
    85   36   80 1  
    86   39   81 1  
    87   40   82 1  
    88   42   83 1  
    89   42   84 1  
    90   43   85 1  
    91   44   86 1  
@<TRIPOS>SUBSTRUCTURE
     1 DZ6         1

