### 
### Created by X-TOOL on Mon Aug  2 16:17:11 2021
### 

@<TRIPOS>MOLECULE
6m7h_ligand
   66    68     1     0     0
SMALL
GAST_HUCK


@<TRIPOS>ATOM
      1 C1          4.9980    6.0520  155.9000 C.3       1 KN9        -0.0420
      2 C10         5.2430   12.1820  159.5910 C.ar      1 KN9        -0.0597
      3 C11         6.3300    6.9100  157.7020 C.3       1 KN9        -0.0030
      4 C12         7.5040    5.9390  157.5690 C.ar      1 KN9         0.0191
      5 C13         7.3260    4.6090  157.9110 C.ar      1 KN9        -0.0708
      6 C14         8.3730    3.7120  157.7960 C.ar      1 KN9        -0.0858
      7 C15         9.6080    4.1290  157.3510 C.ar      1 KN9        -0.0849
      8 C16         9.7980    5.4570  157.0140 C.ar      1 KN9        -0.0514
      9 C17         8.7500    6.3620  157.1110 C.ar      1 KN9         0.0730
     10 C18         8.9890    8.2400  155.4010 C.3       1 KN9         0.0774
     11 C19        11.1590    8.3280  158.5470 C.ar      1 KN9         0.1028
     12 C2          4.7910    8.2980  156.5350 C.3       1 KN9        -0.0292
     13 C20        11.3380    7.5550  159.6870 C.ar      1 KN9        -0.0435
     14 C21        12.6210    7.1880  160.0850 C.ar      1 KN9        -0.0313
     15 C22        13.7240    7.5810  159.3520 C.ar      1 KN9         0.0908
     16 C23        13.5440    8.3530  158.2180 C.ar      1 KN9        -0.0313
     17 C24        12.2680    8.7130  157.8170 C.ar      1 KN9        -0.0435
     18 C26        16.0320    7.4040  158.8280 C.3       1 KN9         0.0594
     19 C27         8.1550    7.3380  154.4990 C.3       1 KN9         0.0670
     20 C3          5.5400    9.5920  156.8340 C.3       1 KN9        -0.0027
     21 C4          4.8190   10.2830  157.9860 C.3       1 KN9        -0.0142
     22 C5          5.6080   11.5100  158.4330 C.ar      1 KN9        -0.0425
     23 C6          6.6770   11.9590  157.6860 C.ar      1 KN9        -0.0597
     24 C7          7.3820   13.0770  158.1050 C.ar      1 KN9        -0.0546
     25 C8          7.0200   13.7480  159.2640 C.ar      1 KN9         0.0330
     26 C9          5.9430   13.3000  160.0160 C.ar      1 KN9        -0.0546
     27 N1          5.7310    7.1990  156.4060 N.4       1 KN9         0.2429
     28 N2          9.0240    7.7400  156.7650 N.am      1 KN9        -0.1755
     29 O1          7.0850    7.7160  154.1570 O.3       1 KN9        -0.3929
     30 O2          9.3400   10.3380  157.5110 O.2       1 KN9        -0.1461
     31 O25        15.0120    7.2130  159.7690 O.3       1 KN9        -0.3212
     32 O3          8.4890    8.5310  159.3400 O.2       1 KN9        -0.1461
     33 S           9.4750    8.7800  158.0380 S.o2      1 KN9         0.0857
     34 CL          7.9530   15.1870  159.7660 Cl        1 KN9        -0.0771
     35 H1          5.6831    5.1985  155.7901 H         1 KN9         0.0778
     36 H2          4.5602    6.2991  154.9216 H         1 KN9         0.0778
     37 H3          4.1955    5.7895  156.6050 H         1 KN9         0.0778
     38 H4          4.3987   11.8275  160.1711 H         1 KN9         0.0557
     39 H5          6.6906    7.8490  158.1471 H         1 KN9         0.0945
     40 H6          5.5678    6.4627  158.3569 H         1 KN9         0.0945
     41 H7          6.3616    4.2690  158.2706 H         1 KN9         0.0509
     42 H8          8.2200    2.6715  158.0585 H         1 KN9         0.0453
     43 H9         10.4250    3.4217  157.2655 H         1 KN9         0.0515
     44 H10        10.7704    5.7927  156.6724 H         1 KN9         0.0458
     45 H11         8.5514    9.2492  155.4010 H         1 KN9         0.0574
     46 H12        10.0162    8.2857  155.0102 H         1 KN9         0.0574
     47 H13         4.2306    8.4102  155.5952 H         1 KN9         0.0816
     48 H14         4.0910    8.0841  157.3561 H         1 KN9         0.0816
     49 H15        10.4790    7.2374  160.2669 H         1 KN9         0.0608
     50 H16        12.7554    6.5885  160.9781 H         1 KN9         0.0542
     51 H17        14.4034    8.6768  157.6421 H         1 KN9         0.0542
     52 H18        12.1372    9.3048  156.9183 H         1 KN9         0.0608
     53 H19        16.9925    7.0842  159.2584 H         1 KN9         0.0577
     54 H20        16.0875    8.4690  158.5584 H         1 KN9         0.0577
     55 H21        15.8171    6.8087  157.9283 H         1 KN9         0.0577
     56 H22         8.0084    6.3886  155.0348 H         1 KN9         0.0579
     57 H23         8.7427    7.1574  153.5869 H         1 KN9         0.0579
     58 H24         5.5375   10.2412  155.9460 H         1 KN9         0.0339
     59 H25         6.5778    9.3675  157.1212 H         1 KN9         0.0339
     60 H26         4.7250    9.5831  158.8294 H         1 KN9         0.0429
     61 H27         3.8175   10.5946  157.6546 H         1 KN9         0.0429
     62 H28         6.9640   11.4415  156.7778 H         1 KN9         0.0557
     63 H29         8.2243   13.4302  157.5212 H         1 KN9         0.0606
     64 H30         5.6533   13.8175  160.9234 H         1 KN9         0.0606
     65 H31         6.4590    7.4473  155.7545 H         1 KN9         0.2042
     66 H32         6.6805    7.0589  153.6029 H         1 KN9         0.2095
@<TRIPOS>BOND
     1   27    1 1  
     2   22    2 ar 
     3    2   26 ar 
     4    4    3 1  
     5    3   27 1  
     6    4    5 ar 
     7    9    4 ar 
     8    5    6 ar 
     9    7    6 ar 
    10    8    7 ar 
    11    9    8 ar 
    12   28    9 1  
    13   10   19 1  
    14   28   10 1  
    15   11   13 ar 
    16   11   17 ar 
    17   33   11 1  
    18   12   20 1  
    19   27   12 1  
    20   13   14 ar 
    21   14   15 ar 
    22   16   15 ar 
    23   15   31 1  
    24   17   16 ar 
    25   31   18 1  
    26   19   29 1  
    27   20   21 1  
    28   21   22 1  
    29   22   23 ar 
    30   23   24 ar 
    31   24   25 ar 
    32   26   25 ar 
    33   25   34 1  
    34   28   33 am 
    35   33   30 2  
    36   33   32 2  
    37    1   35 1  
    38    1   36 1  
    39    1   37 1  
    40    2   38 1  
    41    3   39 1  
    42    3   40 1  
    43    5   41 1  
    44    6   42 1  
    45    7   43 1  
    46    8   44 1  
    47   10   45 1  
    48   10   46 1  
    49   12   47 1  
    50   12   48 1  
    51   13   49 1  
    52   14   50 1  
    53   16   51 1  
    54   17   52 1  
    55   18   53 1  
    56   18   54 1  
    57   18   55 1  
    58   19   56 1  
    59   19   57 1  
    60   20   58 1  
    61   20   59 1  
    62   21   60 1  
    63   21   61 1  
    64   23   62 1  
    65   24   63 1  
    66   26   64 1  
    67   27   65 1  
    68   29   66 1  
@<TRIPOS>SUBSTRUCTURE
     1 KN9         1

