### 
### Created by X-TOOL on Mon Aug  2 16:14:42 2021
### 

@<TRIPOS>MOLECULE
6m7i_ligand
   26    28     1     0     0
SMALL
GAST_HUCK


@<TRIPOS>ATOM
      1 C14         7.8310   28.7100   30.3830 C.2       1 J84         0.1146
      2 C12         7.9380   27.6580   32.6070 C.2       1 J84        -0.0086
      3 C11         7.2640   28.0500   31.4610 C.2       1 J84         0.0464
      4 C01         2.5060   26.8670   34.1200 C.ar      1 J84        -0.0525
      5 C02         3.6610   27.3970   33.5690 C.ar      1 J84        -0.0256
      6 C03         4.7440   26.5690   33.3190 C.ar      1 J84         0.1253
      7 C04         4.6730   25.2170   33.6330 C.ar      1 J84         0.0750
      8 C05         3.5170   24.6910   34.1830 C.ar      1 J84        -0.0386
      9 C06         2.4380   25.5180   34.4280 C.ar      1 J84         0.0329
     10 C10         5.9400   27.6700   31.6150 C.2       1 J84         0.1895
     11 N09         5.8460   27.0780   32.7970 N.pl3     1 J84        -0.1379
     12 N13         7.0670   27.0710   33.4040 N.2       1 J84        -0.2221
     13 N15         7.2150   29.0410   29.2620 N.2       1 J84        -0.1741
     14 N16         8.1080   29.6800   28.4540 N.pl3     1 J84        -0.1174
     15 N17         9.2900   29.7240   29.1290 N.2       1 J84        -0.0598
     16 N18         9.0860   29.1140   30.3310 N.2       1 J84        -0.1895
     17 N19         4.8670   27.8760   30.6580 N.pl3     1 J84        -0.3014
     18 CL07        0.9520   24.8370   35.1390 Cl        1 J84        -0.0777
     19 CL08        6.0610   24.1380   33.3260 Cl        1 J84        -0.0746
     20 H1          8.9969   27.8079   32.8123 H         1 J84         0.0636
     21 H2          1.6536   27.5090   34.3106 H         1 J84         0.0606
     22 H3          3.7176   28.4538   33.3345 H         1 J84         0.0580
     23 H4          3.4586   23.6349   34.4204 H         1 J84         0.0610
     24 H5          7.9240   30.0572   27.5134 H         1 J84         0.2879
     25 H6          5.0580   28.3519   29.7647 H         1 J84         0.1825
     26 H7          3.9151   27.5462   30.8726 H         1 J84         0.1825
@<TRIPOS>BOND
     1    3    1 1  
     2    1   13 2  
     3    1   16 1  
     4    3    2 1  
     5    2   12 2  
     6   10    3 2  
     7    5    4 ar 
     8    4    9 ar 
     9    6    5 ar 
    10    6    7 ar 
    11   11    6 1  
    12    7    8 ar 
    13    7   19 1  
    14    8    9 ar 
    15    9   18 1  
    16   10   11 1  
    17   10   17 1  
    18   11   12 1  
    19   13   14 1  
    20   14   15 1  
    21   15   16 2  
    22    2   20 1  
    23    4   21 1  
    24    5   22 1  
    25    8   23 1  
    26   14   24 1  
    27   17   25 1  
    28   17   26 1  
@<TRIPOS>SUBSTRUCTURE
     1 J84         1

