### 
### Created by X-TOOL on Mon Aug  2 16:14:43 2021
### 

@<TRIPOS>MOLECULE
6m87_ligand
   39    42     1     0     0
SMALL
GAST_HUCK


@<TRIPOS>ATOM
      1 OAJ        37.7130  -30.9880  -23.0590 O.co2     1 MOL        -0.4804
      2 SBD        36.6910  -31.5230  -23.9310 S.o2      1 MOL        -0.1649
      3 OAC        35.4930  -30.6620  -23.9900 O.co2     1 MOL        -0.4804
      4 OAD        36.3570  -32.9140  -23.7170 O.co2     1 MOL        -0.4804
      5 CAT        37.2780  -31.3850  -25.5960 C.ar      1 MOL         0.0552
      6 CAM        37.2440  -32.5260  -26.3690 C.ar      1 MOL        -0.0228
      7 CAS        37.7010  -32.5150  -27.6710 C.ar      1 MOL         0.0552
      8 SBC        37.5910  -34.0320  -28.5680 S.o2      1 MOL        -0.1648
      9 OAA        38.9310  -34.4610  -28.9000 O.co2     1 MOL        -0.4804
     10 OAB        36.8230  -33.6100  -29.7730 O.co2     1 MOL        -0.4804
     11 OAI        36.8230  -34.9220  -27.7290 O.co2     1 MOL        -0.4804
     12 CAW        38.2280  -31.3180  -28.2510 C.ar      1 MOL        -0.0010
     13 CAO        38.7250  -31.2550  -29.5800 C.ar      1 MOL        -0.0573
     14 CAP        39.2220  -30.1110  -30.1000 C.ar      1 MOL        -0.0582
     15 CAX        37.7830  -30.1560  -26.1270 C.ar      1 MOL        -0.0008
     16 CBA        38.2620  -30.1370  -27.4660 C.ar      1 MOL        -0.0033
     17 CBB        38.7850  -28.9310  -28.0160 C.ar      1 MOL        -0.0048
     18 CAY        39.2740  -28.9090  -29.3480 C.ar      1 MOL        -0.0022
     19 CAQ        37.8340  -28.9510  -25.3780 C.ar      1 MOL        -0.0566
     20 CAR        38.3290  -27.8080  -25.9030 C.ar      1 MOL        -0.0551
     21 CAZ        38.8250  -27.7570  -27.2320 C.ar      1 MOL         0.0197
     22 CAV        39.3680  -26.5700  -27.7980 C.ar      1 MOL         0.1102
     23 OBF        39.3940  -25.5020  -26.9570 O.3       1 MOL        -0.3136
     24 CAG        39.9830  -24.2940  -27.4310 C.3       1 MOL         0.0624
     25 CAN        39.8420  -26.5450  -29.0890 C.ar      1 MOL        -0.0038
     26 CAU        39.8040  -27.6860  -29.8650 C.ar      1 MOL         0.0550
     27 SBE        40.4380  -27.5710  -31.5120 S.o2      1 MOL        -0.1632
     28 OAK        41.5440  -28.4960  -31.6190 O.co2     1 MOL        -0.4795
     29 OAE        39.3390  -27.8040  -32.4220 O.co2     1 MOL        -0.4795
     30 OAF        40.8960  -26.1580  -31.5500 O.co2     1 MOL        -0.4795
     31 H1         36.8526  -33.4450  -25.9480 H         1 MOL         0.0638
     32 H2         38.7051  -32.1484  -30.1936 H         1 MOL         0.0573
     33 H3         39.5909  -30.1117  -31.1193 H         1 MOL         0.0615
     34 H4         37.4663  -28.9475  -24.3583 H         1 MOL         0.0573
     35 H5         38.3476  -26.9103  -25.2956 H         1 MOL         0.0626
     36 H6         39.9300  -23.5270  -26.6443 H         1 MOL         0.0585
     37 H7         39.4384  -23.9450  -28.3207 H         1 MOL         0.0585
     38 H8         41.0353  -24.4776  -27.6937 H         1 MOL         0.0585
     39 H9         40.2467  -25.6264  -29.4983 H         1 MOL         0.0577
@<TRIPOS>BOND
     1    1    2 ar 
     2    2    3 ar 
     3    2    4 ar 
     4    2    5 1  
     5    5    6 ar 
     6    5   15 ar 
     7    6    7 ar 
     8    7    8 1  
     9    7   12 ar 
    10    8    9 ar 
    11    8   10 ar 
    12    8   11 ar 
    13   12   13 ar 
    14   12   16 ar 
    15   13   14 ar 
    16   14   18 ar 
    17   15   16 ar 
    18   15   19 ar 
    19   16   17 ar 
    20   17   18 ar 
    21   17   21 ar 
    22   18   26 ar 
    23   19   20 ar 
    24   20   21 ar 
    25   21   22 ar 
    26   22   23 1  
    27   22   25 ar 
    28   23   24 1  
    29   25   26 ar 
    30   26   27 1  
    31   27   28 ar 
    32   27   29 ar 
    33   27   30 ar 
    34    6   31 1  
    35   13   32 1  
    36   14   33 1  
    37   19   34 1  
    38   20   35 1  
    39   24   36 1  
    40   24   37 1  
    41   24   38 1  
    42   25   39 1  
@<TRIPOS>SUBSTRUCTURE
     1 MOL         1

