### 
### Created by X-TOOL on Mon Aug  2 16:14:43 2021
### 

@<TRIPOS>MOLECULE
6m88_ligand
   35    37     1     0     0
SMALL
GAST_HUCK


@<TRIPOS>ATOM
      1 C1          7.2280   24.7200   21.8900 C.ar      1 MYC        -0.0097
      2 C2          6.2850   25.7450   21.7950 C.ar      1 MYC         0.0926
      3 C3          5.8140   26.3820   23.0290 C.ar      1 MYC         0.0813
      4 C4          6.3330   25.8920   24.3140 C.ar      1 MYC         0.0992
      5 C5          7.2510   24.8590   24.3310 C.ar      1 MYC        -0.0092
      6 C6          7.7010   24.2890   23.1380 C.ar      1 MYC         0.0765
      7 C9          4.8220   27.4650   23.0280 C.2       1 MYC         0.1474
      8 C10         4.4090   28.0440   24.3170 C.3       1 MYC         0.1619
      9 C11         5.0150   27.5000   25.5710 C.3       1 MYC         0.1475
     10 C14         4.6630   27.9460   26.9450 C.ar      1 MYC        -0.0325
     11 C15         4.9640   27.0280   27.9670 C.ar      1 MYC        -0.0479
     12 C16         4.6640   27.2870   29.2880 C.ar      1 MYC         0.1015
     13 C17         3.9970   28.5670   29.6280 C.ar      1 MYC         0.1362
     14 C18         3.6860   29.4990   28.5270 C.ar      1 MYC         0.1015
     15 C19         4.0150   29.1570   27.2260 C.ar      1 MYC        -0.0479
     16 O12         5.9140   26.4660   25.4790 O.3       1 MYC        -0.2989
     17 O13         4.3610   27.8910   21.9640 O.2       1 MYC        -0.3939
     18 O23         3.0710   30.6800   28.7940 O.3       1 MYC        -0.3417
     19 O24         3.6740   28.9010   30.8980 O.3       1 MYC        -0.3466
     20 O25         4.9980   26.3570   30.2150 O.3       1 MYC        -0.3417
     21 O27         3.5220   29.0570   24.2800 O.3       1 MYC        -0.3689
     22 O29         8.6300   23.2930   23.2070 O.3       1 MYC        -0.3349
     23 O30         5.7940   26.1850   20.6150 O.3       1 MYC        -0.3326
     24 H1          7.5999   24.2506   20.9864 H         1 MYC         0.0390
     25 H2          7.6250   24.4880   25.2784 H         1 MYC         0.0390
     26 H3          3.5840   27.3219   24.4058 H         1 MYC         0.0864
     27 H4          5.8161   28.2518   25.5161 H         1 MYC         0.0846
     28 H5          5.4449   26.0913   27.7094 H         1 MYC         0.0365
     29 H6          3.7686   29.8335   26.4156 H         1 MYC         0.0365
     30 H7          2.9198   30.7527   29.7291 H         1 MYC         0.2436
     31 H8          3.9376   28.2020   31.4849 H         1 MYC         0.2377
     32 H9          4.2141   26.0640   30.6647 H         1 MYC         0.2436
     33 H10         3.2771   29.2292   23.3784 H         1 MYC         0.2135
     34 H11         9.4136   23.6212   23.6323 H         1 MYC         0.2497
     35 H12         6.0040   27.1054   20.5094 H         1 MYC         0.2506
@<TRIPOS>BOND
     1    1    2 ar 
     2    1    6 ar 
     3    2    3 ar 
     4    2   23 1  
     5    3    4 ar 
     6    3    7 1  
     7    4    5 ar 
     8    4   16 1  
     9    5    6 ar 
    10    6   22 1  
    11    7    8 1  
    12    7   17 2  
    13    8    9 1  
    14    8   21 1  
    15    9   10 1  
    16    9   16 1  
    17   10   11 ar 
    18   10   15 ar 
    19   11   12 ar 
    20   12   13 ar 
    21   12   20 1  
    22   13   14 ar 
    23   13   19 1  
    24   14   15 ar 
    25   14   18 1  
    26    1   24 1  
    27    5   25 1  
    28    8   26 1  
    29    9   27 1  
    30   11   28 1  
    31   15   29 1  
    32   18   30 1  
    33   19   31 1  
    34   20   32 1  
    35   21   33 1  
    36   22   34 1  
    37   23   35 1  
@<TRIPOS>SUBSTRUCTURE
     1 MYC         1

