### 
### Created by X-TOOL on Mon Aug  2 16:14:43 2021
### 

@<TRIPOS>MOLECULE
6m89_ligand
   34    36     1     0     0
SMALL
GAST_HUCK


@<TRIPOS>ATOM
      1 C1          7.2430   24.7990   21.9110 C.ar      1 QUE        -0.0097
      2 C2          6.2950   25.8150   21.8110 C.ar      1 QUE         0.0926
      3 C3          5.7980   26.4720   23.0290 C.ar      1 QUE         0.0813
      4 C4          6.3320   26.0020   24.3150 C.ar      1 QUE         0.0992
      5 C5          7.2720   24.9840   24.3270 C.ar      1 QUE        -0.0092
      6 C6          7.7170   24.3920   23.1490 C.ar      1 QUE         0.0765
      7 C9          4.7930   27.5570   23.0250 C.2       1 QUE         0.1474
      8 C10         4.3800   28.1430   24.3190 C.3       1 QUE         0.1620
      9 C11         4.9860   27.5970   25.5780 C.3       1 QUE         0.1496
     10 C14         4.6640   28.0640   26.9570 C.ar      1 QUE        -0.0245
     11 C15         4.0870   29.3170   27.2370 C.ar      1 QUE        -0.0770
     12 C16         3.7940   29.7070   28.5430 C.ar      1 QUE        -0.0481
     13 C17         4.0660   28.8550   29.6030 C.ar      1 QUE         0.1088
     14 C18         4.6640   27.5180   29.3200 C.ar      1 QUE         0.1099
     15 C19         4.9410   27.1710   28.0070 C.ar      1 QUE        -0.0370
     16 O12         5.9030   26.5660   25.4860 O.3       1 QUE        -0.2988
     17 O13         4.3250   27.9690   21.9500 O.2       1 QUE        -0.3939
     18 O23         4.9500   26.6300   30.3110 O.3       1 QUE        -0.3385
     19 O24         3.7760   29.2520   30.8660 O.3       1 QUE        -0.3414
     20 O27         3.4740   29.1470   24.2920 O.3       1 QUE        -0.3689
     21 O29         8.6410   23.3910   23.2110 O.3       1 QUE        -0.3349
     22 O30         5.8350   26.1960   20.6110 O.3       1 QUE        -0.3326
     23 H1          7.6141   24.3215   21.0114 H         1 QUE         0.0390
     24 H2          7.6696   24.6411   25.2754 H         1 QUE         0.0390
     25 H3          3.5614   27.4135   24.4067 H         1 QUE         0.0864
     26 H4          5.7854   28.3493   25.5082 H         1 QUE         0.0847
     27 H5          3.8657   29.9934   26.4194 H         1 QUE         0.0437
     28 H6          3.3523   30.6790   28.7305 H         1 QUE         0.0492
     29 H7          5.3752   26.2023   27.7877 H         1 QUE         0.0451
     30 H8          4.7074   27.0043   31.1498 H         1 QUE         0.2442
     31 H9          3.4047   30.1262   30.8446 H         1 QUE         0.2420
     32 H10         3.2297   29.3274   23.3918 H         1 QUE         0.2135
     33 H11         9.4319   23.7168   23.6244 H         1 QUE         0.2497
     34 H12         6.0324   27.1152   20.4747 H         1 QUE         0.2506
@<TRIPOS>BOND
     1    1    2 ar 
     2    1    6 ar 
     3    2    3 ar 
     4    2   22 1  
     5    3    4 ar 
     6    3    7 1  
     7    4    5 ar 
     8    4   16 1  
     9    5    6 ar 
    10    6   21 1  
    11    7    8 1  
    12    7   17 2  
    13    8    9 1  
    14    8   20 1  
    15    9   10 1  
    16    9   16 1  
    17   10   11 ar 
    18   10   15 ar 
    19   11   12 ar 
    20   12   13 ar 
    21   13   14 ar 
    22   13   19 1  
    23   14   15 ar 
    24   14   18 1  
    25    1   23 1  
    26    5   24 1  
    27    8   25 1  
    28    9   26 1  
    29   11   27 1  
    30   12   28 1  
    31   15   29 1  
    32   18   30 1  
    33   19   31 1  
    34   20   32 1  
    35   21   33 1  
    36   22   34 1  
@<TRIPOS>SUBSTRUCTURE
     1 QUE         1

