### 
### Created by X-TOOL on Mon Aug  2 16:14:43 2021
### 

@<TRIPOS>MOLECULE
6m8a_ligand
   31    33     1     0     0
SMALL
GAST_HUCK


@<TRIPOS>ATOM
      1 C1          7.3980   25.0870   24.7030 C.ar      1 LU2        -0.0033
      2 O1          8.8920   23.5200   23.6840 O.3       1 LU2        -0.3351
      3 C2          7.8890   24.4390   23.5630 C.ar      1 LU2         0.0775
      4 O2          5.8440   25.8750   20.8930 O.3       1 LU2        -0.3326
      5 C3          7.3760   24.7010   22.2880 C.ar      1 LU2        -0.0086
      6 O3          4.1970   27.5690   22.0830 O.2       1 LU2        -0.4275
      7 C4          6.3470   25.6170   22.1110 C.ar      1 LU2         0.0935
      8 O4          5.8620   26.6910   25.6740 O.3       1 LU2        -0.2433
      9 C5          5.7990   26.3280   23.2790 C.ar      1 LU2         0.0767
     10 O5          4.4920   27.2660   30.4060 O.3       1 LU2        -0.3356
     11 C6          6.3690   26.0210   24.5980 C.ar      1 LU2         0.1290
     12 O6          3.3630   29.9020   30.5770 O.3       1 LU2        -0.3321
     13 C7          4.6980   27.3240   23.1920 C.2       1 LU2         0.0969
     14 C8          4.2450   27.9480   24.3570 C.2       1 LU2         0.0024
     15 C9          4.8280   27.6180   25.5920 C.2       1 LU2         0.1329
     16 C10         4.4130   28.2400   26.8800 C.ar      1 LU2         0.0117
     17 C11         4.6260   27.4970   28.0480 C.ar      1 LU2        -0.0240
     18 C12         4.2880   28.0150   29.2880 C.ar      1 LU2         0.1223
     19 C13         3.7100   29.3780   29.3670 C.ar      1 LU2         0.1233
     20 C14         3.5150   30.0940   28.1860 C.ar      1 LU2        -0.0339
     21 C15         3.8690   29.5340   26.9530 C.ar      1 LU2        -0.0626
     22 H1          7.8215   24.8604   25.6748 H         1 LU2         0.0401
     23 H2          9.1091   23.1750   22.8259 H         1 LU2         0.2494
     24 H3          5.1530   26.5226   20.9677 H         1 LU2         0.2503
     25 H4          7.7863   24.1832   21.4285 H         1 LU2         0.0403
     26 H5          4.2121   27.7565   31.1699 H         1 LU2         0.2443
     27 H6          3.0110   30.7756   30.4533 H         1 LU2         0.2472
     28 H7          3.4452   28.6854   24.3082 H         1 LU2         0.0375
     29 H8          5.0600   26.5059   27.9812 H         1 LU2         0.0550
     30 H9          3.0871   31.0893   28.2232 H         1 LU2         0.0530
     31 H10         3.7218   30.1051   26.0435 H         1 LU2         0.0553
@<TRIPOS>BOND
     1    1    3 ar 
     2   11    1 ar 
     3    3    2 1  
     4    3    5 ar 
     5    7    4 1  
     6    7    5 ar 
     7   13    6 2  
     8    9    7 ar 
     9    8   11 1  
    10   15    8 1  
    11   11    9 ar 
    12   13    9 1  
    13   18   10 1  
    14   19   12 1  
    15   14   13 1  
    16   15   14 2  
    17   16   15 1  
    18   17   16 ar 
    19   16   21 ar 
    20   18   17 ar 
    21   18   19 ar 
    22   19   20 ar 
    23   20   21 ar 
    24    1   22 1  
    25    2   23 1  
    26    4   24 1  
    27    5   25 1  
    28   10   26 1  
    29   12   27 1  
    30   14   28 1  
    31   17   29 1  
    32   20   30 1  
    33   21   31 1  
@<TRIPOS>SUBSTRUCTURE
     1 LU2         1

