### 
### Created by X-TOOL on Mon Aug  2 16:14:43 2021
### 

@<TRIPOS>MOLECULE
6m8b_ligand
   33    35     1     0     0
SMALL
GAST_HUCK


@<TRIPOS>ATOM
      1 C1          7.3430   24.7500   22.0190 C.ar      1 KMP        -0.0097
      2 C2          6.3810   25.7420   21.9050 C.ar      1 KMP         0.0926
      3 C3          5.8690   26.3850   23.1230 C.ar      1 KMP         0.0813
      4 C4          6.4080   25.9390   24.4200 C.ar      1 KMP         0.0992
      5 C5          7.3670   24.9420   24.4510 C.ar      1 KMP        -0.0092
      6 C6          7.8200   24.3560   23.2700 C.ar      1 KMP         0.0765
      7 C9          4.8490   27.4580   23.0990 C.2       1 KMP         0.1474
      8 C10         4.4160   28.0290   24.3860 C.3       1 KMP         0.1622
      9 C11         5.0230   27.5180   25.6530 C.3       1 KMP         0.1519
     10 C14         4.6720   27.9930   27.0230 C.ar      1 KMP        -0.0155
     11 C15         4.0460   29.2190   27.2890 C.ar      1 KMP        -0.0657
     12 C16         3.7440   29.5840   28.5990 C.ar      1 KMP        -0.0397
     13 C17         4.0510   28.7350   29.6510 C.ar      1 KMP         0.0805
     14 C18         4.6690   27.5140   29.4000 C.ar      1 KMP        -0.0397
     15 C19         4.9690   27.1410   28.0960 C.ar      1 KMP        -0.0657
     16 O12         5.9620   26.5130   25.5800 O.3       1 KMP        -0.2986
     17 O13         4.3470   27.8560   22.0290 O.2       1 KMP        -0.3939
     18 O24         3.7540   29.0950   30.9270 O.3       1 KMP        -0.3376
     19 O27         3.4940   29.0110   24.3360 O.3       1 KMP        -0.3689
     20 O29         8.7690   23.3850   23.3330 O.3       1 KMP        -0.3349
     21 O30         5.8920   26.1210   20.7080 O.3       1 KMP        -0.3326
     22 H1          7.7296   24.2743   21.1249 H         1 KMP         0.0390
     23 H2          7.7697   24.6136   25.4023 H         1 KMP         0.0390
     24 H3          3.6163   27.2789   24.4742 H         1 KMP         0.0864
     25 H4          5.8034   28.2900   25.5822 H         1 KMP         0.0849
     26 H5          3.7959   29.8858   26.4717 H         1 KMP         0.0531
     27 H6          3.2665   30.5368   28.7968 H         1 KMP         0.0525
     28 H7          4.9166   26.8532   30.2228 H         1 KMP         0.0525
     29 H8          5.4372   26.1819   27.9062 H         1 KMP         0.0531
     30 H9          3.3385   29.9494   30.9253 H         1 KMP         0.2458
     31 H10         3.2520   29.1709   23.4314 H         1 KMP         0.2135
     32 H11         8.9732   23.0859   22.4547 H         1 KMP         0.2497
     33 H12         6.0606   27.0467   20.5770 H         1 KMP         0.2506
@<TRIPOS>BOND
     1    1    2 ar 
     2    1    6 ar 
     3    2    3 ar 
     4    2   21 1  
     5    3    4 ar 
     6    3    7 1  
     7    4    5 ar 
     8    4   16 1  
     9    5    6 ar 
    10    6   20 1  
    11    7    8 1  
    12    7   17 2  
    13    8    9 1  
    14    8   19 1  
    15    9   10 1  
    16    9   16 1  
    17   10   11 ar 
    18   10   15 ar 
    19   11   12 ar 
    20   12   13 ar 
    21   13   14 ar 
    22   13   18 1  
    23   14   15 ar 
    24    1   22 1  
    25    5   23 1  
    26    8   24 1  
    27    9   25 1  
    28   11   26 1  
    29   12   27 1  
    30   14   28 1  
    31   15   29 1  
    32   18   30 1  
    33   19   31 1  
    34   20   32 1  
    35   21   33 1  
@<TRIPOS>SUBSTRUCTURE
     1 KMP         1

