### 
### Created by X-TOOL on Mon Aug  2 16:14:43 2021
### 

@<TRIPOS>MOLECULE
6m8c_ligand
   35    37     1     0     0
SMALL
GAST_HUCK


@<TRIPOS>ATOM
      1 C01         2.5230   31.2470   29.4130 C.3       1 IRH         0.0568
      2 O25         3.8340   30.7730   29.1120 O.3       1 IRH        -0.3251
      3 C16         4.0560   29.4890   28.7170 C.ar      1 IRH         0.1189
      4 C15         4.3900   29.1800   27.3990 C.ar      1 IRH        -0.0330
      5 C17         4.0170   28.5020   29.6960 C.ar      1 IRH         0.1168
      6 O24         3.7030   28.8870   30.9640 O.3       1 IRH        -0.3363
      7 C18         4.2730   27.1740   29.3630 C.ar      1 IRH        -0.0408
      8 C19         4.5880   26.8530   28.0390 C.ar      1 IRH        -0.0720
      9 C14         4.6480   27.8470   27.0410 C.ar      1 IRH        -0.0055
     10 C11         4.9770   27.4520   25.7370 C.2       1 IRH         0.1531
     11 O12         5.8690   26.4100   25.6680 O.3       1 IRH        -0.2591
     12 C4          6.3390   25.9040   24.4900 C.ar      1 IRH         0.1206
     13 C5          7.3050   24.9040   24.5410 C.ar      1 IRH        -0.0055
     14 C6          7.8120   24.3580   23.3710 C.ar      1 IRH         0.0766
     15 O29         8.7650   23.3830   23.4130 O.3       1 IRH        -0.3353
     16 C1          7.3370   24.8220   22.1510 C.ar      1 IRH        -0.0094
     17 C2          6.3720   25.8210   22.1110 C.ar      1 IRH         0.0929
     18 O30         5.9140   26.2470   20.9240 O.3       1 IRH        -0.3327
     19 C3          5.8370   26.3850   23.2760 C.ar      1 IRH         0.0812
     20 C9          4.8800   27.4080   23.2830 C.2       1 IRH         0.1453
     21 O13         4.4580   27.8810   22.2290 O.2       1 IRH        -0.4153
     22 C10         4.4930   27.9480   24.5160 C.2       1 IRH         0.1600
     23 O27         3.6180   28.9850   24.5140 O.3       1 IRH        -0.3400
     24 H1          2.5747   32.3052   29.7089 H         1 IRH         0.0573
     25 H2          2.0998   30.6557   30.2384 H         1 IRH         0.0573
     26 H3          1.8833   31.1458   28.5239 H         1 IRH         0.0573
     27 H4          4.4502   29.9652   26.6541 H         1 IRH         0.0495
     28 H5          3.7093   28.1277   31.5350 H         1 IRH         0.2450
     29 H6          4.2286   26.3996   30.1202 H         1 IRH         0.0514
     30 H7          4.7897   25.8211   27.7751 H         1 IRH         0.0495
     31 H8          7.6635   24.5495   25.5006 H         1 IRH         0.0393
     32 H9          8.9945   23.1277   22.5272 H         1 IRH         0.2494
     33 H10         7.7202   24.4035   21.2274 H         1 IRH         0.0396
     34 H11         5.2643   26.9263   21.0618 H         1 IRH         0.2504
     35 H12         3.9930   29.7133   24.0329 H         1 IRH         0.2421
@<TRIPOS>BOND
     1    1    2 1  
     2    2    3 1  
     3    3    4 ar 
     4    3    5 ar 
     5    4    9 ar 
     6    5    6 1  
     7    5    7 ar 
     8    7    8 ar 
     9    8    9 ar 
    10    9   10 1  
    11   10   11 1  
    12   10   22 2  
    13   11   12 1  
    14   12   13 ar 
    15   12   19 ar 
    16   13   14 ar 
    17   14   15 1  
    18   14   16 ar 
    19   16   17 ar 
    20   17   18 1  
    21   17   19 ar 
    22   19   20 1  
    23   20   21 2  
    24   20   22 1  
    25   22   23 1  
    26    1   24 1  
    27    1   25 1  
    28    1   26 1  
    29    4   27 1  
    30    6   28 1  
    31    7   29 1  
    32    8   30 1  
    33   13   31 1  
    34   15   32 1  
    35   16   33 1  
    36   18   34 1  
    37   23   35 1  
@<TRIPOS>SUBSTRUCTURE
     1 IRH         1

