### 
### Created by X-TOOL on Mon Aug  2 16:14:43 2021
### 

@<TRIPOS>MOLECULE
6m8d_ligand
   34    36     1     0     0
SMALL
GAST_HUCK


@<TRIPOS>ATOM
      1 C01         3.5030   31.5150   30.4830 C.3       1 J8D         0.0587
      2 O6          3.6550   30.0890   30.3600 O.3       1 J8D        -0.3202
      3 C13         3.9010   29.5670   29.1110 C.ar      1 J8D         0.1264
      4 C12         4.4200   28.2700   29.0870 C.ar      1 J8D         0.1225
      5 C11         4.7100   27.6280   27.8880 C.ar      1 J8D        -0.0240
      6 O5          4.6420   27.6560   30.2790 O.3       1 J8D        -0.3356
      7 C14         3.6580   30.2160   27.8900 C.ar      1 J8D        -0.0337
      8 C15         3.9470   29.5690   26.6810 C.ar      1 J8D        -0.0626
      9 C10         4.4690   28.2620   26.6610 C.ar      1 J8D         0.0117
     10 C9          4.7800   27.6000   25.4630 C.2       1 J8D         0.1329
     11 O4          5.7760   26.6590   25.5630 O.3       1 J8D        -0.2433
     12 C6          6.2140   25.9580   24.4650 C.ar      1 J8D         0.1290
     13 C1          7.2350   25.0220   24.6150 C.ar      1 J8D        -0.0033
     14 C2          7.7050   24.3140   23.5140 C.ar      1 J8D         0.0775
     15 O1          8.6990   23.3950   23.6390 O.3       1 J8D        -0.3351
     16 C3          7.1450   24.5490   22.2680 C.ar      1 J8D        -0.0086
     17 C4          6.1300   25.4810   22.1270 C.ar      1 J8D         0.0935
     18 O2          5.5950   25.7050   20.9050 O.3       1 J8D        -0.3326
     19 C5          5.6310   26.2040   23.2200 C.ar      1 J8D         0.0767
     20 C7          4.5990   27.1560   23.1060 C.2       1 J8D         0.0969
     21 O3          4.0130   27.3510   22.0420 O.2       1 J8D        -0.4275
     22 C8          4.1670   27.8480   24.2320 C.2       1 J8D         0.0024
     23 H1          3.3126   31.7740   31.5350 H         1 J8D         0.0577
     24 H2          2.6567   31.8483   29.8644 H         1 J8D         0.0577
     25 H3          4.4235   32.0125   30.1437 H         1 J8D         0.0577
     26 H4          5.1266   26.6273   27.9022 H         1 J8D         0.0550
     27 H5          4.3882   28.2378   30.9857 H         1 J8D         0.2443
     28 H6          3.2463   31.2188   27.8825 H         1 J8D         0.0531
     29 H7          3.7653   30.0842   25.7447 H         1 J8D         0.0553
     30 H8          7.6650   24.8448   25.5942 H         1 J8D         0.0401
     31 H9          8.8867   23.0155   22.7885 H         1 J8D         0.2494
     32 H10         7.5019   24.0025   21.4025 H         1 J8D         0.0403
     33 H11         4.9163   26.3662   20.9740 H         1 J8D         0.2503
     34 H12         3.3599   28.5751   24.1554 H         1 J8D         0.0375
@<TRIPOS>BOND
     1    1    2 1  
     2    2    3 1  
     3    3    4 ar 
     4    3    7 ar 
     5    4    5 ar 
     6    4    6 1  
     7    5    9 ar 
     8    7    8 ar 
     9    8    9 ar 
    10    9   10 1  
    11   10   11 1  
    12   10   22 2  
    13   11   12 1  
    14   12   13 ar 
    15   12   19 ar 
    16   13   14 ar 
    17   14   15 1  
    18   14   16 ar 
    19   16   17 ar 
    20   17   18 1  
    21   17   19 ar 
    22   19   20 1  
    23   20   21 2  
    24   20   22 1  
    25    1   23 1  
    26    1   24 1  
    27    1   25 1  
    28    5   26 1  
    29    6   27 1  
    30    7   28 1  
    31    8   29 1  
    32   13   30 1  
    33   15   31 1  
    34   16   32 1  
    35   18   33 1  
    36   22   34 1  
@<TRIPOS>SUBSTRUCTURE
     1 J8D         1

