### 
### Created by X-TOOL on Mon Aug  2 16:14:43 2021
### 

@<TRIPOS>MOLECULE
6m8e_ligand
   35    37     1     0     0
SMALL
GAST_HUCK


@<TRIPOS>ATOM
      1 C1          7.3080   24.7060   22.2530 C.ar      1 J8G        -0.0092
      2 C2          6.3180   25.6960   22.2570 C.ar      1 J8G         0.0929
      3 C3          5.8630   26.2850   23.4450 C.ar      1 J8G         0.0812
      4 C4          6.4550   25.8450   24.6370 C.ar      1 J8G         0.1206
      5 C5          7.4440   24.8580   24.6400 C.ar      1 J8G        -0.0053
      6 C6          7.8830   24.2820   23.4490 C.ar      1 J8G         0.0797
      7 C19         4.7560   26.9870   28.2620 C.ar      1 J8G        -0.0332
      8 C18         4.5250   27.4720   29.5480 C.ar      1 J8G         0.1158
      9 O23         4.4190   26.6340   30.6110 O.3       1 J8G        -0.3371
     10 C17         4.3940   28.8460   29.7820 C.ar      1 J8G         0.1166
     11 O24         4.1670   29.2600   31.0630 O.3       1 J8G        -0.3363
     12 C16         4.4950   29.7440   28.7230 C.ar      1 J8G        -0.0408
     13 C15         4.7300   29.2620   27.4330 C.ar      1 J8G        -0.0720
     14 C14         4.8470   27.8830   27.1890 C.ar      1 J8G        -0.0055
     15 C11         5.1020   27.3920   25.9050 C.2       1 J8G         0.1531
     16 O12         6.0570   26.4020   25.8310 O.3       1 J8G        -0.2591
     17 O29         8.8620   23.3180   23.4630 O.3       1 J8G        -0.3234
     18 C01         9.3280   22.3950   22.8110 C.3       1 J8G         0.0600
     19 O30         5.7510   26.1200   21.0960 O.3       1 J8G        -0.3327
     20 C9          4.8680   27.2850   23.4770 C.2       1 J8G         0.1453
     21 O13         4.3090   27.6920   22.4560 O.2       1 J8G        -0.4153
     22 C10         4.5170   27.8230   24.7090 C.2       1 J8G         0.1600
     23 O27         3.5590   28.7910   24.7280 O.3       1 J8G        -0.3400
     24 H1          7.6286   24.2674   21.3150 H         1 J8G         0.0397
     25 H2          7.8755   24.5360   25.5808 H         1 J8G         0.0393
     26 H3          4.8647   25.9218   28.0929 H         1 J8G         0.0495
     27 H4          4.2631   27.1416   31.3987 H         1 J8G         0.2442
     28 H5          4.8874   28.9826   31.6166 H         1 J8G         0.2450
     29 H6          4.3921   30.8088   28.8980 H         1 J8G         0.0514
     30 H7          4.8233   29.9608   26.6096 H         1 J8G         0.0495
     31 H8         10.1686   21.9459   23.3603 H         1 J8G         0.0579
     32 H9          9.6841   22.7739   21.8416 H         1 J8G         0.0579
     33 H10         8.5508   21.6346   22.6444 H         1 J8G         0.0579
     34 H11         5.9034   27.0520   20.9923 H         1 J8G         0.2504
     35 H12         3.8470   29.5303   24.2055 H         1 J8G         0.2421
@<TRIPOS>BOND
     1    2    1 ar 
     2    6    1 ar 
     3    3    2 ar 
     4    2   19 1  
     5    4    3 ar 
     6    3   20 1  
     7    4    5 ar 
     8   16    4 1  
     9    5    6 ar 
    10    6   17 1  
    11    7    8 ar 
    12   14    7 ar 
    13    8    9 1  
    14    8   10 ar 
    15   10   11 1  
    16   12   10 ar 
    17   13   12 ar 
    18   14   13 ar 
    19   15   14 1  
    20   15   16 1  
    21   15   22 2  
    22   17   18 1  
    23   20   21 2  
    24   20   22 1  
    25   22   23 1  
    26    1   24 1  
    27    5   25 1  
    28    7   26 1  
    29    9   27 1  
    30   11   28 1  
    31   12   29 1  
    32   13   30 1  
    33   18   31 1  
    34   18   32 1  
    35   18   33 1  
    36   19   34 1  
    37   23   35 1  
@<TRIPOS>SUBSTRUCTURE
     1 J8G         1

