### 
### Created by X-TOOL on Mon Aug  2 16:14:44 2021
### 

@<TRIPOS>MOLECULE
6m8q_ligand
   61    63     1     0     0
SMALL
GAST_HUCK


@<TRIPOS>ATOM
      1 C2         -6.9830  -33.9440  -30.9590 C.3       1 JBG         0.0092
      2 C3         -8.0900  -34.8910  -31.4870 C.3       1 JBG         0.0095
      3 C11       -12.8470  -32.0780  -32.7380 C.ar      1 JBG         0.1172
      4 C12       -12.5870  -30.7490  -32.3630 C.ar      1 JBG         0.0634
      5 C13       -13.5980  -29.7840  -32.3590 C.ar      1 JBG        -0.0438
      6 C14       -14.8860  -30.1380  -32.7920 C.ar      1 JBG         0.0687
      7 C15       -15.1540  -31.4920  -33.1590 C.ar      1 JBG         0.1158
      8 C16       -14.1240  -32.4510  -33.1850 C.ar      1 JBG         0.1015
      9 C20       -15.9790  -29.0900  -32.6990 C.2       1 JBG         0.1935
     10 C23       -18.4350  -28.5420  -32.6440 C.3       1 JBG         0.1029
     11 C24       -19.4950  -29.2370  -31.8250 C.2       1 JBG         0.0620
     12 C27       -18.9920  -27.9640  -33.9770 C.3       1 JBG         0.0158
     13 C28       -19.6060  -29.0060  -34.9300 C.ar      1 JBG        -0.0392
     14 C29       -20.9480  -29.4210  -34.7780 C.ar      1 JBG        -0.0602
     15 C30       -21.4920  -30.3640  -35.6670 C.ar      1 JBG        -0.0686
     16 N1         -6.5060  -33.0370  -32.0350 N.4       1 JBG         0.2405
     17 N4         -9.1640  -34.0690  -32.0820 N.4       1 JBG         0.2446
     18 C5         -8.7130  -33.1900  -33.2010 C.3       1 JBG         0.0095
     19 C6         -7.5930  -32.2430  -32.6830 C.3       1 JBG         0.0092
     20 C7        -10.4630  -34.7820  -32.2130 C.3       1 JBG        -0.0027
     21 C8        -11.5890  -33.8550  -31.6960 C.3       1 JBG         0.1115
     22 O9        -11.7890  -32.9760  -32.8070 O.3       1 JBG        -0.3102
     23 C10        -5.3400  -32.2390  -31.5890 C.3       1 JBG        -0.0427
     24 CL17      -14.3910  -34.1130  -33.7280 Cl        1 JBG        -0.0861
     25 CL18      -10.9710  -30.3130  -31.8860 Cl        1 JBG        -0.0869
     26 O19       -16.4220  -31.9070  -33.5510 O.3       1 JBG        -0.3291
     27 O21       -15.5990  -27.9510  -32.4890 O.2       1 JBG        -0.3956
     28 N22       -17.2890  -29.4390  -32.8080 N.am      1 JBG        -0.2722
     29 O25       -19.4070  -30.5740  -31.7520 O.co2     1 JBG        -0.5664
     30 O26       -20.3750  -28.5890  -31.2880 O.co2     1 JBG        -0.5664
     31 C31       -20.7190  -30.8630  -36.7340 C.ar      1 JBG        -0.0687
     32 C32       -19.3910  -30.4250  -36.9140 C.ar      1 JBG        -0.0686
     33 C33       -18.8400  -29.4970  -36.0090 C.ar      1 JBG        -0.0602
     34 H1         -6.1377  -34.5458  -30.5938 H         1 JBG         0.0868
     35 H2         -7.3881  -33.3413  -30.1328 H         1 JBG         0.0868
     36 H3         -8.4958  -35.4873  -30.6565 H         1 JBG         0.0868
     37 H4         -7.6708  -35.5630  -32.2503 H         1 JBG         0.0868
     38 H5        -13.3902  -28.7737  -32.0254 H         1 JBG         0.0625
     39 H6        -18.0842  -27.6796  -32.0582 H         1 JBG         0.0748
     40 H7        -18.1660  -27.4640  -34.5041 H         1 JBG         0.0467
     41 H8        -19.7698  -27.2262  -33.7308 H         1 JBG         0.0467
     42 H9        -21.5560  -29.0135  -33.9784 H         1 JBG         0.0557
     43 H10       -22.5107  -30.7088  -35.5311 H         1 JBG         0.0599
     44 H11        -6.1558  -33.6404  -32.7625 H         1 JBG         0.2035
     45 H12        -9.3638  -33.3986  -31.3563 H         1 JBG         0.2039
     46 H13        -9.5616  -32.5924  -33.5653 H         1 JBG         0.0868
     47 H14        -8.3216  -33.8094  -34.0215 H         1 JBG         0.0868
     48 H15        -7.1752  -31.6774  -33.5289 H         1 JBG         0.0868
     49 H16        -8.0192  -31.5434  -31.9489 H         1 JBG         0.0868
     50 H17       -10.4405  -35.7059  -31.6165 H         1 JBG         0.0841
     51 H18       -10.6440  -35.0316  -33.2689 H         1 JBG         0.0841
     52 H19       -11.2701  -33.3007  -30.8010 H         1 JBG         0.0671
     53 H20       -12.5020  -34.4247  -31.4686 H         1 JBG         0.0671
     54 H21        -4.5956  -32.9041  -31.1269 H         1 JBG         0.0778
     55 H22        -5.6682  -31.4894  -30.8540 H         1 JBG         0.0778
     56 H23        -4.8904  -31.7311  -32.4550 H         1 JBG         0.0778
     57 H24       -17.0259  -31.1761  -33.4909 H         1 JBG         0.2512
     58 H25       -17.4879  -30.3959  -33.0195 H         1 JBG         0.1863
     59 H26       -21.1468  -31.5862  -37.4189 H         1 JBG         0.0559
     60 H27       -18.7993  -30.7992  -37.7416 H         1 JBG         0.0599
     61 H28       -17.8193  -29.1571  -36.1423 H         1 JBG         0.0557
@<TRIPOS>BOND
     1    2    1 1  
     2    1   16 1  
     3   17    2 1  
     4    3    4 ar 
     5    3    8 ar 
     6   22    3 1  
     7    4    5 ar 
     8    4   25 1  
     9    5    6 ar 
    10    7    6 ar 
    11    6    9 1  
    12    8    7 ar 
    13    7   26 1  
    14    8   24 1  
    15    9   27 2  
    16    9   28 am 
    17   10   11 1  
    18   10   12 1  
    19   28   10 1  
    20   11   29 ar 
    21   11   30 ar 
    22   12   13 1  
    23   13   14 ar 
    24   13   33 ar 
    25   14   15 ar 
    26   15   31 ar 
    27   19   16 1  
    28   16   23 1  
    29   17   18 1  
    30   20   17 1  
    31   18   19 1  
    32   21   20 1  
    33   21   22 1  
    34   31   32 ar 
    35   32   33 ar 
    36    1   34 1  
    37    1   35 1  
    38    2   36 1  
    39    2   37 1  
    40    5   38 1  
    41   10   39 1  
    42   12   40 1  
    43   12   41 1  
    44   14   42 1  
    45   15   43 1  
    46   16   44 1  
    47   17   45 1  
    48   18   46 1  
    49   18   47 1  
    50   19   48 1  
    51   19   49 1  
    52   20   50 1  
    53   20   51 1  
    54   21   52 1  
    55   21   53 1  
    56   23   54 1  
    57   23   55 1  
    58   23   56 1  
    59   26   57 1  
    60   28   58 1  
    61   31   59 1  
    62   32   60 1  
    63   33   61 1  
@<TRIPOS>SUBSTRUCTURE
     1 JBG         1

