### 
### Created by X-TOOL on Wed Jan  1 15:39:34 2020
### 

@<TRIPOS>MOLECULE
6m8w_ligand
   56    56     1     0     0
SMALL
GAST_HUCK


@<TRIPOS>ATOM
      1 C          20.6970   11.3770    7.9610 C.2       1 ACE         0.1751
      2 O          21.1270   10.2790    8.2290 O.2       1 ACE        -0.3972
      3 CH3        19.1710   11.6140    7.8760 C.3       1 ACE         0.0258
      4 N          21.4720   12.4370    7.6780 N.am      1 ILE        -0.2656
      5 CA         22.9020   12.2980    7.5840 C.3       1 ILE         0.1334
      6 C          23.6370   13.0340    8.6950 C.2       1 ILE         0.2041
      7 O          24.8690   13.0630    8.6830 O.2       1 ILE        -0.3944
      8 CB         23.4350   12.6950    6.1970 C.3       1 ILE        -0.0037
      9 CG1        23.1860   14.1540    5.8290 C.3       1 ILE        -0.0491
     10 CG2        22.9030   11.7700    5.0960 C.3       1 ILE        -0.0582
     11 CD1        23.9880   14.6330    4.6430 C.3       1 ILE        -0.0648
     12 N          22.9760   13.6290    9.6580 N.am      1 ALA        -0.2640
     13 CA         23.6930   14.3120   10.7510 C.3       1 ALA         0.1282
     14 C          24.5270   13.3270   11.5460 C.2       1 ALA         0.2032
     15 O          24.1150   12.1930   11.8240 O.2       1 ALA        -0.3944
     16 CB         22.6850   15.0000   11.6480 C.3       1 ALA        -0.0244
     17 N          25.7060   13.7870   11.9640 N.am      1 PHL        -0.2677
     18 CA         26.5770   13.0150   12.8550 C.3       1 PHL         0.1039
     19 C          26.5810   13.7900   14.2500 C.2       1 PHL         0.0621
     20 O          27.3460   13.1800   15.2110 O.co2     1 PHL        -0.5664
     21 CB         28.0090   12.9310   12.3010 C.3       1 PHL         0.0159
     22 CG         28.1740   11.9490   11.1790 C.ar      1 PHL        -0.0392
     23 CD1        29.1480   12.1660   10.2030 C.ar      1 PHL        -0.0602
     24 CD2        27.4250   10.7290   11.1300 C.ar      1 PHL        -0.0602
     25 CE1        29.3940   11.2220    9.2100 C.ar      1 PHL        -0.0686
     26 CE2        27.6590    9.8270   10.0900 C.ar      1 PHL        -0.0686
     27 CZ         28.6290   10.0810    9.1290 C.ar      1 PHL        -0.0687
     28 OXT        25.8190   14.9300   14.2430 O.co2     1 PHL        -0.5664
     29 H1         18.9770   12.6668    7.6232 H         1 ACE         0.0467
     30 H2         18.7088   11.3787    8.8460 H         1 ACE         0.0467
     31 H3         18.7419   10.9651    7.0983 H         1 ACE         0.0467
     32 H4         21.0513   13.3322    7.5310 H         1 ILE         0.1883
     33 H5         23.1220   11.2282    7.7144 H         1 ILE         0.0803
     34 H6         24.5261   12.5605    6.2337 H         1 ILE         0.0345
     35 H7         23.4447   14.7787    6.6966 H         1 ILE         0.0267
     36 H8         22.1178   14.2746    5.5958 H         1 ILE         0.0267
     37 H9         23.0896   10.7225    5.3753 H         1 ILE         0.0235
     38 H10        23.4162   11.9940    4.1492 H         1 ILE         0.0235
     39 H11        21.8216   11.9298    4.9737 H         1 ILE         0.0235
     40 H12        23.7525   15.6888    4.4434 H         1 ILE         0.0230
     41 H13        23.7345   14.0276    3.7603 H         1 ILE         0.0230
     42 H14        25.0614   14.5317    4.8612 H         1 ILE         0.0230
     43 H15        21.9761   13.6197    9.6515 H         1 ALA         0.1883
     44 H16        24.3627   15.0701   10.3188 H         1 ALA         0.0797
     45 H17        23.2120   15.5122   12.4664 H         1 ALA         0.0277
     46 H18        21.9962   14.2517   12.0671 H         1 ALA         0.0277
     47 H19        22.1147   15.7358   11.0620 H         1 ALA         0.0277
     48 H20        26.0070   14.6906   11.6590 H         1 PHL         0.1877
     49 H21        26.1774   11.9983   12.9841 H         1 PHL         0.0749
     50 H22        28.6800   12.6349   13.1208 H         1 PHL         0.0467
     51 H23        28.2964   13.9271   11.9335 H         1 PHL         0.0467
     52 H24        29.7225   13.0851   10.2186 H         1 PHL         0.0557
     53 H25        26.6853   10.5086   11.8912 H         1 PHL         0.0557
     54 H26        30.1930   11.3867    8.4962 H         1 PHL         0.0599
     55 H27        27.0752    8.9155   10.0319 H         1 PHL         0.0599
     56 H28        28.7833    9.3810    8.3158 H         1 PHL         0.0559
@<TRIPOS>BOND
     1    1    2 2  
     2    1    3 1  
     3    1    4 am 
     4    4    5 1  
     5    5    6 1  
     6    5    8 1  
     7    6    7 2  
     8    6   12 am 
     9    8    9 1  
    10    8   10 1  
    11    9   11 1  
    12   12   13 1  
    13   13   14 1  
    14   13   16 1  
    15   14   15 2  
    16   14   17 am 
    17   17   18 1  
    18   18   19 1  
    19   18   21 1  
    20   19   20 ar 
    21   19   28 ar 
    22   21   22 1  
    23   22   23 ar 
    24   22   24 ar 
    25   23   25 ar 
    26   24   26 ar 
    27   25   27 ar 
    28   26   27 ar 
    29    3   29 1  
    30    3   30 1  
    31    3   31 1  
    32    4   32 1  
    33    5   33 1  
    34    8   34 1  
    35    9   35 1  
    36    9   36 1  
    37   10   37 1  
    38   10   38 1  
    39   10   39 1  
    40   11   40 1  
    41   11   41 1  
    42   11   42 1  
    43   12   43 1  
    44   13   44 1  
    45   16   45 1  
    46   16   46 1  
    47   16   47 1  
    48   17   48 1  
    49   18   49 1  
    50   21   50 1  
    51   21   51 1  
    52   23   52 1  
    53   24   53 1  
    54   25   54 1  
    55   26   55 1  
    56   27   56 1  
@<TRIPOS>SUBSTRUCTURE
     1 ACE         1

