### 
### Created by X-TOOL on Wed Jan  1 15:39:34 2020
### 

@<TRIPOS>MOLECULE
6m8y_ligand
   60    61     1     0     0
SMALL
GAST_HUCK


@<TRIPOS>ATOM
      1 C          23.1970   13.3530    5.4340 C.2       1 ACE         0.1751
      2 O          22.0380   13.8540    5.3330 O.2       1 ACE        -0.3972
      3 CH3        24.0380   13.1510    4.2330 C.3       1 ACE         0.0258
      4 N          23.4780   12.6360    6.4730 N.am      1 ILE        -0.2656
      5 CA         22.6780   12.5600    7.6900 C.3       1 ILE         0.1336
      6 C          23.5130   13.1150    8.8290 C.2       1 ILE         0.2067
      7 O          24.7370   12.9380    8.8600 O.2       1 ILE        -0.3942
      8 CB         22.2740   11.1490    7.9980 C.3       1 ILE        -0.0037
      9 CG1        21.3220   10.5310    6.9260 C.3       1 ILE        -0.0491
     10 CG2        21.6790   10.9280    9.3660 C.3       1 ILE        -0.0582
     11 CD1        21.9120    9.2460    6.4120 C.3       1 ILE        -0.0648
     12 N          22.9280   13.8540    9.7510 N.am      1 PRO        -0.2498
     13 CA         23.7440   14.4580   10.8180 C.3       1 PRO         0.1337
     14 C          24.4620   13.4160   11.6610 C.2       1 PRO         0.2037
     15 O          23.9500   12.3500   11.9630 O.2       1 PRO        -0.3944
     16 CB         22.6800   15.2310   11.6540 C.3       1 PRO        -0.0104
     17 CG         21.6530   15.5960   10.6930 C.3       1 PRO        -0.0281
     18 CD         21.5300   14.3700    9.8040 C.3       1 PRO         0.0369
     19 N          25.6780   13.7960   12.0530 N.am      1 PHL        -0.2677
     20 CA         26.5170   13.0730   12.9900 C.3       1 PHL         0.1039
     21 C          26.5080   13.7650   14.3730 C.2       1 PHL         0.0621
     22 O          27.2740   13.1620   15.3110 O.co2     1 PHL        -0.5664
     23 CB         27.8970   12.8950   12.4000 C.3       1 PHL         0.0159
     24 CG         28.0610   11.9490   11.2550 C.ar      1 PHL        -0.0392
     25 CD1        29.0430   12.1800   10.2890 C.ar      1 PHL        -0.0602
     26 CD2        27.3300   10.7690   11.1570 C.ar      1 PHL        -0.0602
     27 CE1        29.2360   11.2860    9.2660 C.ar      1 PHL        -0.0686
     28 CE2        27.5150    9.8850   10.0900 C.ar      1 PHL        -0.0686
     29 CZ         28.4640   10.1660    9.1410 C.ar      1 PHL        -0.0687
     30 OXT        25.7350   14.8730   14.4450 O.co2     1 PHL        -0.5664
     31 H1         25.0002   12.7081    4.5295 H         1 ACE         0.0467
     32 H2         24.2158   14.1195    3.7427 H         1 ACE         0.0467
     33 H3         23.5232   12.4752    3.5342 H         1 ACE         0.0467
     34 H4         24.3137   12.0879    6.4391 H         1 ILE         0.1883
     35 H5         21.7711   13.1700    7.5660 H         1 ILE         0.0803
     36 H6         23.2054   10.5646    7.9687 H         1 ILE         0.0345
     37 H7         21.2008   11.2381    6.0921 H         1 ILE         0.0267
     38 H8         20.3410   10.3280    7.3803 H         1 ILE         0.0267
     39 H9         22.3431   11.3604   10.1289 H         1 ILE         0.0235
     40 H10        21.5664    9.8489    9.5469 H         1 ILE         0.0235
     41 H11        20.6935   11.4136    9.4201 H         1 ILE         0.0235
     42 H12        21.2411    8.8108    5.6567 H         1 ILE         0.0230
     43 H13        22.0332    8.5388    7.2458 H         1 ILE         0.0230
     44 H14        22.8930    9.4488    5.9576 H         1 ILE         0.0230
     45 H15        24.4881   15.1486   10.3945 H         1 PRO         0.0802
     46 H16        23.1220   16.1292   12.1099 H         1 PRO         0.0313
     47 H17        22.2629   14.5871   12.4423 H         1 PRO         0.0313
     48 H18        21.9602   16.4747   10.1070 H         1 PRO         0.0287
     49 H19        20.7004   15.8084   11.2003 H         1 PRO         0.0287
     50 H20        20.8506   13.6269   10.2469 H         1 PRO         0.0524
     51 H21        21.1709   14.6433    8.8008 H         1 PRO         0.0524
     52 H22        26.0404   14.6462   11.6712 H         1 PHL         0.1877
     53 H23        26.0875   12.0696   13.1270 H         1 PHL         0.0749
     54 H24        28.5544   12.5441   13.2091 H         1 PHL         0.0467
     55 H25        28.2344   13.8839   12.0563 H         1 PHL         0.0467
     56 H26        29.6568   13.0715   10.3478 H         1 PHL         0.0557
     57 H27        26.6020   10.5303   11.9239 H         1 PHL         0.0557
     58 H28        30.0192   11.4729    8.5403 H         1 PHL         0.0599
     59 H29        26.9140    8.9861   10.0136 H         1 PHL         0.0599
     60 H30        28.6010    9.5021    8.2951 H         1 PHL         0.0559
@<TRIPOS>BOND
     1    1    2 2  
     2    1    3 1  
     3    1    4 am 
     4    4    5 1  
     5    5    6 1  
     6    5    8 1  
     7    6    7 2  
     8    6   12 am 
     9    8    9 1  
    10    8   10 1  
    11    9   11 1  
    12   12   13 1  
    13   12   18 1  
    14   13   14 1  
    15   13   16 1  
    16   14   15 2  
    17   14   19 am 
    18   16   17 1  
    19   17   18 1  
    20   19   20 1  
    21   20   21 1  
    22   20   23 1  
    23   21   22 ar 
    24   21   30 ar 
    25   23   24 1  
    26   24   25 ar 
    27   24   26 ar 
    28   25   27 ar 
    29   26   28 ar 
    30   27   29 ar 
    31   28   29 ar 
    32    3   31 1  
    33    3   32 1  
    34    3   33 1  
    35    4   34 1  
    36    5   35 1  
    37    8   36 1  
    38    9   37 1  
    39    9   38 1  
    40   10   39 1  
    41   10   40 1  
    42   10   41 1  
    43   11   42 1  
    44   11   43 1  
    45   11   44 1  
    46   13   45 1  
    47   16   46 1  
    48   16   47 1  
    49   17   48 1  
    50   17   49 1  
    51   18   50 1  
    52   18   51 1  
    53   19   52 1  
    54   20   53 1  
    55   23   54 1  
    56   23   55 1  
    57   25   56 1  
    58   26   57 1  
    59   27   58 1  
    60   28   59 1  
    61   29   60 1  
@<TRIPOS>SUBSTRUCTURE
     1 ACE         1

