### 
### Created by X-TOOL on Mon Aug  2 16:14:44 2021
### 

@<TRIPOS>MOLECULE
6m95_ligand
   50    52     1     0     0
SMALL
GAST_HUCK


@<TRIPOS>ATOM
      1 C4        -17.7220   -4.5040  -23.7310 C.ar      1 J8S        -0.0152
      2 C5        -18.6030   -5.5090  -24.0350 C.ar      1 J8S         0.0114
      3 C7        -16.7250   -7.2380  -22.7600 C.3       1 J8S        -0.0040
      4 C8        -19.8130   -5.2250  -24.6350 C.ar      1 J8S        -0.0546
      5 C10       -19.2920   -2.9160  -24.6280 C.ar      1 J8S         0.0716
      6 C15       -21.4250    1.1670  -23.3110 C.3       1 J8S        -0.0279
      7 C17       -22.4140    1.1390  -21.0120 C.3       1 J8S        -0.0162
      8 C20       -22.5970    4.9770  -20.9540 C.ar      1 J8S        -0.0686
      9 C21       -23.8310    5.2010  -21.5590 C.ar      1 J8S        -0.0687
     10 C22       -24.5750    4.1220  -21.9660 C.ar      1 J8S        -0.0686
     11 C24       -20.7150   -0.5980  -21.6580 C.3       1 J8S        -0.0279
     12 C1        -16.1070   -2.3670  -22.9610 C.3       1 J8S         0.0610
     13 C11       -19.7440   -1.5360  -24.9710 C.2       1 J8S         0.1969
     14 C14       -20.2370    0.7590  -24.1570 C.3       1 J8S         0.0334
     15 C16       -21.1520    0.8620  -21.8460 C.3       1 J8S        -0.0277
     16 C18       -22.8630    2.5920  -21.1930 C.ar      1 J8S        -0.0428
     17 C19       -22.1210    3.6800  -20.7690 C.ar      1 J8S        -0.0603
     18 C23       -24.0960    2.8370  -21.7720 C.ar      1 J8S        -0.0603
     19 C25       -19.5760   -1.0130  -22.5670 C.3       1 J8S         0.0334
     20 C3        -18.0780   -3.1930  -24.0310 C.ar      1 J8S         0.1066
     21 C9        -20.1610   -3.9280  -24.9440 C.ar      1 J8S        -0.0557
     22 N13       -19.9120   -0.6570  -23.9300 N.am      1 J8S        -0.2752
     23 O12       -20.0010   -1.2860  -26.1350 O.2       1 J8S        -0.3937
     24 O2        -17.2630   -2.1180  -23.7760 O.3       1 J8S        -0.3175
     25 S6        -18.2510   -7.2130  -23.6930 S.3       1 J8S        -0.1042
     26 H1        -16.7680   -4.7260  -23.2666 H         1 J8S         0.0499
     27 H2        -16.4590   -8.2780  -22.5200 H         1 J8S         0.0367
     28 H3        -16.8557   -6.6686  -21.8280 H         1 J8S         0.0367
     29 H4        -15.9219   -6.7829  -23.3582 H         1 J8S         0.0367
     30 H5        -20.4983   -6.0325  -24.8661 H         1 J8S         0.0489
     31 H6        -22.3143    0.6091  -23.6393 H         1 J8S         0.0289
     32 H7        -21.6039    2.2457  -23.4309 H         1 J8S         0.0289
     33 H8        -22.1940    0.9570  -19.9497 H         1 J8S         0.0429
     34 H9        -23.2204    0.4666  -21.3400 H         1 J8S         0.0429
     35 H10       -22.0006    5.8197  -20.6236 H         1 J8S         0.0599
     36 H11       -24.1977    6.2104  -21.7060 H         1 J8S         0.0559
     37 H12       -25.5380    4.2755  -22.4395 H         1 J8S         0.0599
     38 H13       -21.5781   -1.2484  -21.8632 H         1 J8S         0.0289
     39 H14       -20.3939   -0.7331  -20.6146 H         1 J8S         0.0289
     40 H15       -15.5412   -1.4326  -22.8320 H         1 J8S         0.0581
     41 H16       -15.4686   -3.1177  -23.4497 H         1 J8S         0.0581
     42 H17       -16.4258   -2.7413  -21.9770 H         1 J8S         0.0581
     43 H18       -19.3691    1.3784  -23.8868 H         1 J8S         0.0521
     44 H19       -20.4789    0.9101  -25.2194 H         1 J8S         0.0521
     45 H20       -20.3424    1.5189  -21.4954 H         1 J8S         0.0324
     46 H21       -21.1618    3.5226  -20.2891 H         1 J8S         0.0557
     47 H22       -24.7060    1.9968  -22.0834 H         1 J8S         0.0557
     48 H23       -19.4237   -2.1001  -22.4959 H         1 J8S         0.0521
     49 H24       -18.6546   -0.4932  -22.2658 H         1 J8S         0.0521
     50 H25       -21.1061   -3.7116  -25.4288 H         1 J8S         0.0625
@<TRIPOS>BOND
     1    1    2 ar 
     2   20    1 ar 
     3    2    4 ar 
     4    2   25 1  
     5   25    3 1  
     6   21    4 ar 
     7    5   13 1  
     8   20    5 ar 
     9    5   21 ar 
    10   14    6 1  
    11    6   15 1  
    12   15    7 1  
    13    7   16 1  
    14    8    9 ar 
    15   17    8 ar 
    16   10    9 ar 
    17   18   10 ar 
    18   11   15 1  
    19   19   11 1  
    20   24   12 1  
    21   13   22 am 
    22   13   23 2  
    23   22   14 1  
    24   16   17 ar 
    25   16   18 ar 
    26   22   19 1  
    27   20   24 1  
    28    1   26 1  
    29    3   27 1  
    30    3   28 1  
    31    3   29 1  
    32    4   30 1  
    33    6   31 1  
    34    6   32 1  
    35    7   33 1  
    36    7   34 1  
    37    8   35 1  
    38    9   36 1  
    39   10   37 1  
    40   11   38 1  
    41   11   39 1  
    42   12   40 1  
    43   12   41 1  
    44   12   42 1  
    45   14   43 1  
    46   14   44 1  
    47   15   45 1  
    48   17   46 1  
    49   18   47 1  
    50   19   48 1  
    51   19   49 1  
    52   21   50 1  
@<TRIPOS>SUBSTRUCTURE
     1 J8S         1

