### 
### Created by X-TOOL on Wed Jan  1 15:39:35 2020
### 

@<TRIPOS>MOLECULE
6m9c_ligand
   58    59     1     0     0
SMALL
GAST_HUCK


@<TRIPOS>ATOM
      1 CA         23.4520   12.1630    7.4760 C.3       1 IVA         0.0397
      2 CB         23.8760   12.8930    6.1860 C.3       1 IVA        -0.0298
      3 CG1        23.4600   12.1070    4.9410 C.3       1 IVA        -0.0606
      4 CG2        23.2860   14.2910    6.0930 C.3       1 IVA        -0.0606
      5 C          24.1270   12.8320    8.6740 C.2       1 IVA         0.1786
      6 O          25.3330   13.0540    8.6750 O.2       1 IVA        -0.3969
      7 N          23.3440   13.1680    9.7050 N.am      1 TYR        -0.2640
      8 CA         23.8810   13.9380   10.8220 C.3       1 TYR         0.1389
      9 C          24.8210   13.1140   11.6960 C.2       1 TYR         0.2053
     10 O          24.5110   11.9670   12.0430 O.2       1 TYR        -0.3942
     11 CB         22.7500   14.4870   11.7010 C.3       1 TYR         0.0163
     12 CG         21.6820   15.3010   11.0200 C.ar      1 TYR        -0.0493
     13 CD1        21.9920   16.1110    9.9540 C.ar      1 TYR        -0.0685
     14 CD2        20.3510   15.2790   11.4310 C.ar      1 TYR        -0.0685
     15 CE1        21.0610   16.8860    9.2870 C.ar      1 TYR        -0.0398
     16 CE2        19.3950   16.0460   10.7790 C.ar      1 TYR        -0.0398
     17 CZ         19.7510   16.8430    9.7160 C.ar      1 TYR         0.0805
     18 OH         18.8240   17.6070    9.0490 O.3       1 TYR        -0.3376
     19 C          26.7150   13.7700   14.3900 C.2       1 TYE         0.0619
     20 N          25.9500   13.7380   12.0580 N.am      1 TYE        -0.2678
     21 O          27.6010   13.1810   15.3690 O.co2     1 TYE        -0.5665
     22 CA         26.8160   13.0630   13.0280 C.3       1 TYE         0.1025
     23 CB         28.2540   13.0320   12.5110 C.3       1 TYE         0.0108
     24 CG         28.4740   12.0320   11.3760 C.ar      1 TYE        -0.0499
     25 OH         29.0630    9.2820    8.2920 O.3       1 TYE        -0.3376
     26 CZ         28.8690   10.2040    9.3140 C.ar      1 TYE         0.0805
     27 CD1        29.3740   12.3020   10.3460 C.ar      1 TYE        -0.0686
     28 CD2        27.7820   10.8260   11.3500 C.ar      1 TYE        -0.0686
     29 CE1        29.5780   11.3850    9.3070 C.ar      1 TYE        -0.0398
     30 CE2        27.9730    9.9060   10.3230 C.ar      1 TYE        -0.0398
     31 OXT        25.7580   14.8540   14.3640 O.co2     1 TYE        -0.5665
     32 H1         23.7603   11.1085    7.4209 H         1 IVA         0.0505
     33 H2         22.3594   12.2201    7.5895 H         1 IVA         0.0505
     34 H3         24.9725   12.9803    6.1943 H         1 IVA         0.0320
     35 H4         23.7762   12.6531    4.0400 H         1 IVA         0.0234
     36 H5         22.3667   11.9864    4.9318 H         1 IVA         0.0234
     37 H6         23.9381   11.1164    4.9560 H         1 IVA         0.0234
     38 H7         23.5756   14.8710    6.9816 H         1 IVA         0.0234
     39 H8         22.1893   14.2235    6.0407 H         1 IVA         0.0234
     40 H9         23.6662   14.7901    5.1895 H         1 IVA         0.0234
     41 H10        22.3836   12.8895    9.7103 H         1 TYR         0.1884
     42 H11        24.4471   14.7852   10.4076 H         1 TYR         0.0821
     43 H12        23.2093   15.1229   12.4722 H         1 TYR         0.0453
     44 H13        22.2566   13.6284   12.1798 H         1 TYR         0.0453
     45 H14        23.0220   16.1442    9.6178 H         1 TYR         0.0530
     46 H15        20.0587   14.6563   12.2688 H         1 TYR         0.0530
     47 H16        21.3528   17.5101    8.4501 H         1 TYR         0.0525
     48 H17        18.3629   16.0166   11.1093 H         1 TYR         0.0525
     49 H18        18.4248   18.2197    9.6555 H         1 TYR         0.2458
     50 H19        26.1926   14.6315   11.6801 H         1 TYE         0.1877
     51 H20        26.4699   12.0259   13.1490 H         1 TYE         0.0747
     52 H21        28.9180   12.7626   13.3455 H         1 TYE         0.0446
     53 H22        28.5139   14.0362   12.1450 H         1 TYE         0.0446
     54 H23        29.9729    9.0089    8.2819 H         1 TYE         0.2458
     55 H24        29.9243   13.2359   10.3493 H         1 TYE         0.0530
     56 H25        27.0806   10.5981   12.1445 H         1 TYE         0.0530
     57 H26        30.2816   11.6010    8.5112 H         1 TYE         0.0525
     58 H27        27.4270    8.9696   10.3148 H         1 TYE         0.0525
@<TRIPOS>BOND
     1    1    2 1  
     2    5    1 1  
     3    2    3 1  
     4    2    4 1  
     5    5    6 2  
     6    7    5 am 
     7    8    7 1  
     8    9    8 1  
     9    8   11 1  
    10    9   10 2  
    11   20    9 am 
    12   11   12 1  
    13   12   13 ar 
    14   12   14 ar 
    15   13   15 ar 
    16   14   16 ar 
    17   15   17 ar 
    18   16   17 ar 
    19   17   18 1  
    20   19   21 ar 
    21   22   19 1  
    22   19   31 ar 
    23   22   20 1  
    24   23   22 1  
    25   24   23 1  
    26   27   24 ar 
    27   24   28 ar 
    28   26   25 1  
    29   29   26 ar 
    30   26   30 ar 
    31   27   29 ar 
    32   28   30 ar 
    33    1   32 1  
    34    1   33 1  
    35    2   34 1  
    36    3   35 1  
    37    3   36 1  
    38    3   37 1  
    39    4   38 1  
    40    4   39 1  
    41    4   40 1  
    42    7   41 1  
    43    8   42 1  
    44   11   43 1  
    45   11   44 1  
    46   13   45 1  
    47   14   46 1  
    48   15   47 1  
    49   16   48 1  
    50   18   49 1  
    51   20   50 1  
    52   22   51 1  
    53   23   52 1  
    54   23   53 1  
    55   25   54 1  
    56   27   55 1  
    57   28   56 1  
    58   29   57 1  
    59   30   58 1  
@<TRIPOS>SUBSTRUCTURE
     1 IVA         1

