### 
### Created by X-TOOL on Wed Jan  1 15:39:36 2020
### 

@<TRIPOS>MOLECULE
6m9d_ligand
   66    67     1     0     0
SMALL
GAST_HUCK


@<TRIPOS>ATOM
      1 NE         23.5330   13.2160    3.5120 N.pl3     1 CSI        -0.2720
      2 CD2        23.2050   11.8770    3.9000 C.cat     1 CSI         0.2908
      3 CD1        23.5880   14.3050    4.4750 C.3       1 CSI         0.0663
      4 NH         23.1700   11.0820    2.7120 N.pl3     1 CSI        -0.2847
      5 CB         23.0050   12.5450    6.1350 C.3       1 CSI         0.1365
      6 CG1        24.0930   13.5140    5.6850 C.3       1 CSI         0.0239
      7 NG2        22.9570   11.4130    5.2310 N.pl3     1 CSI        -0.2622
      8 N          21.9480   11.5750    7.9130 N.4       1 CSI         0.2407
      9 CA         23.3050   11.9990    7.5420 C.3       1 CSI         0.1014
     10 C          24.0020   12.8960    8.5750 C.2       1 CSI         0.2305
     11 O          25.1890   13.2200    8.4670 O.2       1 CSI        -0.3906
     12 N          23.2540   13.3030    9.6010 N.am      1 LEU        -0.2609
     13 CA         23.7990   14.1750   10.6380 C.3       1 LEU         0.1312
     14 C          24.7550   13.3770   11.5120 C.2       1 LEU         0.2021
     15 O          24.5380   12.2070   11.8300 O.2       1 LEU        -0.3945
     16 CB         22.6860   14.7980   11.4730 C.3       1 LEU        -0.0101
     17 CG         21.9170   16.0130   10.9660 C.3       1 LEU        -0.0425
     18 CD1        22.2740   16.3890    9.5370 C.3       1 LEU        -0.0625
     19 CD2        20.4100   15.7760   11.0520 C.3       1 LEU        -0.0625
     20 N          25.8600   13.9850   11.9360 N.am      1 PHL        -0.2778
     21 CA         26.7310   13.2140   12.8260 C.3       1 PHL         0.0745
     22 C          26.7340   13.8430   14.2150 C.3       1 PHL         0.0689
     23 O          27.3180   13.3100   15.1620 O.3       1 PHL        -0.3926
     24 CB         28.1250   13.1440   12.2440 C.3       1 PHL         0.0061
     25 CG         28.4610   12.0560   11.2480 C.ar      1 PHL        -0.0408
     26 CD1        29.4860   12.2800   10.3300 C.ar      1 PHL        -0.0603
     27 CD2        27.8030   10.8410   11.2120 C.ar      1 PHL        -0.0603
     28 CE1        29.8440   11.3210    9.4040 C.ar      1 PHL        -0.0686
     29 CE2        28.1540    9.8740   10.2870 C.ar      1 PHL        -0.0686
     30 CZ         29.1730   10.1070    9.3780 C.ar      1 PHL        -0.0687
     31 H1         23.7360   13.4138    2.5218 H         1 CSI         0.2642
     32 H2         22.5980   14.7497    4.6546 H         1 CSI         0.0690
     33 H3         24.2937   15.0920    4.1707 H         1 CSI         0.0690
     34 H4         22.9501   10.0775    2.7708 H         1 CSI         0.2615
     35 H5         23.3647   11.5139    1.7974 H         1 CSI         0.2615
     36 H6         22.0353   13.0642    6.1380 H         1 CSI         0.0812
     37 H7         24.3315   14.2072    6.5052 H         1 CSI         0.0340
     38 H8         24.9960   12.9509    5.4066 H         1 CSI         0.0340
     39 H9         22.7746   10.4361    5.5017 H         1 CSI         0.2648
     40 H10        21.9613   11.1793    8.8400 H         1 CSI         0.2016
     41 H11        21.6210   10.8830    7.2570 H         1 CSI         0.2016
     42 H12        21.3307   12.3717    7.8966 H         1 CSI         0.2016
     43 H13        23.9504   11.1141    7.4402 H         1 CSI         0.1137
     44 H14        22.3012   13.0053    9.6616 H         1 LEU         0.1885
     45 H15        24.3612   14.9869   10.1535 H         1 LEU         0.0800
     46 H16        23.1393   15.0911   12.4314 H         1 LEU         0.0315
     47 H17        21.9426   14.0059   11.6460 H         1 LEU         0.0315
     48 H18        22.1730   16.8634   11.6151 H         1 LEU         0.0298
     49 H19        21.6882   17.2687    9.2321 H         1 LEU         0.0232
     50 H20        22.0452   15.5463    8.8680 H         1 LEU         0.0232
     51 H21        23.3469   16.6242    9.4768 H         1 LEU         0.0232
     52 H22        20.1400   15.5030   12.0828 H         1 LEU         0.0232
     53 H23        20.1277   14.9599   10.3707 H         1 LEU         0.0232
     54 H24        19.8774   16.6945   10.7645 H         1 LEU         0.0232
     55 H25        26.0842   14.9200   11.6612 H         1 PHL         0.1857
     56 H26        26.3368   12.1904   12.9084 H         1 PHL         0.0601
     57 H27        25.6800   13.9391   14.5146 H         1 PHL         0.0582
     58 H28        27.1757   14.8440   14.1016 H         1 PHL         0.0582
     59 H29        26.9500   12.4476   15.3146 H         1 PHL         0.2095
     60 H30        28.8196   13.0300   13.0893 H         1 PHL         0.0449
     61 H31        28.3116   14.1054   11.7431 H         1 PHL         0.0449
     62 H32        30.0129   13.2272   10.3437 H         1 PHL         0.0557
     63 H33        27.0030   10.6436   11.9164 H         1 PHL         0.0557
     64 H34        30.6455   11.5155    8.7006 H         1 PHL         0.0599
     65 H35        27.6275    8.9265   10.2734 H         1 PHL         0.0599
     66 H36        29.4436    9.3478    8.6531 H         1 PHL         0.0559
@<TRIPOS>BOND
     1    1    2 ar 
     2    1    3 1  
     3    2    4 ar 
     4    2    7 ar 
     5    3    6 1  
     6    6    5 1  
     7    5    7 1  
     8    5    9 1  
     9    9    8 1  
    10    9   10 1  
    11   10   11 2  
    12   10   12 am 
    13   12   13 1  
    14   13   14 1  
    15   13   16 1  
    16   14   15 2  
    17   14   20 am 
    18   16   17 1  
    19   17   18 1  
    20   17   19 1  
    21   20   21 1  
    22   21   22 1  
    23   21   24 1  
    24   22   23 1  
    25   24   25 1  
    26   25   26 ar 
    27   25   27 ar 
    28   26   28 ar 
    29   27   29 ar 
    30   28   30 ar 
    31   29   30 ar 
    32    1   31 1  
    33    3   32 1  
    34    3   33 1  
    35    4   34 1  
    36    4   35 1  
    37    5   36 1  
    38    6   37 1  
    39    6   38 1  
    40    7   39 1  
    41    8   40 1  
    42    8   41 1  
    43    8   42 1  
    44    9   43 1  
    45   12   44 1  
    46   13   45 1  
    47   16   46 1  
    48   16   47 1  
    49   17   48 1  
    50   18   49 1  
    51   18   50 1  
    52   18   51 1  
    53   19   52 1  
    54   19   53 1  
    55   19   54 1  
    56   20   55 1  
    57   21   56 1  
    58   22   57 1  
    59   22   58 1  
    60   23   59 1  
    61   24   60 1  
    62   24   61 1  
    63   26   62 1  
    64   27   63 1  
    65   28   64 1  
    66   29   65 1  
    67   30   66 1  
@<TRIPOS>SUBSTRUCTURE
     1 CSI         1

