### 
### Created by X-TOOL on Wed Jan  1 15:39:36 2020
### 

@<TRIPOS>MOLECULE
6m9f_ligand
   77    78     1     0     0
SMALL
GAST_HUCK


@<TRIPOS>ATOM
      1 CA         23.6440   12.1070    4.3450 C.3       1 IVA         0.0397
      2 CB         23.3320   13.5030    3.7470 C.3       1 IVA        -0.0298
      3 CG1        24.1140   14.5670    4.4780 C.3       1 IVA        -0.0606
      4 CG2        23.6620   13.4630    2.2600 C.3       1 IVA        -0.0606
      5 C          23.0420   12.0040    5.7350 C.2       1 IVA         0.1786
      6 O          21.8320   12.1550    5.9310 O.2       1 IVA        -0.3969
      7 N          23.9130   11.7500    6.7060 N.am      1 TYR        -0.2640
      8 CA         23.5050   11.6080    8.0930 C.3       1 TYR         0.1389
      9 C          24.1020   12.6830    8.9630 C.2       1 TYR         0.2057
     10 O          25.2140   13.1340    8.7350 O.2       1 TYR        -0.3942
     11 CB         23.9280   10.2330    8.5870 C.3       1 TYR         0.0163
     12 CG         23.2520    9.1600    7.7520 C.ar      1 TYR        -0.0493
     13 CD1        23.9800    8.4620    6.8170 C.ar      1 TYR        -0.0685
     14 CD2        21.9110    8.8620    7.9170 C.ar      1 TYR        -0.0685
     15 CE1        23.4060    7.4800    6.0380 C.ar      1 TYR        -0.0398
     16 CE2        21.3090    7.8760    7.1530 C.ar      1 TYR        -0.0398
     17 CZ         22.0630    7.1890    6.2150 C.ar      1 TYR         0.0805
     18 OH         21.4510    6.2070    5.4600 O.3       1 TYR        -0.3376
     19 N          23.3320   13.0880    9.9600 N.am      1 LEU        -0.2636
     20 CA         23.8890   14.0430   10.9100 C.3       1 LEU         0.1312
     21 C          24.6590   13.2920   11.9830 C.2       1 LEU         0.2035
     22 O          24.1320   12.3650   12.5850 O.2       1 LEU        -0.3944
     23 CB         22.7220   14.8470   11.4730 C.3       1 LEU        -0.0101
     24 CG         21.7560   15.5140   10.4790 C.3       1 LEU        -0.0425
     25 CD1        20.6480   16.2300   11.1880 C.3       1 LEU        -0.0625
     26 CD2        22.5510   16.4370    9.5660 C.3       1 LEU        -0.0625
     27 C          26.7330   13.7630   14.5260 C.2       1 TYE         0.0619
     28 N          25.8920   13.7610   12.1910 N.am      1 TYE        -0.2679
     29 O          27.5760   13.1980   15.4690 O.co2     1 TYE        -0.5665
     30 CA         26.7540   13.0810   13.1590 C.3       1 TYE         0.1025
     31 CB         28.1360   13.0030   12.5450 C.3       1 TYE         0.0108
     32 CG         28.3130   12.0210   11.4020 C.ar      1 TYE        -0.0499
     33 OH         28.9090    9.3560    8.2280 O.3       1 TYE        -0.3376
     34 CZ         28.7110   10.2490    9.2800 C.ar      1 TYE         0.0805
     35 CD1        29.3040   12.2710   10.4550 C.ar      1 TYE        -0.0686
     36 CD2        27.5380   10.8840   11.2700 C.ar      1 TYE        -0.0686
     37 CE1        29.5020   11.3940    9.3900 C.ar      1 TYE        -0.0398
     38 CE2        27.7280    9.9900   10.2210 C.ar      1 TYE        -0.0398
     39 OXT        25.8740   14.8460   14.6210 O.co2     1 TYE        -0.5665
     40 H1         24.7337   11.9700    4.4067 H         1 IVA         0.0505
     41 H2         23.2123   11.3274    3.7002 H         1 IVA         0.0505
     42 H3         22.2596   13.7169    3.8664 H         1 IVA         0.0320
     43 H4         23.8851   15.5523    4.0458 H         1 IVA         0.0234
     44 H5         25.1906   14.3642    4.3786 H         1 IVA         0.0234
     45 H6         23.8363   14.5601    5.5423 H         1 IVA         0.0234
     46 H7         23.0688   12.6745    1.7739 H         1 IVA         0.0234
     47 H8         24.7331   13.2502    2.1277 H         1 IVA         0.0234
     48 H9         23.4223   14.4353    1.8049 H         1 IVA         0.0234
     49 H10        24.8810   11.6534    6.4743 H         1 TYR         0.1884
     50 H11        22.4092   11.6863    8.1480 H         1 TYR         0.0821
     51 H12        23.6337   10.1162    9.6404 H         1 TYR         0.0453
     52 H13        25.0197   10.1321    8.4979 H         1 TYR         0.0453
     53 H14        25.0321    8.6898    6.6893 H         1 TYR         0.0530
     54 H15        21.3263    9.4050    8.6507 H         1 TYR         0.0530
     55 H16        23.9943    6.9456    5.3009 H         1 TYR         0.0525
     56 H17        20.2587    7.6441    7.2874 H         1 TYR         0.0525
     57 H18        22.0853    5.8256    4.8644 H         1 TYR         0.2458
     58 H19        22.3963   12.7492   10.0587 H         1 LEU         0.1883
     59 H20        24.5798   14.7249   10.3924 H         1 LEU         0.0800
     60 H21        23.1470   15.6443   12.1005 H         1 LEU         0.0315
     61 H22        22.1274   14.1654   12.0990 H         1 LEU         0.0315
     62 H23        21.3010   14.7278    9.8587 H         1 LEU         0.0298
     63 H24        19.9786   16.6935   10.4483 H         1 LEU         0.0232
     64 H25        21.0720   17.0095   11.8380 H         1 LEU         0.0232
     65 H26        20.0795   15.5129   11.7983 H         1 LEU         0.0232
     66 H27        23.3493   15.8645    9.0711 H         1 LEU         0.0232
     67 H28        22.9963   17.2475   10.1617 H         1 LEU         0.0232
     68 H29        21.8819   16.8659    8.8055 H         1 LEU         0.0232
     69 H30        26.2210   14.5637   11.6935 H         1 TYE         0.1877
     70 H31        26.3811   12.0558   13.2996 H         1 TYE         0.0747
     71 H32        28.8403   12.7200   13.3412 H         1 TYE         0.0446
     72 H33        28.3916   14.0043   12.1682 H         1 TYE         0.0446
     73 H34        29.7959    9.0175    8.2641 H         1 TYE         0.2458
     74 H35        29.9257   13.1542   10.5472 H         1 TYE         0.0530
     75 H36        26.7634   10.6841   12.0015 H         1 TYE         0.0530
     76 H37        30.2670   11.6001    8.6502 H         1 TYE         0.0525
     77 H38        27.1135    9.1006   10.1410 H         1 TYE         0.0525
@<TRIPOS>BOND
     1    1    2 1  
     2    5    1 1  
     3    2    3 1  
     4    2    4 1  
     5    5    6 2  
     6    7    5 am 
     7    8    7 1  
     8    9    8 1  
     9    8   11 1  
    10    9   10 2  
    11   19    9 am 
    12   11   12 1  
    13   12   13 ar 
    14   12   14 ar 
    15   13   15 ar 
    16   14   16 ar 
    17   15   17 ar 
    18   16   17 ar 
    19   17   18 1  
    20   20   19 1  
    21   21   20 1  
    22   20   23 1  
    23   21   22 2  
    24   28   21 am 
    25   23   24 1  
    26   24   25 1  
    27   24   26 1  
    28   27   29 ar 
    29   30   27 1  
    30   27   39 ar 
    31   30   28 1  
    32   31   30 1  
    33   32   31 1  
    34   35   32 ar 
    35   32   36 ar 
    36   34   33 1  
    37   37   34 ar 
    38   34   38 ar 
    39   35   37 ar 
    40   36   38 ar 
    41    1   40 1  
    42    1   41 1  
    43    2   42 1  
    44    3   43 1  
    45    3   44 1  
    46    3   45 1  
    47    4   46 1  
    48    4   47 1  
    49    4   48 1  
    50    7   49 1  
    51    8   50 1  
    52   11   51 1  
    53   11   52 1  
    54   13   53 1  
    55   14   54 1  
    56   15   55 1  
    57   16   56 1  
    58   18   57 1  
    59   19   58 1  
    60   20   59 1  
    61   23   60 1  
    62   23   61 1  
    63   24   62 1  
    64   25   63 1  
    65   25   64 1  
    66   25   65 1  
    67   26   66 1  
    68   26   67 1  
    69   26   68 1  
    70   28   69 1  
    71   30   70 1  
    72   31   71 1  
    73   31   72 1  
    74   33   73 1  
    75   35   74 1  
    76   36   75 1  
    77   37   76 1  
    78   38   77 1  
@<TRIPOS>SUBSTRUCTURE
     1 IVA         1

