### 
### Created by X-TOOL on Mon Aug  2 16:14:44 2021
### 

@<TRIPOS>MOLECULE
6m9l_ligand
   40    43     1     0     0
SMALL
GAST_HUCK


@<TRIPOS>ATOM
      1 C4         21.9770   -3.7950  -20.6050 C.ar      1 J9G        -0.0432
      2 C5         22.6630   -2.6730  -21.0050 C.ar      1 J9G         0.0869
      3 C7         21.3860   -0.7560  -21.7860 C.ar      1 J9G         0.0538
      4 C8         20.5290    0.2720  -21.4500 C.ar      1 J9G        -0.0018
      5 C10        19.9010    0.5800  -23.5460 C.ar      1 J9G         0.1579
      6 C13        18.9240    3.4660  -24.9500 C.ar      1 J9G        -0.0152
      7 C15        20.6270    4.7870  -25.9610 C.ar      1 J9G        -0.0685
      8 C17        18.8650    5.8420  -24.7590 C.ar      1 J9G        -0.0685
      9 C24        21.4960   -1.1300  -23.1060 C.ar      1 J9G        -0.0129
     10 C12        18.3160    2.1430  -24.6470 C.3       1 J9G         0.0899
     11 C14        20.0800    3.5560  -25.6880 C.ar      1 J9G        -0.0579
     12 C16        20.0200    5.9300  -25.4970 C.ar      1 J9G        -0.0687
     13 C18        18.3190    4.6100  -24.4870 C.ar      1 J9G        -0.0579
     14 C19        19.6920    0.3870  -25.8030 C.2       1 J9G         0.3155
     15 C2         23.7300   -5.1740  -21.4270 C.ar      1 J9G         0.1172
     16 C23        20.7160   -0.4190  -23.9810 C.ar      1 J9G         0.1104
     17 C25        23.8870   -2.8200  -21.6140 C.ar      1 J9G         0.1512
     18 C27        24.4300   -4.0630  -21.8300 C.ar      1 J9G        -0.0051
     19 C3         22.5060   -5.0470  -20.8150 C.ar      1 J9G        -0.0428
     20 F1         24.2470   -6.3960  -21.6330 F         1 J9G        -0.1949
     21 F26        24.5630   -1.7290  -22.0050 F         1 J9G        -0.1924
     22 N11        19.2750    1.0720  -24.6840 N.am      1 J9G        -0.1838
     23 N21        20.6040   -0.5550  -25.3640 N.am      1 J9G        -0.2146
     24 N6         22.1280   -1.3990  -20.7890 N.pl3     1 J9G        -0.2823
     25 N9         19.7590    0.9780  -22.2850 N.ar      1 J9G        -0.3118
     26 O20        19.3290    0.5740  -26.9550 O.2       1 J9G        -0.3927
     27 H1         21.0126   -3.6923  -20.1208 H         1 J9G         0.0506
     28 H2         20.4742    0.5347  -20.3997 H         1 J9G         0.0552
     29 H3         21.5387    4.8568  -26.5432 H         1 J9G         0.0599
     30 H4         18.3850    6.7419  -24.3918 H         1 J9G         0.0599
     31 H5         22.1523   -1.9294  -23.4305 H         1 J9G         0.0478
     32 H6         17.5303    1.9381  -25.3891 H         1 J9G         0.0752
     33 H7         17.8701    2.1820  -23.6422 H         1 J9G         0.0752
     34 H8         20.5603    2.6561  -26.0548 H         1 J9G         0.0557
     35 H9         20.4527    6.9000  -25.7135 H         1 J9G         0.0559
     36 H10        17.4073    4.5405  -23.9048 H         1 J9G         0.0557
     37 H11        25.3960   -4.1656  -22.3110 H         1 J9G         0.0558
     38 H12        21.9604   -5.9290  -20.4995 H         1 J9G         0.0539
     39 H13        21.0941   -1.2139  -25.9347 H         1 J9G         0.2275
     40 H14        22.2819   -0.9286  -19.8857 H         1 J9G         0.2037
@<TRIPOS>BOND
     1    1    2 ar 
     2   19    1 ar 
     3    2   17 ar 
     4    2   24 1  
     5    3    4 ar 
     6    3    9 ar 
     7   24    3 1  
     8    4   25 ar 
     9   16    5 ar 
    10    5   22 1  
    11   25    5 ar 
    12   10    6 1  
    13    6   11 ar 
    14    6   13 ar 
    15   11    7 ar 
    16    7   12 ar 
    17    8   12 ar 
    18   13    8 ar 
    19    9   16 ar 
    20   22   10 1  
    21   22   14 am 
    22   14   23 am 
    23   14   26 2  
    24   15   18 ar 
    25   15   19 ar 
    26   15   20 1  
    27   16   23 1  
    28   17   18 ar 
    29   17   21 1  
    30    1   27 1  
    31    4   28 1  
    32    7   29 1  
    33    8   30 1  
    34    9   31 1  
    35   10   32 1  
    36   10   33 1  
    37   11   34 1  
    38   12   35 1  
    39   13   36 1  
    40   18   37 1  
    41   19   38 1  
    42   23   39 1  
    43   24   40 1  
@<TRIPOS>SUBSTRUCTURE
     1 J9G         1

