### 
### Created by X-TOOL on Wed Jan  1 15:39:37 2020
### 

@<TRIPOS>MOLECULE
6m9t_ligand
   61    61     1     0     0
SMALL
GAST_HUCK


@<TRIPOS>ATOM
      1 C01       125.4710  -11.7130  153.6930 C.3       1 J9P        -0.0653
      2 C02       125.9850  -11.0980  152.4000 C.3       1 J9P        -0.0558
      3 C03       126.0830   -9.5760  152.4530 C.3       1 J9P        -0.0506
      4 C04       126.9870   -9.0750  151.3200 C.3       1 J9P        -0.0227
      5 C05       126.8500   -7.6230  150.8270 C.3       1 J9P         0.0696
      6 C06       125.4420   -7.3710  150.3070 C.3       1 J9P        -0.0345
      7 C07       127.1340   -6.5410  151.8800 C.3       1 J9P        -0.0077
      8 C08       128.4650   -6.7170  152.6130 C.2       1 J9P        -0.0955
      9 C09       129.2040   -5.6560  152.8530 C.2       1 J9P        -0.0904
     10 C10       130.5010   -5.7660  153.5760 C.3       1 J9P         0.0224
     11 C11       131.6590   -4.8950  152.7390 C.3       1 J9P         0.0822
     12 C12       132.6070   -4.5360  153.6850 C.3       1 J9P         0.0495
     13 C13       131.8510   -4.5510  155.0660 C.2       1 J9P         0.1127
     14 C15       130.4220   -5.1070  154.8220 C.3       1 J9P         0.0443
     15 C16       129.9050   -6.0240  155.9870 C.3       1 J9P        -0.0324
     16 C17       130.7920   -7.2340  156.2860 C.3       1 J9P        -0.0505
     17 C18       130.1450   -8.2360  157.2420 C.3       1 J9P        -0.0528
     18 C19       130.3480   -7.8820  158.7150 C.3       1 J9P        -0.0515
     19 C20       131.7300   -8.2250  159.2630 C.3       1 J9P        -0.0414
     20 C21       132.0630   -7.3510  160.4690 C.3       1 J9P         0.0002
     21 C22       133.5530   -7.2940  160.8140 C.2       1 J9P         0.0348
     22 O14       132.3070   -4.1990  156.1090 O.2       1 J9P        -0.3910
     23 O23       133.9190   -7.4600  162.0090 O.co2     1 J9P        -0.5690
     24 O24       134.4160   -7.0660  159.9220 O.co2     1 J9P        -0.5690
     25 O25       132.2330   -5.6960  151.7880 O.3       1 J9P        -0.3871
     26 O26       127.7350   -7.4540  149.7530 O.3       1 J9P        -0.3870
     27 H1        125.4254  -12.8068  153.5860 H         1 J9P         0.0230
     28 H2        124.4653  -11.3236  153.9099 H         1 J9P         0.0230
     29 H3        126.1506  -11.4533  154.5181 H         1 J9P         0.0230
     30 H4        125.3004  -11.3756  151.5850 H         1 J9P         0.0263
     31 H5        126.9857  -11.5053  152.1932 H         1 J9P         0.0263
     32 H6        126.5071   -9.2706  153.4209 H         1 J9P         0.0266
     33 H7        125.0791   -9.1410  152.3389 H         1 J9P         0.0266
     34 H8        126.8036   -9.7261  150.4526 H         1 J9P         0.0294
     35 H9        128.0256   -9.2009  151.6598 H         1 J9P         0.0294
     36 H10       125.3604   -6.3307  149.9590 H         1 J9P         0.0259
     37 H11       124.7161   -7.5453  151.1148 H         1 J9P         0.0259
     38 H12       125.2319   -8.0547  149.4713 H         1 J9P         0.0259
     39 H13       126.3243   -6.5623  152.6243 H         1 J9P         0.0416
     40 H14       127.1436   -5.5630  151.3765 H         1 J9P         0.0416
     41 H15       128.7952   -7.7048  152.9309 H         1 J9P         0.0451
     42 H16       128.8609   -4.6787  152.5167 H         1 J9P         0.0455
     43 H17       130.7887   -6.8211  153.6946 H         1 J9P         0.0478
     44 H18       131.2178   -4.0045  152.2675 H         1 J9P         0.0644
     45 H19       133.0000   -3.5307  153.4730 H         1 J9P         0.0521
     46 H20       133.4355   -5.2595  153.6926 H         1 J9P         0.0521
     47 H21       129.7206   -4.2641  154.7352 H         1 J9P         0.0553
     48 H22       128.9039   -6.3909  155.7165 H         1 J9P         0.0294
     49 H23       129.8377   -5.4140  156.8999 H         1 J9P         0.0294
     50 H24       131.7297   -6.8768  156.7367 H         1 J9P         0.0267
     51 H25       131.0128   -7.7477  155.3387 H         1 J9P         0.0267
     52 H26       130.5831   -9.2280  157.0575 H         1 J9P         0.0265
     53 H27       129.0649   -8.2681  157.0361 H         1 J9P         0.0265
     54 H28       129.5986   -8.4285  159.3063 H         1 J9P         0.0266
     55 H29       130.1903   -6.7998  158.8333 H         1 J9P         0.0266
     56 H30       132.4818   -8.0583  158.4775 H         1 J9P         0.0283
     57 H31       131.7459   -9.2819  159.5674 H         1 J9P         0.0283
     58 H32       131.5225   -7.7472  161.3413 H         1 J9P         0.0430
     59 H33       131.7190   -6.3277  160.2582 H         1 J9P         0.0430
     60 H34       131.5789   -5.9385  151.1431 H         1 J9P         0.2102
     61 H35       128.6245   -7.6059  150.0502 H         1 J9P         0.2104
@<TRIPOS>BOND
     1    1    2 1  
     2    2    3 1  
     3    3    4 1  
     4    4    5 1  
     5    5    6 1  
     6    5    7 1  
     7    5   26 1  
     8    7    8 1  
     9    8    9 2  
    10    9   10 1  
    11   10   11 1  
    12   10   14 1  
    13   11   12 1  
    14   11   25 1  
    15   12   13 1  
    16   13   14 1  
    17   13   22 2  
    18   14   15 1  
    19   15   16 1  
    20   16   17 1  
    21   17   18 1  
    22   18   19 1  
    23   19   20 1  
    24   20   21 1  
    25   21   23 ar 
    26   21   24 ar 
    27    1   27 1  
    28    1   28 1  
    29    1   29 1  
    30    2   30 1  
    31    2   31 1  
    32    3   32 1  
    33    3   33 1  
    34    4   34 1  
    35    4   35 1  
    36    6   36 1  
    37    6   37 1  
    38    6   38 1  
    39    7   39 1  
    40    7   40 1  
    41    8   41 1  
    42    9   42 1  
    43   10   43 1  
    44   11   44 1  
    45   12   45 1  
    46   12   46 1  
    47   14   47 1  
    48   15   48 1  
    49   15   49 1  
    50   16   50 1  
    51   16   51 1  
    52   17   52 1  
    53   17   53 1  
    54   18   54 1  
    55   18   55 1  
    56   19   56 1  
    57   19   57 1  
    58   20   58 1  
    59   20   59 1  
    60   25   60 1  
    61   26   61 1  
@<TRIPOS>SUBSTRUCTURE
     1 J9P         1

