### 
### Created by X-TOOL on Wed Jan  1 15:39:37 2020
### 

@<TRIPOS>MOLECULE
6ma1_ligand
   59    62     1     0     0
SMALL
GAST_HUCK


@<TRIPOS>ATOM
      1 C10       -34.6550   -4.8330    0.3190 C.2       1 JA4         0.0071
      2 C13       -30.5470   -3.2310    3.1130 C.ar      1 JA4         0.0595
      3 C20       -31.7030    1.6640    5.9890 C.ar      1 JA4         0.0265
      4 C21       -32.0300    3.0110    5.6130 C.ar      1 JA4         0.0966
      5 C24       -32.0280    4.0480    6.5660 C.ar      1 JA4        -0.0391
      6 C26       -31.3730    2.4910    8.3280 C.ar      1 JA4        -0.0792
      7 O01       -31.4970   -1.6910    6.0740 O.2       1 JA4        -0.3919
      8 C02       -32.3480   -0.9240    5.5980 C.2       1 JA4         0.2137
      9 C03       -31.6720    0.4420    4.9750 C.3       1 JA4         0.1580
     10 N04       -30.2980    0.1740    4.4120 N.am      1 JA4        -0.2175
     11 S05       -29.9860   -0.2880    2.7730 S.o2      1 JA4         0.0673
     12 C06       -30.9360   -2.0340    2.4850 C.ar      1 JA4         0.1131
     13 C07       -32.0750   -2.2090    1.6430 C.ar      1 JA4        -0.0329
     14 C08       -32.7960   -3.4820    1.4170 C.ar      1 JA4         0.0140
     15 C09       -33.9990   -3.6180    0.5090 C.2       1 JA4        -0.0449
     16 C11       -32.3290   -4.6420    2.0920 C.ar      1 JA4         0.0895
     17 C12       -31.1600   -4.4910    2.9690 C.ar      1 JA4        -0.0164
     18 CL1       -29.0800   -3.1210    4.2330 Cl        1 JA4        -0.0686
     19 N15       -33.0100   -5.9190    1.8970 N.am      1 JA4        -0.2287
     20 C16       -34.1660   -6.0510    1.0270 C.2       1 JA4         0.2061
     21 O17       -34.7090   -7.1650    0.8990 O.2       1 JA4        -0.4039
     22 O18       -30.4980    0.6250    1.8430 O.2       1 JA4        -0.1516
     23 O19       -28.5990   -0.4860    2.6090 O.2       1 JA4        -0.1516
     24 O22       -32.3500    3.2610    4.2750 O.3       1 JA4        -0.3246
     25 C23       -32.8100    4.5650    3.8830 C.3       1 JA4         0.0578
     26 C25       -31.7040    3.7940    7.9150 C.ar      1 JA4        -0.0773
     27 C27       -31.3730    1.4480    7.3660 C.ar      1 JA4        -0.0646
     28 N28       -33.7420   -1.2780    5.6150 N.am      1 JA4        -0.2440
     29 C29       -34.1820   -2.5840    6.2300 C.3       1 JA4         0.0887
     30 C30       -34.8620   -2.4520    7.6750 C.2       1 JA4         0.0574
     31 O31       -34.7190   -1.3710    8.3000 O.co2     1 JA4        -0.5669
     32 O32       -35.5040   -3.4550    8.1150 O.co2     1 JA4        -0.5669
     33 C33       -34.8580   -0.4130    5.0590 C.3       1 JA4         0.0809
     34 C34       -34.9350   -0.1180    3.4930 C.2       1 JA4         0.0346
     35 C35       -34.3340    0.8130    2.6760 C.2       1 JA4        -0.0797
     36 C36       -34.6910    0.7540    1.2280 C.2       1 JA4        -0.0931
     37 C37       -35.5880   -0.2240    0.9220 C.2       1 JA4        -0.0195
     38 S38       -35.9910   -1.0760    2.4090 S.3       1 JA4        -0.0423
     39 H1        -35.5186   -4.8924   -0.3418 H         1 JA4         0.0591
     40 H2        -32.2793    5.0565    6.2581 H         1 JA4         0.0522
     41 H3        -31.1224    2.2872    9.3627 H         1 JA4         0.0506
     42 H4        -32.3019    0.7381    4.1232 H         1 JA4         0.0889
     43 H5        -29.5151    0.2697    5.0268 H         1 JA4         0.1727
     44 H6        -32.4447   -1.3325    1.1232 H         1 JA4         0.0632
     45 H7        -34.3649   -2.7358   -0.0142 H         1 JA4         0.0722
     46 H8        -30.7695   -5.3486    3.5048 H         1 JA4         0.0532
     47 H9        -32.6701   -6.7277    2.3772 H         1 JA4         0.2373
     48 H10       -33.0109    4.5731    2.8015 H         1 JA4         0.0575
     49 H11       -32.0378    5.3122    4.1180 H         1 JA4         0.0575
     50 H12       -33.7334    4.8077    4.4293 H         1 JA4         0.0575
     51 H13       -31.7101    4.6045    8.6348 H         1 JA4         0.0533
     52 H14       -31.1124    0.4458    7.6866 H         1 JA4         0.0531
     53 H15       -33.2982   -3.2319    6.3258 H         1 JA4         0.0694
     54 H16       -34.9092   -3.0538    5.5515 H         1 JA4         0.0694
     55 H17       -34.7845    0.5623    5.5624 H         1 JA4         0.0714
     56 H18       -35.8048   -0.8988    5.3373 H         1 JA4         0.0714
     57 H19       -33.6358    1.5526    3.0653 H         1 JA4         0.0277
     58 H20       -34.2726    1.4308    0.4845 H         1 JA4         0.0371
     59 H21       -35.9860   -0.4409   -0.0682 H         1 JA4         0.0598
@<TRIPOS>BOND
     1   15    1 2  
     2    1   20 1  
     3   12    2 ar 
     4    2   17 ar 
     5    2   18 1  
     6    3    4 ar 
     7    9    3 1  
     8    3   27 ar 
     9    4    5 ar 
    10    4   24 1  
    11    5   26 ar 
    12    6   26 ar 
    13   27    6 ar 
    14    8    7 2  
    15    9    8 1  
    16    8   28 am 
    17   10    9 1  
    18   11   10 am 
    19   12   11 1  
    20   11   22 2  
    21   11   23 2  
    22   13   12 ar 
    23   14   13 ar 
    24   14   15 1  
    25   14   16 ar 
    26   16   17 ar 
    27   16   19 1  
    28   19   20 am 
    29   20   21 2  
    30   24   25 1  
    31   28   29 1  
    32   28   33 1  
    33   29   30 1  
    34   30   31 ar 
    35   30   32 ar 
    36   33   34 1  
    37   34   35 2  
    38   34   38 1  
    39   35   36 1  
    40   36   37 2  
    41   37   38 1  
    42    1   39 1  
    43    5   40 1  
    44    6   41 1  
    45    9   42 1  
    46   10   43 1  
    47   13   44 1  
    48   15   45 1  
    49   17   46 1  
    50   19   47 1  
    51   25   48 1  
    52   25   49 1  
    53   25   50 1  
    54   26   51 1  
    55   27   52 1  
    56   29   53 1  
    57   29   54 1  
    58   33   55 1  
    59   33   56 1  
    60   35   57 1  
    61   36   58 1  
    62   37   59 1  
@<TRIPOS>SUBSTRUCTURE
     1 JA4         1

