### 
### Created by X-TOOL on Wed Jan  1 15:39:36 2020
### 

@<TRIPOS>MOLECULE
6ma2_ligand
   59    62     1     0     0
SMALL
GAST_HUCK


@<TRIPOS>ATOM
      1 N12         1.2830  -43.8060   16.1390 N.am      1 J9S        -0.2175
      2 C13         1.5850  -45.0800   16.8990 C.3       1 J9S         0.1580
      3 C17        -1.3120  -49.0170   18.2480 C.2       1 J9S         0.0574
      4 C20         1.6260  -48.3330   17.3230 C.3       1 J9S         0.0809
      5 C21         2.5540  -48.8450   16.1510 C.2       1 J9S         0.0346
      6 C22         2.3930  -49.8160   15.1780 C.2       1 J9S        -0.0797
      7 C24         4.5440  -49.1460   14.5020 C.2       1 J9S        -0.0195
      8 C28         3.3270  -45.0970   18.8660 C.ar      1 J9S         0.0966
      9 O01        -0.0990  -49.2710    9.3830 O.2       1 J9S        -0.4039
     10 C02         0.0320  -48.3060   10.1180 C.2       1 J9S         0.2062
     11 N03         1.2070  -48.2140   10.8920 N.am      1 J9S        -0.2286
     12 C04         1.4460  -47.1120   11.7780 C.ar      1 J9S         0.0892
     13 C05         0.4760  -46.0760   11.9000 C.ar      1 J9S         0.0140
     14 C06        -0.7670  -46.1650   11.1100 C.2       1 J9S        -0.0449
     15 C07        -0.9820  -47.2320   10.2510 C.2       1 J9S         0.0071
     16 C08         0.7730  -44.9880   12.8170 C.ar      1 J9S        -0.0333
     17 C09         1.9410  -44.8700   13.5830 C.ar      1 J9S         0.0992
     18 S10         2.2540  -43.4370   14.8130 S.o2      1 J9S         0.0668
     19 O11         3.6050  -43.6140   15.1820 O.2       1 J9S        -0.1516
     20 C14         0.3290  -46.1460   16.7590 C.2       1 J9S         0.2137
     21 N15         0.3590  -47.5080   16.9470 N.am      1 J9S        -0.2440
     22 C16        -0.8580  -48.3440   16.8230 C.3       1 J9S         0.0887
     23 O18        -1.5630  -48.2120   19.1790 O.co2     1 J9S        -0.5669
     24 O19        -1.3730  -50.2730   18.3480 O.co2     1 J9S        -0.5669
     25 C23         3.4920  -49.9870   14.2660 C.2       1 J9S        -0.0931
     26 S25         4.1510  -48.1450   15.8690 S.3       1 J9S        -0.0423
     27 O26        -0.7070  -45.4820   16.4640 O.2       1 J9S        -0.3919
     28 C27         2.0010  -44.8280   18.4000 C.ar      1 J9S         0.0265
     29 O29         4.2160  -45.5900   17.8980 O.3       1 J9S        -0.3246
     30 C30         5.6260  -45.8240   18.1810 C.3       1 J9S         0.0578
     31 C31         3.6840  -44.8710   20.2100 C.ar      1 J9S        -0.0391
     32 C32         2.7400  -44.3770   21.1300 C.ar      1 J9S        -0.0773
     33 C33         1.4290  -44.0990   20.7100 C.ar      1 J9S        -0.0792
     34 C34         1.0650  -44.3280   19.3530 C.ar      1 J9S        -0.0646
     35 O35         1.9600  -42.2190   14.1770 O.2       1 J9S        -0.1516
     36 C36         2.8790  -45.9480   13.4450 C.ar      1 J9S        -0.0432
     37 C37         2.6510  -47.0260   12.5600 C.ar      1 J9S        -0.0301
     38 H1          0.5332  -43.2045   16.4146 H         1 J9S         0.1727
     39 H2          2.4546  -45.5433   16.4100 H         1 J9S         0.0889
     40 H3          2.2446  -47.7017   17.9778 H         1 J9S         0.0714
     41 H4          1.2861  -49.2178   17.8812 H         1 J9S         0.0714
     42 H5          1.4868  -50.4158   15.1070 H         1 J9S         0.0277
     43 H6          5.4706  -49.1092   13.9310 H         1 J9S         0.0598
     44 H7          1.8933  -48.9379   10.8211 H         1 J9S         0.2374
     45 H8         -1.5222  -45.3858   11.2024 H         1 J9S         0.0722
     46 H9         -1.9018  -47.2817    9.6700 H         1 J9S         0.0592
     47 H10         0.0309  -44.2041   12.9166 H         1 J9S         0.0632
     48 H11        -1.6809  -47.7147   16.4531 H         1 J9S         0.0694
     49 H12        -0.6593  -49.1496   16.1009 H         1 J9S         0.0694
     50 H13         3.4867  -50.7199   13.4605 H         1 J9S         0.0371
     51 H14         6.1223  -46.2086   17.2778 H         1 J9S         0.0575
     52 H15         5.7198  -46.5605   18.9926 H         1 J9S         0.0575
     53 H16         6.1004  -44.8796   18.4861 H         1 J9S         0.0575
     54 H17         4.6956  -45.0796   20.5389 H         1 J9S         0.0522
     55 H18         3.0250  -44.2112   22.1626 H         1 J9S         0.0533
     56 H19         0.7001  -43.7131   21.4135 H         1 J9S         0.0506
     57 H20         0.0502  -44.1169   19.0357 H         1 J9S         0.0531
     58 H21         3.7875  -45.9348   14.0361 H         1 J9S         0.0630
     59 H22         3.3997  -47.8046   12.4683 H         1 J9S         0.0528
@<TRIPOS>BOND
     1    2    1 1  
     2    1   18 am 
     3   20    2 1  
     4    2   28 1  
     5   22    3 1  
     6    3   23 ar 
     7    3   24 ar 
     8    4    5 1  
     9   21    4 1  
    10    5    6 2  
    11    5   26 1  
    12    6   25 1  
    13    7   25 2  
    14   26    7 1  
    15   28    8 ar 
    16    8   29 1  
    17    8   31 ar 
    18   10    9 2  
    19   11   10 am 
    20   15   10 1  
    21   12   11 1  
    22   13   12 ar 
    23   12   37 ar 
    24   13   14 1  
    25   16   13 ar 
    26   14   15 2  
    27   17   16 ar 
    28   18   17 1  
    29   17   36 ar 
    30   18   19 2  
    31   18   35 2  
    32   21   20 am 
    33   20   27 2  
    34   21   22 1  
    35   28   34 ar 
    36   29   30 1  
    37   31   32 ar 
    38   32   33 ar 
    39   33   34 ar 
    40   36   37 ar 
    41    1   38 1  
    42    2   39 1  
    43    4   40 1  
    44    4   41 1  
    45    6   42 1  
    46    7   43 1  
    47   11   44 1  
    48   14   45 1  
    49   15   46 1  
    50   16   47 1  
    51   22   48 1  
    52   22   49 1  
    53   25   50 1  
    54   30   51 1  
    55   30   52 1  
    56   30   53 1  
    57   31   54 1  
    58   32   55 1  
    59   33   56 1  
    60   34   57 1  
    61   36   58 1  
    62   37   59 1  
@<TRIPOS>SUBSTRUCTURE
     1 J9S         1

