### 
### Created by X-TOOL on Wed Jan  1 15:39:36 2020
### 

@<TRIPOS>MOLECULE
6ma3_ligand
   67    70     1     0     0
SMALL
GAST_HUCK


@<TRIPOS>ATOM
      1 N12         2.1330  -43.9540   16.2080 N.am      1 JAJ        -0.2175
      2 C13         0.9170  -44.5020   16.7600 C.3       1 JAJ         0.1580
      3 C15         0.1060  -43.4540   18.8970 C.ar      1 JAJ         0.0970
      4 C17        -1.8570  -42.1100   18.7940 C.3       1 JAJ         0.0704
      5 C20        -2.8290  -39.7460   15.8750 C.2       1 JAJ         0.0349
      6 C24         1.1090  -43.9830   21.0120 C.ar      1 JAJ        -0.0773
      7 C26         1.9230  -45.0200   19.0110 C.ar      1 JAJ        -0.0646
      8 O01        -0.0850  -49.1720    9.4470 O.2       1 JAJ        -0.4039
      9 C02         0.0360  -48.2400   10.1600 C.2       1 JAJ         0.2062
     10 N03         1.2820  -48.0750   10.8920 N.am      1 JAJ        -0.2286
     11 C04         1.4660  -46.8830   11.8170 C.ar      1 JAJ         0.0892
     12 C05         0.4360  -45.9340   11.9650 C.ar      1 JAJ         0.0140
     13 C06        -0.8810  -46.0990   11.2000 C.2       1 JAJ        -0.0449
     14 C07        -1.0610  -47.2500   10.3110 C.2       1 JAJ         0.0071
     15 C08         0.6190  -44.8500   12.8230 C.ar      1 JAJ        -0.0333
     16 C09         1.8240  -44.7140   13.5100 C.ar      1 JAJ         0.0992
     17 S10         2.0620  -43.3190   14.6350 S.o2      1 JAJ         0.0668
     18 O11         0.9600  -42.3630   14.5090 O.2       1 JAJ        -0.1516
     19 C14         0.9810  -44.3260   18.2740 C.ar      1 JAJ         0.0265
     20 O16        -0.8260  -42.7630   18.1120 O.3       1 JAJ        -0.3212
     21 C18        -2.7120  -41.3790   17.7670 C.3       1 JAJ        -0.0137
     22 C19        -1.8990  -40.4910   16.8280 C.3       1 JAJ         0.0026
     23 O21        -4.0120  -40.1600   15.7300 O.co2     1 JAJ        -0.5690
     24 O22        -2.4310  -38.7240   15.2520 O.co2     1 JAJ        -0.5690
     25 C23         0.1710  -43.2850   20.2720 C.ar      1 JAJ        -0.0391
     26 C25         1.9870  -44.8470   20.3870 C.ar      1 JAJ        -0.0792
     27 C27         0.8160  -45.9860   16.3780 C.2       1 JAJ         0.2137
     28 N28        -0.4790  -46.6610   16.3030 N.am      1 JAJ        -0.2440
     29 C29        -0.5330  -48.0650   15.9260 C.3       1 JAJ         0.0887
     30 C30        -0.2160  -48.9650   17.1190 C.2       1 JAJ         0.0574
     31 O31        -0.2220  -48.4940   18.2860 O.co2     1 JAJ        -0.5669
     32 O32         0.0600  -50.1780   16.9240 O.co2     1 JAJ        -0.5669
     33 C33        -1.7180  -45.9560   16.5890 C.3       1 JAJ         0.0809
     34 C34        -2.4120  -45.4910   15.3120 C.2       1 JAJ         0.0346
     35 C35        -2.5390  -44.1700   14.8580 C.2       1 JAJ        -0.0797
     36 C36        -3.2600  -44.0640   13.6230 C.2       1 JAJ        -0.0931
     37 C37        -3.7110  -45.2820   13.0980 C.2       1 JAJ        -0.0195
     38 S38        -3.2030  -46.4710   14.1830 S.3       1 JAJ        -0.0423
     39 O39         1.8050  -46.5910   16.1350 O.2       1 JAJ        -0.3919
     40 O40         3.2530  -42.5410   14.2980 O.2       1 JAJ        -0.1516
     41 C41         2.8540  -45.6590   13.3620 C.ar      1 JAJ        -0.0432
     42 C42         2.6680  -46.7460   12.5130 C.ar      1 JAJ        -0.0301
     43 H1          2.9847  -43.9486   16.7320 H         1 JAJ         0.1727
     44 H2          0.0448  -43.9631   16.3613 H         1 JAJ         0.0889
     45 H3         -1.4337  -41.3887   19.5085 H         1 JAJ         0.0612
     46 H4         -2.4707  -42.8451   19.3352 H         1 JAJ         0.0612
     47 H5          1.1550  -43.8512   22.0870 H         1 JAJ         0.0533
     48 H6          2.6095  -45.6972   18.5158 H         1 JAJ         0.0531
     49 H7          2.0168  -48.7451   10.7868 H         1 JAJ         0.2374
     50 H8         -1.6780  -45.3660   11.3160 H         1 JAJ         0.0722
     51 H9         -1.9939  -47.3788    9.7641 H         1 JAJ         0.0592
     52 H10        -0.1701  -44.1186   12.9546 H         1 JAJ         0.0632
     53 H11        -3.4382  -40.7492   18.3017 H         1 JAJ         0.0309
     54 H12        -3.2486  -42.1261   17.1638 H         1 JAJ         0.0309
     55 H13        -1.3263  -39.7628   17.4210 H         1 JAJ         0.0431
     56 H14        -1.2058  -41.1158   16.2457 H         1 JAJ         0.0431
     57 H15        -0.5134  -42.6057   20.7673 H         1 JAJ         0.0522
     58 H16         2.7239  -45.3884   20.9692 H         1 JAJ         0.0506
     59 H17         0.2019  -48.2520   15.1292 H         1 JAJ         0.0694
     60 H18        -1.5422  -48.2997   15.5566 H         1 JAJ         0.0694
     61 H19        -1.4926  -45.0778   17.2119 H         1 JAJ         0.0714
     62 H20        -2.3934  -46.6301   17.1362 H         1 JAJ         0.0714
     63 H21        -2.1312  -43.3115   15.3897 H         1 JAJ         0.0277
     64 H22        -3.4429  -43.1099   13.1310 H         1 JAJ         0.0371
     65 H23        -4.2742  -45.4312   12.1780 H         1 JAJ         0.0598
     66 H24         3.7852  -45.5421   13.9045 H         1 JAJ         0.0630
     67 H25         3.4535  -47.4833   12.3928 H         1 JAJ         0.0528
@<TRIPOS>BOND
     1    2    1 1  
     2    1   17 am 
     3   19    2 1  
     4    2   27 1  
     5    3   19 ar 
     6   20    3 1  
     7    3   25 ar 
     8    4   20 1  
     9   21    4 1  
    10   22    5 1  
    11    5   23 ar 
    12    5   24 ar 
    13   25    6 ar 
    14    6   26 ar 
    15   19    7 ar 
    16    7   26 ar 
    17    9    8 2  
    18   10    9 am 
    19   14    9 1  
    20   11   10 1  
    21   12   11 ar 
    22   11   42 ar 
    23   12   13 1  
    24   15   12 ar 
    25   13   14 2  
    26   16   15 ar 
    27   17   16 1  
    28   16   41 ar 
    29   17   18 2  
    30   17   40 2  
    31   21   22 1  
    32   27   28 am 
    33   27   39 2  
    34   28   29 1  
    35   28   33 1  
    36   29   30 1  
    37   30   31 ar 
    38   30   32 ar 
    39   33   34 1  
    40   34   35 2  
    41   34   38 1  
    42   35   36 1  
    43   36   37 2  
    44   37   38 1  
    45   41   42 ar 
    46    1   43 1  
    47    2   44 1  
    48    4   45 1  
    49    4   46 1  
    50    6   47 1  
    51    7   48 1  
    52   10   49 1  
    53   13   50 1  
    54   14   51 1  
    55   15   52 1  
    56   21   53 1  
    57   21   54 1  
    58   22   55 1  
    59   22   56 1  
    60   25   57 1  
    61   26   58 1  
    62   29   59 1  
    63   29   60 1  
    64   33   61 1  
    65   33   62 1  
    66   35   63 1  
    67   36   64 1  
    68   37   65 1  
    69   41   66 1  
    70   42   67 1  
@<TRIPOS>SUBSTRUCTURE
     1 JAJ         1

