### 
### Created by X-TOOL on Wed Jan  1 15:39:36 2020
### 

@<TRIPOS>MOLECULE
6ma4_ligand
   70    73     1     0     0
SMALL
GAST_HUCK


@<TRIPOS>ATOM
      1 C10         1.7420  -44.9370   13.4060 C.ar      1 JA7         0.0992
      2 N12         2.1320  -44.1080   16.1650 N.am      1 JA7        -0.2175
      3 C13         0.9450  -44.7950   16.8600 C.3       1 JA7         0.1580
      4 C15        -0.1300  -43.7680   19.0530 C.ar      1 JA7         0.0970
      5 C17        -1.9590  -42.0780   18.7240 C.3       1 JA7         0.0690
      6 C20        -3.7380  -40.3440   15.4840 C.3       1 JA7         0.0003
      7 C21        -3.3580  -39.2930   14.3620 C.2       1 JA7         0.0348
      8 C24        -0.0820  -43.5860   20.4460 C.ar      1 JA7        -0.0391
      9 C26         1.9720  -44.9010   20.6380 C.ar      1 JA7        -0.0792
     10 C28         0.7620  -46.3760   16.4370 C.2       1 JA7         0.2137
     11 O01        -0.1710  -49.5680    9.2610 O.2       1 JA7        -0.4039
     12 C02        -0.0670  -48.5810   10.0060 C.2       1 JA7         0.2062
     13 N03         1.1520  -48.3810   10.7190 N.am      1 JA7        -0.2286
     14 C04        -1.1620  -47.5980   10.1910 C.2       1 JA7         0.0071
     15 C05        -0.9830  -46.5170   11.0410 C.2       1 JA7        -0.0449
     16 C06         0.2980  -46.2970   11.7920 C.ar      1 JA7         0.0140
     17 C07         1.3450  -47.2430   11.6120 C.ar      1 JA7         0.0892
     18 C08         2.5880  -47.0260   12.3390 C.ar      1 JA7        -0.0301
     19 C09         2.7630  -45.9180   13.2100 C.ar      1 JA7        -0.0432
     20 S11         1.9580  -43.4090   14.6260 S.o2      1 JA7         0.0668
     21 C14         0.9120  -44.5500   18.4090 C.ar      1 JA7         0.0265
     22 O16        -1.1510  -43.2240   18.2740 O.3       1 JA7        -0.3213
     23 C18        -3.1000  -41.6270   17.7000 C.3       1 JA7        -0.0238
     24 C19        -2.6250  -40.6880   16.5080 C.3       1 JA7        -0.0390
     25 O22        -3.8200  -39.4250   13.1810 O.co2     1 JA7        -0.5690
     26 O23        -2.5940  -38.3310   14.6700 O.co2     1 JA7        -0.5690
     27 C25         0.9470  -44.1430   21.2360 C.ar      1 JA7        -0.0773
     28 C27         1.9380  -45.0940   19.2340 C.ar      1 JA7        -0.0646
     29 N29        -0.4750  -47.0290   16.2900 N.am      1 JA7        -0.2440
     30 C30        -0.5450  -48.4800   15.8950 C.3       1 JA7         0.0887
     31 C31        -0.4540  -49.5490   17.0660 C.2       1 JA7         0.0574
     32 O32        -0.3750  -49.0850   18.2440 O.co2     1 JA7        -0.5669
     33 O33        -0.4610  -50.7800   16.7950 O.co2     1 JA7        -0.5669
     34 C34        -1.8000  -46.3170   16.4920 C.3       1 JA7         0.0809
     35 C35        -2.5940  -45.8520   15.2160 C.2       1 JA7         0.0346
     36 C36        -2.9060  -44.6050   14.7150 C.2       1 JA7        -0.0797
     37 C37        -3.6880  -44.5960   13.4440 C.2       1 JA7        -0.0931
     38 C38        -3.9730  -45.8460   12.9680 C.2       1 JA7        -0.0195
     39 S39        -3.2960  -47.0150   14.0760 S.3       1 JA7        -0.0423
     40 O40         1.8610  -46.9380   16.2690 O.2       1 JA7        -0.3919
     41 O41         3.0970  -42.6610   14.2190 O.2       1 JA7        -0.1516
     42 O42         0.7730  -42.6310   14.5380 O.2       1 JA7        -0.1516
     43 C43         0.5410  -45.1760   12.6930 C.ar      1 JA7        -0.0333
     44 H1          3.0191  -44.0720   16.6252 H         1 JA7         0.1727
     45 H2          0.0499  -44.2886   16.4696 H         1 JA7         0.0889
     46 H3         -1.2844  -41.2240   18.8841 H         1 JA7         0.0611
     47 H4         -2.4395  -42.3492   19.6756 H         1 JA7         0.0611
     48 H5         -4.0325  -41.2778   14.9827 H         1 JA7         0.0430
     49 H6         -4.5955  -39.9419   16.0434 H         1 JA7         0.0430
     50 H7         -0.8574  -43.0012   20.9275 H         1 JA7         0.0522
     51 H8          2.7685  -45.3270   21.2373 H         1 JA7         0.0506
     52 H9          1.8957  -49.0395   10.6037 H         1 JA7         0.2374
     53 H10        -2.1046  -47.7248    9.6605 H         1 JA7         0.0592
     54 H11        -1.7974  -45.8053   11.1677 H         1 JA7         0.0722
     55 H12         3.4025  -47.7299   12.2118 H         1 JA7         0.0528
     56 H13         3.7009  -45.8129   13.7433 H         1 JA7         0.0630
     57 H14        -3.8707  -41.0866   18.2693 H         1 JA7         0.0292
     58 H15        -3.5380  -42.5353   17.2606 H         1 JA7         0.0292
     59 H16        -2.2504  -39.7476   16.9386 H         1 JA7         0.0284
     60 H17        -1.8097  -41.1967   15.9728 H         1 JA7         0.0284
     61 H18         0.9480  -43.9863   22.3086 H         1 JA7         0.0533
     62 H19         2.7239  -45.6787   18.7698 H         1 JA7         0.0531
     63 H20         0.2857  -48.6759   15.2011 H         1 JA7         0.0694
     64 H21        -1.5017  -48.6371   15.3754 H         1 JA7         0.0694
     65 H22        -1.5999  -45.4202   17.0968 H         1 JA7         0.0714
     66 H23        -2.4551  -46.9993   17.0535 H         1 JA7         0.0714
     67 H24        -2.6013  -43.6866   15.2147 H         1 JA7         0.0277
     68 H25        -4.0018  -43.6813   12.9433 H         1 JA7         0.0371
     69 H26        -4.5254  -46.0731   12.0574 H         1 JA7         0.0598
     70 H27        -0.2660  -44.4651   12.8287 H         1 JA7         0.0632
@<TRIPOS>BOND
     1    1   19 ar 
     2   20    1 1  
     3    1   43 ar 
     4    3    2 1  
     5    2   20 am 
     6    3   10 1  
     7   21    3 1  
     8    4    8 ar 
     9    4   21 ar 
    10   22    4 1  
    11    5   22 1  
    12   23    5 1  
    13    6    7 1  
    14   24    6 1  
    15    7   25 ar 
    16    7   26 ar 
    17    8   27 ar 
    18   27    9 ar 
    19   28    9 ar 
    20   10   29 am 
    21   10   40 2  
    22   12   11 2  
    23   13   12 am 
    24   14   12 1  
    25   17   13 1  
    26   15   14 2  
    27   16   15 1  
    28   16   17 ar 
    29   43   16 ar 
    30   18   17 ar 
    31   19   18 ar 
    32   20   41 2  
    33   20   42 2  
    34   21   28 ar 
    35   23   24 1  
    36   29   30 1  
    37   29   34 1  
    38   30   31 1  
    39   31   32 ar 
    40   31   33 ar 
    41   34   35 1  
    42   35   36 2  
    43   35   39 1  
    44   36   37 1  
    45   37   38 2  
    46   38   39 1  
    47    2   44 1  
    48    3   45 1  
    49    5   46 1  
    50    5   47 1  
    51    6   48 1  
    52    6   49 1  
    53    8   50 1  
    54    9   51 1  
    55   13   52 1  
    56   14   53 1  
    57   15   54 1  
    58   18   55 1  
    59   19   56 1  
    60   23   57 1  
    61   23   58 1  
    62   24   59 1  
    63   24   60 1  
    64   27   61 1  
    65   28   62 1  
    66   30   63 1  
    67   30   64 1  
    68   34   65 1  
    69   34   66 1  
    70   36   67 1  
    71   37   68 1  
    72   38   69 1  
    73   43   70 1  
@<TRIPOS>SUBSTRUCTURE
     1 JA7         1

