### 
### Created by X-TOOL on Wed Jan  1 15:39:36 2020
### 

@<TRIPOS>MOLECULE
6ma5_ligand
   59    62     1     0     0
SMALL
GAST_HUCK


@<TRIPOS>ATOM
      1 N12         1.8900  -44.1550   16.2110 N.am      1 J9V        -0.2175
      2 C13         0.6820  -44.7730   16.8090 C.3       1 J9V         0.1580
      3 C17        -0.2960  -49.4290   17.3760 C.2       1 J9V         0.0574
      4 C20        -1.8520  -46.4460   16.6800 C.3       1 J9V         0.0809
      5 C21        -2.5320  -45.8890   15.4000 C.2       1 J9V         0.0346
      6 C22        -2.7700  -44.5880   14.9960 C.2       1 J9V        -0.0797
      7 C24        -3.7090  -45.6700   13.1570 C.2       1 J9V        -0.0195
      8 C28        -0.3820  -43.5740   18.8040 C.ar      1 J9V         0.0966
      9 O01         0.0520  -49.5170    9.4060 O.2       1 J9V        -0.4039
     10 C02         0.0640  -48.5280   10.1160 C.2       1 J9V         0.2062
     11 N03         1.2020  -48.2760   10.8920 N.am      1 J9V        -0.2286
     12 C04         1.3770  -47.1890   11.7520 C.ar      1 J9V         0.0892
     13 C05         0.3160  -46.2330   11.8760 C.ar      1 J9V         0.0140
     14 C06        -0.8800  -46.4930   11.0680 C.2       1 J9V        -0.0449
     15 C07        -1.0200  -47.5490   10.2440 C.2       1 J9V         0.0071
     16 C08         0.5290  -45.1340   12.7770 C.ar      1 J9V        -0.0333
     17 C09         1.6790  -44.8810   13.5300 C.ar      1 J9V         0.0992
     18 S10         1.8470  -43.4810   14.6950 S.o2      1 J9V         0.0668
     19 O11         0.6990  -42.6680   14.5480 O.2       1 J9V        -0.1516
     20 C14         0.6680  -46.3230   16.4800 C.2       1 J9V         0.2137
     21 N15        -0.5300  -47.0800   16.4350 N.am      1 J9V        -0.2440
     22 C16        -0.4980  -48.5320   16.1010 C.3       1 J9V         0.0887
     23 O18        -0.4200  -48.8780   18.4770 O.co2     1 J9V        -0.5669
     24 O19        -0.0220  -50.6130   17.1330 O.co2     1 J9V        -0.5669
     25 C23        -3.4410  -44.4610   13.7210 C.2       1 J9V        -0.0931
     26 S25        -3.1640  -46.9110   14.1700 S.3       1 J9V        -0.0423
     27 O26         1.7430  -46.8410   16.2610 O.2       1 J9V        -0.3919
     28 C27         0.6070  -44.4700   18.2980 C.ar      1 J9V         0.0265
     29 O29        -1.2690  -43.0100   17.9100 O.3       1 J9V        -0.3246
     30 C30        -2.4370  -42.3300   18.3560 C.3       1 J9V         0.0578
     31 C31        -0.4180  -43.2800   20.1760 C.ar      1 J9V        -0.0391
     32 C32         0.4900  -43.8600   21.0620 C.ar      1 J9V        -0.0773
     33 C33         1.4570  -44.7360   20.5840 C.ar      1 J9V        -0.0792
     34 C34         1.5040  -45.0220   19.2150 C.ar      1 J9V        -0.0646
     35 O35         3.0850  -42.8210   14.4580 O.2       1 J9V        -0.1516
     36 C36         2.6930  -45.8690   13.3910 C.ar      1 J9V        -0.0432
     37 C37         2.5620  -46.9530   12.5450 C.ar      1 J9V        -0.0301
     38 H1          2.7448  -44.1442   16.7298 H         1 J9V         0.1727
     39 H2         -0.2040  -44.3236   16.3367 H         1 J9V         0.0889
     40 H3         -2.5189  -47.1982   17.1266 H         1 J9V         0.0714
     41 H4         -1.7113  -45.6148   17.3866 H         1 J9V         0.0714
     42 H5         -2.4749  -43.7256   15.5919 H         1 J9V         0.0277
     43 H6         -4.2010  -45.8170   12.1967 H         1 J9V         0.0598
     44 H7          1.9547  -48.9309   10.8248 H         1 J9V         0.2374
     45 H8         -1.7068  -45.7878   11.1388 H         1 J9V         0.0722
     46 H9         -1.9384  -47.6758    9.6727 H         1 J9V         0.0592
     47 H10        -0.2867  -44.4281   12.8837 H         1 J9V         0.0632
     48 H11        -1.4492  -48.8064   15.6216 H         1 J9V         0.0694
     49 H12         0.3314  -48.7168   15.4025 H         1 J9V         0.0694
     50 H13        -3.7018  -43.5072   13.2647 H         1 J9V         0.0371
     51 H14        -3.0004  -41.9601   17.4866 H         1 J9V         0.0575
     52 H15        -2.1466  -41.4814   18.9928 H         1 J9V         0.0575
     53 H16        -3.0668  -43.0229   18.9332 H         1 J9V         0.0575
     54 H17        -1.1643  -42.5904   20.5536 H         1 J9V         0.0522
     55 H18         0.4414  -43.6281   22.1198 H         1 J9V         0.0533
     56 H19         2.1670  -45.1927   21.2640 H         1 J9V         0.0506
     57 H20         2.2679  -45.6997   18.8514 H         1 J9V         0.0531
     58 H21         3.6031  -45.7673   13.9711 H         1 J9V         0.0630
     59 H22         3.3832  -47.6569   12.4728 H         1 J9V         0.0528
@<TRIPOS>BOND
     1    2    1 1  
     2    1   18 am 
     3   20    2 1  
     4    2   28 1  
     5   22    3 1  
     6    3   23 ar 
     7    3   24 ar 
     8    4    5 1  
     9   21    4 1  
    10    5    6 2  
    11    5   26 1  
    12    6   25 1  
    13    7   25 2  
    14   26    7 1  
    15   28    8 ar 
    16    8   29 1  
    17    8   31 ar 
    18   10    9 2  
    19   11   10 am 
    20   15   10 1  
    21   12   11 1  
    22   13   12 ar 
    23   12   37 ar 
    24   13   14 1  
    25   16   13 ar 
    26   14   15 2  
    27   17   16 ar 
    28   18   17 1  
    29   17   36 ar 
    30   18   19 2  
    31   18   35 2  
    32   21   20 am 
    33   20   27 2  
    34   21   22 1  
    35   28   34 ar 
    36   29   30 1  
    37   31   32 ar 
    38   32   33 ar 
    39   33   34 ar 
    40   36   37 ar 
    41    1   38 1  
    42    2   39 1  
    43    4   40 1  
    44    4   41 1  
    45    6   42 1  
    46    7   43 1  
    47   11   44 1  
    48   14   45 1  
    49   15   46 1  
    50   16   47 1  
    51   22   48 1  
    52   22   49 1  
    53   25   50 1  
    54   30   51 1  
    55   30   52 1  
    56   30   53 1  
    57   31   54 1  
    58   32   55 1  
    59   33   56 1  
    60   34   57 1  
    61   36   58 1  
    62   37   59 1  
@<TRIPOS>SUBSTRUCTURE
     1 J9V         1

