### 
### Created by X-TOOL on Mon Aug  2 16:14:44 2021
### 

@<TRIPOS>MOLECULE
6maj_ligand
   45    47     1     0     0
SMALL
GAST_HUCK


@<TRIPOS>ATOM
      1 C16        26.0900  187.9670  -69.1910 C.ar      1 JAV         0.1015
      2 C17        26.7040  187.2460  -70.1710 C.ar      1 JAV        -0.0463
      3 C18        27.1240  185.9670  -69.9030 C.ar      1 JAV        -0.0688
      4 C19        26.9180  185.4230  -68.6480 C.ar      1 JAV        -0.0333
      5 C20        26.3020  186.1520  -67.6740 C.ar      1 JAV         0.0895
      6 C21        25.8810  187.4240  -67.9400 C.ar      1 JAV        -0.0068
      7 C01        29.3520  188.5100  -75.7630 C.3       1 JAV        -0.0293
      8 C02        29.0600  189.9480  -75.1340 C.ar      1 JAV        -0.0056
      9 C03        29.5930  191.0580  -75.7010 C.ar      1 JAV        -0.0501
     10 C04        29.3380  192.2890  -75.1610 C.ar      1 JAV        -0.0227
     11 C05        28.5600  192.3970  -74.0620 C.ar      1 JAV        -0.0421
     12 C06        28.0360  191.3100  -73.5060 C.ar      1 JAV         0.0796
     13 C07        28.2900  190.0590  -74.0460 C.ar      1 JAV         0.1546
     14 C09        27.1260  191.4370  -72.1910 C.2       1 JAV         0.2211
     15 C23        29.9070  193.5000  -75.7460 C.ar      1 JAV        -0.0210
     16 C24        31.1780  193.4560  -76.3130 C.ar      1 JAV        -0.0550
     17 C25        31.7400  194.6090  -76.8630 C.ar      1 JAV        -0.0618
     18 C26        31.0180  195.8280  -76.8390 C.ar      1 JAV        -0.0623
     19 C27        29.7680  195.8720  -76.2700 C.ar      1 JAV        -0.0618
     20 C28        29.1980  194.6940  -75.7120 C.ar      1 JAV        -0.0550
     21 F08        27.7350  188.9330  -73.4580 F         1 JAV        -0.1823
     22 N11        27.5610  190.6820  -71.0000 N.am      1 JAV        -0.1892
     23 N12        26.8050  190.7350  -69.7550 N.am      1 JAV        -0.1450
     24 O10        26.1550  192.1260  -72.1680 O.2       1 JAV        -0.3852
     25 O14        24.6180  189.6770  -70.6490 O.2       1 JAV        -0.1488
     26 O15        24.6380  190.1840  -68.4520 O.2       1 JAV        -0.1488
     27 O22        26.0850  185.5920  -66.3690 O.3       1 JAV        -0.3330
     28 S13        25.5060  189.6860  -69.5230 S.o2      1 JAV         0.0845
     29 H1         26.8592  187.6785  -71.1528 H         1 JAV         0.0542
     30 H2         27.6162  185.3844  -70.6733 H         1 JAV         0.0589
     31 H3         27.2479  184.4121  -68.4377 H         1 JAV         0.0542
     32 H4         25.3845  188.0047  -67.1710 H         1 JAV         0.0561
     33 H5         29.9990  188.6204  -76.6457 H         1 JAV         0.0383
     34 H6         28.4029  188.0403  -76.0606 H         1 JAV         0.0383
     35 H7         29.8553  187.8784  -75.0162 H         1 JAV         0.0383
     36 H8         30.2202  190.9704  -76.5808 H         1 JAV         0.0585
     37 H9         28.3628  193.3727  -73.6328 H         1 JAV         0.0612
     38 H10        31.7320  192.5244  -76.3272 H         1 JAV         0.0618
     39 H11        32.7277  194.5720  -77.3081 H         1 JAV         0.0616
     40 H12        31.4509  196.7241  -77.2687 H         1 JAV         0.0613
     41 H13        29.2160  196.8046  -76.2463 H         1 JAV         0.0616
     42 H14        28.2127  194.7281  -75.2614 H         1 JAV         0.0618
     43 H15        28.3894  190.1239  -71.0480 H         1 JAV         0.2114
     44 H16        27.0556  191.3901  -69.0423 H         1 JAV         0.1977
     45 H17        26.4316  184.7079  -66.3434 H         1 JAV         0.2481
@<TRIPOS>BOND
     1    1    2 ar 
     2    1    6 ar 
     3   28    1 1  
     4    2    3 ar 
     5    3    4 ar 
     6    5    4 ar 
     7    6    5 ar 
     8    5   27 1  
     9    8    7 1  
    10    8    9 ar 
    11   13    8 ar 
    12   10    9 ar 
    13   11   10 ar 
    14   10   15 1  
    15   12   11 ar 
    16   12   13 ar 
    17   14   12 1  
    18   13   21 1  
    19   22   14 am 
    20   14   24 2  
    21   15   16 ar 
    22   15   20 ar 
    23   16   17 ar 
    24   17   18 ar 
    25   19   18 ar 
    26   20   19 ar 
    27   23   22 1  
    28   23   28 am 
    29   28   25 2  
    30   28   26 2  
    31    2   29 1  
    32    3   30 1  
    33    4   31 1  
    34    6   32 1  
    35    7   33 1  
    36    7   34 1  
    37    7   35 1  
    38    9   36 1  
    39   11   37 1  
    40   16   38 1  
    41   17   39 1  
    42   18   40 1  
    43   19   41 1  
    44   20   42 1  
    45   22   43 1  
    46   23   44 1  
    47   27   45 1  
@<TRIPOS>SUBSTRUCTURE
     1 JAV         1

