### 
### Created by X-TOOL on Mon Aug  2 16:14:44 2021
### 

@<TRIPOS>MOLECULE
6max_ligand
   27    29     1     0     0
SMALL
GAST_HUCK


@<TRIPOS>ATOM
      1 C2         14.6810   -9.2790  -24.9960 C.ar      1 MOL        -0.0521
      2 C3         13.9530  -10.2350  -25.7080 C.ar      1 MOL        -0.0388
      3 C4         12.9770   -9.8520  -26.6760 C.ar      1 MOL         0.0484
      4 C5         12.7240   -8.4840  -26.9250 C.ar      1 MOL         0.0469
      5 C6         13.4870   -7.5230  -26.2060 C.ar      1 MOL        -0.0390
      6 C7         11.6830   -8.0790  -27.9700 C.2       1 MOL         0.1512
      7 C10         9.1550   -9.8570  -30.4070 C.ar      1 MOL        -0.0005
      8 C11         9.4360  -11.1810  -30.1200 C.ar      1 MOL         0.1218
      9 C12        10.4150  -11.5200  -29.1310 C.ar      1 MOL         0.1320
     10 C14        12.2080  -10.9060  -27.4100 C.2       1 MOL         0.1569
     11 O3         10.6310  -12.8450  -28.9200 O.3       1 MOL        -0.3360
     12 C13        11.1500  -10.5180  -28.4550 C.ar      1 MOL         0.0645
     13 O2         12.4350  -12.0590  -27.1750 O.2       1 MOL        -0.3694
     14 C1         14.4440   -7.9340  -25.2400 C.ar      1 MOL        -0.0521
     15 O1         11.4870   -6.9090  -28.1970 O.2       1 MOL        -0.3750
     16 C8         10.9010   -9.1670  -28.7240 C.ar      1 MOL         0.0602
     17 C9          9.8880   -8.8530  -29.7170 C.ar      1 MOL         0.0938
     18 O5          9.5750   -7.5900  -30.0330 O.3       1 MOL        -0.3356
     19 O4          8.7750  -12.1770  -30.7530 O.3       1 MOL        -0.3337
     20 H1         15.4201   -9.5834  -24.2638 H         1 MOL         0.0663
     21 H2         14.1328  -11.2876  -25.5218 H         1 MOL         0.0681
     22 H3         13.3368   -6.4666  -26.3970 H         1 MOL         0.0681
     23 H4          8.3981   -9.5929  -31.1366 H         1 MOL         0.0490
     24 H5         11.2946  -12.9536  -28.2489 H         1 MOL         0.2444
     25 H6         14.9976   -7.1853  -24.6850 H         1 MOL         0.0663
     26 H7         10.3465   -7.1479  -30.3674 H         1 MOL         0.2477
     27 H8          8.1628  -11.8033  -31.3760 H         1 MOL         0.2466
@<TRIPOS>BOND
     1    2    1 ar 
     2    1   14 ar 
     3    3    2 ar 
     4    3    4 ar 
     5   10    3 1  
     6    4    5 ar 
     7    4    6 1  
     8    5   14 ar 
     9    6   15 2  
    10    6   16 1  
    11    8    7 ar 
    12    7   17 ar 
    13    9    8 ar 
    14    8   19 1  
    15    9   11 1  
    16   12    9 ar 
    17   10   12 1  
    18   10   13 2  
    19   12   16 ar 
    20   16   17 ar 
    21   17   18 1  
    22    1   20 1  
    23    2   21 1  
    24    5   22 1  
    25    7   23 1  
    26   11   24 1  
    27   14   25 1  
    28   18   26 1  
    29   19   27 1  
@<TRIPOS>SUBSTRUCTURE
     1 MOL         1

