### 
### Created by X-TOOL on Mon Aug  2 16:10:57 2021
### 

@<TRIPOS>MOLECULE
6mbo_ligand
   92    96     1     0     0
SMALL
GAST_HUCK


@<TRIPOS>ATOM
      1 C10       -18.4590   16.7950    5.7060 C.2       1 JDG        -0.0172
      2 C13       -17.7070   18.1280    7.3950 C.3       1 JDG         0.0275
      3 C15       -13.4550   10.0450    6.8800 C.ar      1 JDG         0.0319
      4 C17       -10.9810    9.2910    6.6950 C.3       1 JDG         0.0185
      5 C20       -10.3170    8.2950    3.7140 C.3       1 JDG         0.0308
      6 C21        -9.7560    7.4940    2.5330 C.3       1 JDG        -0.0265
      7 C24        -8.8100    6.4660    0.3620 C.3       1 JDG        -0.0218
      8 C26        -7.5260    7.9770    3.2020 C.3       1 JDG        -0.0265
      9 C01       -11.2640   14.4940    7.4210 C.3       1 JDG         0.0539
     10 C03       -12.6170   12.5890    7.8320 C.ar      1 JDG         0.0999
     11 C04       -14.0010   12.3180    7.6780 C.ar      1 JDG         0.1017
     12 C06       -15.0400   14.4520    7.1890 C.3       1 JDG         0.0680
     13 C07       -16.0800   15.4410    7.8150 C.3       1 JDG        -0.0061
     14 C08       -16.4950   16.5850    6.8420 C.3       1 JDG         0.0267
     15 C11       -19.4950   17.6090    5.8450 C.2       1 JDG        -0.0922
     16 C12       -19.0650   18.6410    6.8020 C.3       1 JDG        -0.0260
     17 C14       -14.4170   11.0620    7.2120 C.ar      1 JDG        -0.0297
     18 C16       -12.1040   10.3310    7.0270 C.ar      1 JDG         0.0525
     19 C19        -9.3710    8.4890    4.7990 C.3       1 JDG        -0.0064
     20 C23        -8.0850    7.6780    1.0000 C.3       1 JDG        -0.0266
     21 C25        -6.5530    7.6060    0.8340 C.3       1 JDG        -0.0218
     22 C27        -8.0260    8.8220    4.3800 C.3       1 JDG         0.0308
     23 C29       -12.1080    6.9170    6.6340 C.3       1 JDG        -0.0048
     24 C30       -13.5630    7.3860    6.7720 C.3       1 JDG         0.0747
     25 C31       -14.6620    6.2480    6.8240 C.3       1 JDG        -0.0143
     26 C32       -15.2560    6.4190    5.4250 C.3       1 JDG        -0.0480
     27 C33       -16.2790    5.3180    5.1320 C.3       1 JDG        -0.0527
     28 C34       -17.3500    5.2010    6.2250 C.3       1 JDG        -0.0530
     29 C35       -16.7650    5.1430    7.6420 C.3       1 JDG        -0.0527
     30 C36       -15.7540    6.2600    7.8980 C.3       1 JDG        -0.0480
     31 C38       -11.6720   11.6020    7.5080 C.ar      1 JDG        -0.0394
     32 N09       -17.6120   16.9230    7.0410 N.pl3     1 JDG        -0.3234
     33 N18        -9.8960    9.6060    5.6640 N.4       1 JDG         0.2736
     34 N22        -8.4810    8.0170    2.1190 N.4       1 JDG         0.2373
     35 N28       -11.1440    7.9010    7.1450 N.4       1 JDG         0.2728
     36 N37       -13.9210    8.7360    6.3810 N.pl3     1 JDG        -0.3256
     37 O02       -12.1700   13.8390    8.3030 O.3       1 JDG        -0.3351
     38 O05       -14.9830   13.3070    8.0120 O.3       1 JDG        -0.3292
     39 H1        -18.2340   16.1643    4.8472 H         1 JDG         0.0749
     40 H2        -17.7144   18.2055    8.4922 H         1 JDG         0.0528
     41 H3        -16.8674   18.7131    6.9917 H         1 JDG         0.0528
     42 H4        -10.3558    9.5819    7.5520 H         1 JDG         0.1587
     43 H5        -11.1926    7.7598    4.1101 H         1 JDG         0.0372
     44 H6        -10.6275    9.2836    3.3450 H         1 JDG         0.0372
     45 H7        -10.4605    7.5531    1.6903 H         1 JDG         0.0816
     46 H8         -9.6335    6.4436    2.8357 H         1 JDG         0.0816
     47 H9         -8.3752    6.2575   -0.6267 H         1 JDG         0.0284
     48 H10        -9.8800    6.6957    0.2509 H         1 JDG         0.0284
     49 H11        -8.6894    5.5845    1.0088 H         1 JDG         0.0284
     50 H12        -7.3939    6.9359    3.5317 H         1 JDG         0.0816
     51 H13        -6.5625    8.3758    2.8518 H         1 JDG         0.0816
     52 H14       -10.9617   15.4582    7.8557 H         1 JDG         0.0568
     53 H15       -11.7556   14.6666    6.4522 H         1 JDG         0.0568
     54 H16       -10.3749   13.8633    7.2739 H         1 JDG         0.0568
     55 H17       -14.0501   14.9295    7.1434 H         1 JDG         0.0607
     56 H18       -15.3572   14.1682    6.1747 H         1 JDG         0.0607
     57 H19       -15.6376   15.8907    8.7161 H         1 JDG         0.0310
     58 H20       -16.9803   14.8733    8.0927 H         1 JDG         0.0310
     59 H21       -16.4061   16.2268    5.8058 H         1 JDG         0.0514
     60 H22       -15.8261   17.4454    6.9912 H         1 JDG         0.0514
     61 H23       -20.4635   17.5307    5.3533 H         1 JDG         0.0263
     62 H24       -18.9208   19.6035    6.2894 H         1 JDG         0.0361
     63 H25       -19.8123   18.7591    7.6005 H         1 JDG         0.0361
     64 H26       -15.4753   10.8553    7.1008 H         1 JDG         0.0392
     65 H27        -9.3248    7.5601    5.3863 H         1 JDG         0.0856
     66 H28        -8.3797    8.5243    0.3622 H         1 JDG         0.0846
     67 H29        -6.0915    8.4874    1.3033 H         1 JDG         0.0284
     68 H30        -6.3007    7.5863   -0.2365 H         1 JDG         0.0284
     69 H31        -6.1743    6.6931    1.3169 H         1 JDG         0.0284
     70 H32        -8.0061    9.8808    4.0824 H         1 JDG         0.0372
     71 H33        -7.3476    8.6677    5.2320 H         1 JDG         0.0372
     72 H34       -11.8959    6.7365    5.5699 H         1 JDG         0.0838
     73 H35       -11.9856    5.9796    7.1965 H         1 JDG         0.0838
     74 H36       -13.5339    7.5840    7.8536 H         1 JDG         0.0597
     75 H37       -14.1543    5.2761    6.9117 H         1 JDG         0.0324
     76 H38       -14.4475    6.3677    4.6809 H         1 JDG         0.0269
     77 H39       -15.7519    7.3987    5.3607 H         1 JDG         0.0269
     78 H40       -15.7495    4.3570    5.0534 H         1 JDG         0.0265
     79 H41       -16.7745    5.5429    4.1760 H         1 JDG         0.0265
     80 H42       -17.9303    4.2833    6.0488 H         1 JDG         0.0265
     81 H43       -18.0153    6.0743    6.1572 H         1 JDG         0.0265
     82 H44       -16.2632    4.1737    7.7782 H         1 JDG         0.0265
     83 H45       -17.5862    5.2360    8.3679 H         1 JDG         0.0265
     84 H46       -16.2725    7.2299    7.8770 H         1 JDG         0.0269
     85 H47       -15.2928    6.1120    8.8856 H         1 JDG         0.0269
     86 H48       -10.6137   11.8064    7.6236 H         1 JDG         0.0424
     87 H49        -9.1096    9.9853    6.1678 H         1 JDG         0.2086
     88 H50       -10.2697   10.3089    5.0457 H         1 JDG         0.2086
     89 H51        -8.6565    9.0021    1.9976 H         1 JDG         0.2036
     90 H52       -11.3385    7.9678    8.1318 H         1 JDG         0.2084
     91 H53       -10.2405    7.4754    7.0086 H         1 JDG         0.2084
     92 H54       -14.6197    8.7909    5.6262 H         1 JDG         0.1705
@<TRIPOS>BOND
     1    1   15 2  
     2   32    1 1  
     3    2   16 1  
     4   32    2 1  
     5    3   17 ar 
     6   18    3 ar 
     7    3   36 1  
     8    4   18 1  
     9    4   33 1  
    10   35    4 1  
    11    5    6 1  
    12   19    5 1  
    13    6   34 1  
    14   20    7 1  
    15   22    8 1  
    16    8   34 1  
    17   37    9 1  
    18   10   11 ar 
    19   31   10 ar 
    20   10   37 1  
    21   17   11 ar 
    22   11   38 1  
    23   12   13 1  
    24   38   12 1  
    25   13   14 1  
    26   14   32 1  
    27   16   15 1  
    28   18   31 ar 
    29   19   22 1  
    30   33   19 1  
    31   20   21 1  
    32   34   20 1  
    33   23   24 1  
    34   23   35 1  
    35   24   25 1  
    36   24   36 1  
    37   25   26 1  
    38   25   30 1  
    39   26   27 1  
    40   27   28 1  
    41   28   29 1  
    42   29   30 1  
    43    1   39 1  
    44    2   40 1  
    45    2   41 1  
    46    4   42 1  
    47    5   43 1  
    48    5   44 1  
    49    6   45 1  
    50    6   46 1  
    51    7   47 1  
    52    7   48 1  
    53    7   49 1  
    54    8   50 1  
    55    8   51 1  
    56    9   52 1  
    57    9   53 1  
    58    9   54 1  
    59   12   55 1  
    60   12   56 1  
    61   13   57 1  
    62   13   58 1  
    63   14   59 1  
    64   14   60 1  
    65   15   61 1  
    66   16   62 1  
    67   16   63 1  
    68   17   64 1  
    69   19   65 1  
    70   20   66 1  
    71   21   67 1  
    72   21   68 1  
    73   21   69 1  
    74   22   70 1  
    75   22   71 1  
    76   23   72 1  
    77   23   73 1  
    78   24   74 1  
    79   25   75 1  
    80   26   76 1  
    81   26   77 1  
    82   27   78 1  
    83   27   79 1  
    84   28   80 1  
    85   28   81 1  
    86   29   82 1  
    87   29   83 1  
    88   30   84 1  
    89   30   85 1  
    90   31   86 1  
    91   33   87 1  
    92   33   88 1  
    93   34   89 1  
    94   35   90 1  
    95   35   91 1  
    96   36   92 1  
@<TRIPOS>SUBSTRUCTURE
     1 JDG         1

