### 
### Created by X-TOOL on Mon Aug  2 16:12:02 2021
### 

@<TRIPOS>MOLECULE
6mbp_ligand
   92    96     1     0     0
SMALL
GAST_HUCK


@<TRIPOS>ATOM
      1 C10       -26.4050   21.5310   15.7700 C.2       1 JDG        -0.0172
      2 C13       -27.7940   22.9320   16.8800 C.3       1 JDG         0.0275
      3 C15       -23.6380   21.2680   23.0920 C.ar      1 JDG         0.0319
      4 C17       -21.5860   19.7580   23.8140 C.3       1 JDG         0.0185
      5 C20       -20.5690   16.7270   24.5860 C.3       1 JDG         0.0308
      6 C21       -19.7940   15.6700   25.3930 C.3       1 JDG        -0.0265
      7 C24       -18.2810   13.2340   25.2800 C.3       1 JDG        -0.0218
      8 C26       -17.7220   16.7400   24.8190 C.3       1 JDG        -0.0265
      9 C01       -20.7820   20.7050   19.0190 C.3       1 JDG         0.0539
     10 C03       -22.4490   21.4770   20.5200 C.ar      1 JDG         0.0999
     11 C04       -23.6730   22.1230   20.7710 C.ar      1 JDG         0.1017
     12 C06       -25.5350   23.3650   19.8220 C.3       1 JDG         0.0680
     13 C07       -25.8790   24.0870   18.4750 C.3       1 JDG        -0.0061
     14 C08       -25.7500   23.1610   17.2230 C.3       1 JDG         0.0267
     15 C11       -27.5870   21.0500   15.3790 C.2       1 JDG        -0.0922
     16 C12       -28.6090   21.8350   16.1020 C.3       1 JDG        -0.0260
     17 C14       -24.2720   22.0310   22.0380 C.ar      1 JDG        -0.0297
     18 C16       -22.4260   20.6250   22.8120 C.ar      1 JDG         0.0525
     19 C19       -19.8210   17.9610   24.3810 C.3       1 JDG        -0.0064
     20 C23       -17.7910   14.6720   25.5530 C.3       1 JDG        -0.0266
     21 C25       -17.7260   14.9930   27.0580 C.3       1 JDG        -0.0218
     22 C27       -18.4640   17.7500   23.9420 C.3       1 JDG         0.0308
     23 C29       -22.9100   19.7400   26.0140 C.3       1 JDG        -0.0048
     24 C30       -23.8470   20.9090   25.7500 C.3       1 JDG         0.0747
     25 C31       -24.6620   21.3330   27.0230 C.3       1 JDG        -0.0143
     26 C32       -25.8130   20.3360   26.8450 C.3       1 JDG        -0.0480
     27 C33       -26.9170   20.5640   27.8800 C.3       1 JDG        -0.0527
     28 C34       -26.4950   21.5520   28.9740 C.3       1 JDG        -0.0530
     29 C35       -26.0640   22.9060   28.4010 C.3       1 JDG        -0.0527
     30 C36       -25.1470   22.7720   27.1870 C.3       1 JDG        -0.0480
     31 C38       -21.8240   20.7280   21.5250 C.ar      1 JDG        -0.0394
     32 N09       -26.6580   22.3930   17.0840 N.pl3     1 JDG        -0.3234
     33 N18       -20.5090   18.8000   23.3360 N.4       1 JDG         0.2736
     34 N22       -18.4420   15.4940   24.9170 N.4       1 JDG         0.2373
     35 N28       -21.6880   19.9320   25.2570 N.4       1 JDG         0.2728
     36 N37       -24.3220   21.2020   24.4040 N.pl3     1 JDG        -0.3256
     37 O02       -21.8760   21.5860   19.2430 O.3       1 JDG        -0.3351
     38 O05       -24.2280   22.8660   19.6800 O.3       1 JDG        -0.3292
     39 H1        -25.4462   21.3647   15.2812 H         1 JDG         0.0749
     40 H2        -28.2847   23.1797   17.8328 H         1 JDG         0.0528
     41 H3        -27.6896   23.8436   16.2734 H         1 JDG         0.0528
     42 H4        -22.3530   18.9696   23.8097 H         1 JDG         0.1587
     43 H5        -21.4967   16.9671   25.1261 H         1 JDG         0.0372
     44 H6        -20.8170   16.3020   23.6022 H         1 JDG         0.0372
     45 H7        -20.3233   14.7088   25.3156 H         1 JDG         0.0816
     46 H8        -19.7591   15.9857   26.4461 H         1 JDG         0.0816
     47 H9        -17.6775   12.5239   25.8644 H         1 JDG         0.0284
     48 H10       -18.1770   13.0084   24.2084 H         1 JDG         0.0284
     49 H11       -19.3376   13.1449   25.5727 H         1 JDG         0.0284
     50 H12       -17.6013   17.1630   25.8272 H         1 JDG         0.0816
     51 H13       -16.7315   16.5467   24.3814 H         1 JDG         0.0816
     52 H14       -20.3937   20.8541   18.0007 H         1 JDG         0.0568
     53 H15       -21.1197   19.6644   19.1339 H         1 JDG         0.0568
     54 H16       -19.9865   20.9151   19.7491 H         1 JDG         0.0568
     55 H17       -26.2399   22.5402   20.0029 H         1 JDG         0.0607
     56 H18       -25.5818   24.0775   20.6588 H         1 JDG         0.0607
     57 H19       -25.1935   24.9383   18.3509 H         1 JDG         0.0310
     58 H20       -26.9141   24.4549   18.5312 H         1 JDG         0.0310
     59 H21       -24.8197   22.5816   17.3171 H         1 JDG         0.0514
     60 H22       -25.6966   23.7975   16.3274 H         1 JDG         0.0514
     61 H23       -27.7627   20.2421   14.6702 H         1 JDG         0.0263
     62 H24       -29.3110   22.3017   15.3954 H         1 JDG         0.0361
     63 H25       -29.1652   21.1952   16.8029 H         1 JDG         0.0361
     64 H26       -25.2135   22.5338   22.2274 H         1 JDG         0.0392
     65 H27       -19.7990   18.5104   25.3337 H         1 JDG         0.0856
     66 H28       -16.7586   14.7309   25.1780 H         1 JDG         0.0846
     67 H29       -17.3725   16.0252   27.1978 H         1 JDG         0.0284
     68 H30       -17.0312   14.2976   27.5516 H         1 JDG         0.0284
     69 H31       -18.7278   14.8856   27.4995 H         1 JDG         0.0284
     70 H32       -18.4807   17.3758   22.9077 H         1 JDG         0.0372
     71 H33       -17.9277   18.7098   23.9761 H         1 JDG         0.0372
     72 H34       -23.3934   18.8025   25.7018 H         1 JDG         0.0838
     73 H35       -22.6747   19.6915   27.0874 H         1 JDG         0.0838
     74 H36       -23.0956   21.7116   25.7844 H         1 JDG         0.0597
     75 H37       -24.0755   21.0996   27.9238 H         1 JDG         0.0324
     76 H38       -25.4218   19.3142   26.9588 H         1 JDG         0.0269
     77 H39       -26.2374   20.4561   25.8373 H         1 JDG         0.0269
     78 H40       -27.1655   19.6010   28.3500 H         1 JDG         0.0265
     79 H41       -27.8053   20.9620   27.3677 H         1 JDG         0.0265
     80 H42       -25.6522   21.1207   29.5340 H         1 JDG         0.0265
     81 H43       -27.3447   21.7103   29.6544 H         1 JDG         0.0265
     82 H44       -25.5305   23.4649   29.1840 H         1 JDG         0.0265
     83 H45       -26.9640   23.4630   28.1014 H         1 JDG         0.0265
     84 H46       -25.6999   23.0703   26.2841 H         1 JDG         0.0269
     85 H47       -24.2769   23.4319   27.3190 H         1 JDG         0.0269
     86 H48       -20.8837   20.2275   21.3238 H         1 JDG         0.0424
     87 H49       -19.8009   19.3469   22.8718 H         1 JDG         0.2086
     88 H50       -20.9351   18.1705   22.6740 H         1 JDG         0.2086
     89 H51       -18.5221   15.1309   23.9801 H         1 JDG         0.2036
     90 H52       -21.4009   20.8810   25.4385 H         1 JDG         0.2084
     91 H53       -21.0165   19.2954   25.6568 H         1 JDG         0.2084
     92 H54       -25.3311   21.4025   24.3555 H         1 JDG         0.1705
@<TRIPOS>BOND
     1    1   15 2  
     2   32    1 1  
     3    2   16 1  
     4   32    2 1  
     5    3   17 ar 
     6   18    3 ar 
     7    3   36 1  
     8    4   18 1  
     9    4   33 1  
    10   35    4 1  
    11    5    6 1  
    12   19    5 1  
    13    6   34 1  
    14   20    7 1  
    15   22    8 1  
    16    8   34 1  
    17   37    9 1  
    18   10   11 ar 
    19   31   10 ar 
    20   10   37 1  
    21   17   11 ar 
    22   11   38 1  
    23   12   13 1  
    24   38   12 1  
    25   13   14 1  
    26   14   32 1  
    27   16   15 1  
    28   18   31 ar 
    29   19   22 1  
    30   33   19 1  
    31   20   21 1  
    32   34   20 1  
    33   23   24 1  
    34   23   35 1  
    35   24   25 1  
    36   24   36 1  
    37   25   26 1  
    38   25   30 1  
    39   26   27 1  
    40   27   28 1  
    41   28   29 1  
    42   29   30 1  
    43    1   39 1  
    44    2   40 1  
    45    2   41 1  
    46    4   42 1  
    47    5   43 1  
    48    5   44 1  
    49    6   45 1  
    50    6   46 1  
    51    7   47 1  
    52    7   48 1  
    53    7   49 1  
    54    8   50 1  
    55    8   51 1  
    56    9   52 1  
    57    9   53 1  
    58    9   54 1  
    59   12   55 1  
    60   12   56 1  
    61   13   57 1  
    62   13   58 1  
    63   14   59 1  
    64   14   60 1  
    65   15   61 1  
    66   16   62 1  
    67   16   63 1  
    68   17   64 1  
    69   19   65 1  
    70   20   66 1  
    71   21   67 1  
    72   21   68 1  
    73   21   69 1  
    74   22   70 1  
    75   22   71 1  
    76   23   72 1  
    77   23   73 1  
    78   24   74 1  
    79   25   75 1  
    80   26   76 1  
    81   26   77 1  
    82   27   78 1  
    83   27   79 1  
    84   28   80 1  
    85   28   81 1  
    86   29   82 1  
    87   29   83 1  
    88   30   84 1  
    89   30   85 1  
    90   31   86 1  
    91   33   87 1  
    92   33   88 1  
    93   34   89 1  
    94   35   90 1  
    95   35   91 1  
    96   36   92 1  
@<TRIPOS>SUBSTRUCTURE
     1 JDG         1

