### 
### Created by X-TOOL on Mon Aug  2 16:14:45 2021
### 

@<TRIPOS>MOLECULE
6mck_ligand
   54    58     1     0     0
SMALL
GAST_HUCK


@<TRIPOS>ATOM
      1 C22        66.8180   28.4980   62.9140 C.ar      1 JDP        -0.0685
      2 C21        66.3410   29.7950   63.1110 C.ar      1 JDP        -0.0687
      3 O01        68.4810   27.9680   54.7870 O.2       1 JDP        -0.3907
      4 C02        67.7910   28.5720   55.5950 C.2       1 JDP         0.1916
      5 C03        67.9960   28.4180   57.0620 C.ar      1 JDP         0.0312
      6 C04        67.1170   28.9880   57.9710 C.ar      1 JDP        -0.0614
      7 C05        67.2750   28.8350   59.3540 C.ar      1 JDP        -0.0716
      8 C06        68.3020   28.1190   59.9050 C.ar      1 JDP        -0.0374
      9 C07        69.1550   27.5600   59.0070 C.ar      1 JDP         0.0888
     10 C08        69.0410   27.6660   57.6030 C.ar      1 JDP        -0.0137
     11 C09        70.1280   26.9220   57.0290 C.2       1 JDP        -0.0571
     12 C10        70.8280   26.4130   58.0580 C.2       1 JDP         0.0650
     13 C11        72.0640   25.5670   57.9330 C.3       1 JDP        -0.0017
     14 N12        70.2270   26.7900   59.2950 N.pl3     1 JDP        -0.1878
     15 C13        70.5710   26.4850   60.5720 C.ar      1 JDP         0.2137
     16 N14        70.4670   27.4770   61.4300 N.ar      1 JDP        -0.2437
     17 C15        70.7850   27.2380   62.6910 C.ar      1 JDP         0.1180
     18 N16        70.7890   28.3240   63.5040 N.pl3     1 JDP        -0.2963
     19 C17        70.1020   28.5930   64.7380 C.3       1 JDP         0.0611
     20 C18        68.7920   29.0410   64.1940 C.ar      1 JDP        -0.0211
     21 C19        68.3620   30.3380   64.3900 C.ar      1 JDP        -0.0584
     22 C20        67.1230   30.6990   63.8490 C.ar      1 JDP        -0.0685
     23 C23        68.0380   28.1280   63.4440 C.ar      1 JDP        -0.0584
     24 C24        71.1980   25.9500   63.0920 C.ar      1 JDP         0.0430
     25 C25        71.5980   25.6500   64.5310 C.3       1 JDP         0.0820
     26 O26        72.6120   24.6320   64.5740 O.3       1 JDP        -0.3679
     27 C27        72.3310   23.4270   63.7690 C.3       1 JDP         0.0613
     28 C28        71.6480   23.5880   62.3780 C.3       1 JDP         0.0173
     29 C29        71.2350   24.9940   62.0960 C.ar      1 JDP         0.0282
     30 N30        70.9070   25.2360   60.8420 N.ar      1 JDP        -0.2675
     31 N31        66.7590   29.3690   55.1930 N.am      1 JDP        -0.3021
     32 H1         66.2324   27.7836   62.3467 H         1 JDP         0.0599
     33 H2         65.3844   30.0991   62.7019 H         1 JDP         0.0559
     34 H3         66.2816   29.5701   57.5992 H         1 JDP         0.0573
     35 H4         66.5542   29.3030   60.0147 H         1 JDP         0.0523
     36 H5         68.4259   28.0062   60.9760 H         1 JDP         0.0589
     37 H6         70.3427   26.7953   55.9689 H         1 JDP         0.0200
     38 H7         72.3085   25.4300   56.8693 H         1 JDP         0.0443
     39 H8         71.8854   24.5860   58.3974 H         1 JDP         0.0443
     40 H9         72.9027   26.0658   58.4407 H         1 JDP         0.0443
     41 H10        71.3920   29.0933   63.1792 H         1 JDP         0.1843
     42 H11        70.5973   29.3842   65.3199 H         1 JDP         0.0683
     43 H12        70.0021   27.6898   65.3579 H         1 JDP         0.0683
     44 H13        68.9625   31.0512   64.9431 H         1 JDP         0.0557
     45 H14        66.7554   31.7069   64.0041 H         1 JDP         0.0599
     46 H15        68.4151   27.1252   63.2791 H         1 JDP         0.0557
     47 H16        70.7143   25.3033   65.0868 H         1 JDP         0.0688
     48 H17        71.9873   26.5675   64.9965 H         1 JDP         0.0688
     49 H18        71.6794   22.7799   64.3746 H         1 JDP         0.0588
     50 H19        73.2932   22.9220   63.5986 H         1 JDP         0.0588
     51 H20        70.7548   22.9467   62.3487 H         1 JDP         0.0478
     52 H21        72.3557   23.2668   61.5996 H         1 JDP         0.0478
     53 H22        66.2078   29.8538   55.8721 H         1 JDP         0.1803
     54 H23        66.5539   29.4683   54.2193 H         1 JDP         0.1803
@<TRIPOS>BOND
     1    1    2 ar 
     2   23    1 ar 
     3    2   22 ar 
     4    4    3 2  
     5    5    4 1  
     6    4   31 am 
     7    5    6 ar 
     8   10    5 ar 
     9    7    6 ar 
    10    8    7 ar 
    11    9    8 ar 
    12    9   10 ar 
    13   14    9 1  
    14   11   10 1  
    15   12   11 2  
    16   12   13 1  
    17   14   12 1  
    18   15   14 1  
    19   16   15 ar 
    20   15   30 ar 
    21   17   16 ar 
    22   18   17 1  
    23   17   24 ar 
    24   19   18 1  
    25   20   19 1  
    26   20   21 ar 
    27   20   23 ar 
    28   21   22 ar 
    29   24   25 1  
    30   24   29 ar 
    31   25   26 1  
    32   26   27 1  
    33   27   28 1  
    34   28   29 1  
    35   29   30 ar 
    36    1   32 1  
    37    2   33 1  
    38    6   34 1  
    39    7   35 1  
    40    8   36 1  
    41   11   37 1  
    42   13   38 1  
    43   13   39 1  
    44   13   40 1  
    45   18   41 1  
    46   19   42 1  
    47   19   43 1  
    48   21   44 1  
    49   22   45 1  
    50   23   46 1  
    51   25   47 1  
    52   25   48 1  
    53   27   49 1  
    54   27   50 1  
    55   28   51 1  
    56   28   52 1  
    57   31   53 1  
    58   31   54 1  
@<TRIPOS>SUBSTRUCTURE
     1 JDP         1

