### 
### Created by X-TOOL on Mon Aug  2 16:12:02 2021
### 

@<TRIPOS>MOLECULE
6md4_ligand
   44    46     1     0     0
SMALL
GAST_HUCK


@<TRIPOS>ATOM
      1 S1         20.2740   64.1110   17.3570 S.3       1 BRL         0.0006
      2 O2         21.1390   66.3050   18.2370 O.2       1 BRL        -0.3731
      3 O4         18.3780   63.1200   20.4750 O.2       1 BRL        -0.3846
      4 O13        17.4060   61.6880   12.0740 O.3       1 BRL        -0.3204
      5 N3         20.0320   64.8240   19.8270 N.am      1 BRL        -0.1891
      6 N16        17.6230   63.6150    9.6360 N.pl3     1 BRL        -0.2946
      7 N18        16.1090   65.5570    9.5890 N.ar      1 BRL        -0.2853
      8 C2         20.5920   65.2730   18.4430 C.2       1 BRL         0.2695
      9 C4         18.9770   63.6460   19.6020 C.2       1 BRL         0.2225
     10 C5         18.8990   63.3650   17.9960 C.3       1 BRL         0.1282
     11 C6         18.8250   61.8820   17.6170 C.3       1 BRL         0.0077
     12 C7         18.4540   61.8180   16.1250 C.ar      1 BRL        -0.0502
     13 C8         17.1170   61.9070   15.7420 C.ar      1 BRL        -0.0686
     14 C9         16.7490   61.8660   14.4060 C.ar      1 BRL        -0.0396
     15 C10        17.7390   61.7400   13.4380 C.ar      1 BRL         0.0841
     16 C11        19.0770   61.6520   13.8180 C.ar      1 BRL        -0.0396
     17 C12        19.4440   61.6870   15.1540 C.ar      1 BRL        -0.0686
     18 C14        16.5140   62.6670   11.6310 C.3       1 BRL         0.0889
     19 C15        16.5680   62.7250   10.1070 C.3       1 BRL         0.0569
     20 C16        18.9450   63.0580    9.4360 C.3       1 BRL         0.0185
     21 C17        17.3380   65.0240    9.3260 C.ar      1 BRL         0.1134
     22 C19        15.8300   66.8540    9.3000 C.ar      1 BRL        -0.0042
     23 C20        16.7890   67.6720    8.7240 C.ar      1 BRL        -0.0480
     24 C21        18.0160   67.1410    8.4570 C.ar      1 BRL        -0.0542
     25 C22        18.3090   65.8330    8.7400 C.ar      1 BRL        -0.0160
     26 H1         20.2912   65.2108   20.7120 H         1 BRL         0.2265
     27 H2         17.9995   63.8538   17.5936 H         1 BRL         0.0706
     28 H3         18.0565   61.3758   18.2196 H         1 BRL         0.0442
     29 H4         19.7993   61.3998   17.7852 H         1 BRL         0.0442
     30 H5         16.3512   62.0101   16.5022 H         1 BRL         0.0530
     31 H6         15.7053   61.9312   14.1205 H         1 BRL         0.0525
     32 H7         19.8426   61.5547   13.0568 H         1 BRL         0.0525
     33 H8         20.4872   61.6134   15.4393 H         1 BRL         0.0530
     34 H9         16.7991   63.6438   12.0488 H         1 BRL         0.0631
     35 H10        15.4942   62.4128   11.9557 H         1 BRL         0.0631
     36 H11        16.7560   61.7132    9.7187 H         1 BRL         0.0546
     37 H12        15.6007   63.0886    9.7301 H         1 BRL         0.0546
     38 H13        19.6254   63.8466    9.0822 H         1 BRL         0.0483
     39 H14        18.8947   62.2539    8.6870 H         1 BRL         0.0483
     40 H15        19.3190   62.6506   10.3869 H         1 BRL         0.0483
     41 H16        14.8472   67.2537    9.5221 H         1 BRL         0.0781
     42 H17        16.5691   68.7077    8.4916 H         1 BRL         0.0597
     43 H18        18.7782   67.7690    8.0100 H         1 BRL         0.0699
     44 H19        19.2889   65.4306    8.5097 H         1 BRL         0.0610
@<TRIPOS>BOND
     1    1    8 1  
     2   10    1 1  
     3    8    2 2  
     4    9    3 2  
     5    4   15 1  
     6   18    4 1  
     7    5    8 am 
     8    9    5 am 
     9   19    6 1  
    10    6   20 1  
    11    6   21 1  
    12   21    7 ar 
    13    7   22 ar 
    14   10    9 1  
    15   11   10 1  
    16   12   11 1  
    17   13   12 ar 
    18   17   12 ar 
    19   14   13 ar 
    20   15   14 ar 
    21   15   16 ar 
    22   16   17 ar 
    23   18   19 1  
    24   21   25 ar 
    25   22   23 ar 
    26   23   24 ar 
    27   24   25 ar 
    28    5   26 1  
    29   10   27 1  
    30   11   28 1  
    31   11   29 1  
    32   13   30 1  
    33   14   31 1  
    34   16   32 1  
    35   17   33 1  
    36   18   34 1  
    37   18   35 1  
    38   19   36 1  
    39   19   37 1  
    40   20   38 1  
    41   20   39 1  
    42   20   40 1  
    43   22   41 1  
    44   23   42 1  
    45   24   43 1  
    46   25   44 1  
@<TRIPOS>SUBSTRUCTURE
     1 BRL         1

