### 
### Created by X-TOOL on Mon Aug  2 16:14:46 2021
### 

@<TRIPOS>MOLECULE
6md6_ligand
   48    49     1     0     0
SMALL
GAST_HUCK


@<TRIPOS>ATOM
      1 O12        24.9210   34.2420   33.6190 O.3       1 JSV        -0.3857
      2 C12        25.4540   32.8600   33.5930 C.3       1 JSV         0.1189
      3 C13        24.3390   31.8190   33.2250 C.3       1 JSV         0.1126
      4 O13        24.0530   32.1130   31.8400 O.3       1 JSV        -0.3865
      5 C14        24.7160   30.3180   33.4390 C.3       1 JSV         0.1118
      6 O14        23.6380   29.2880   33.3990 O.3       1 JSV        -0.3865
      7 C15        25.3850   30.1680   34.8390 C.3       1 JSV         0.1115
      8 C16        25.8110   28.7500   35.1160 C.3       1 JSV         0.0730
      9 O16        26.3050   28.6830   36.5050 O.3       1 JSV        -0.3924
     10 O15        26.4790   31.1070   34.9300 O.3       1 JSV        -0.3553
     11 C11        26.0420   32.4740   34.9450 C.3       1 JSV         0.1335
     12 S22        27.4780   33.5510   35.2640 S.3       1 JSV        -0.1160
     13 C22        28.4480   33.5630   33.7620 C.3       1 JSV         0.0869
     14 C21        28.4160   34.9180   32.9750 C.3       1 JSV         0.1735
     15 O21        27.1410   35.3090   32.4320 O.3       1 JSV        -0.3533
     16 C27        27.0780   36.5940   31.7950 C.3       1 JSV         0.0395
     17 O25        29.4350   34.9320   31.9270 O.3       1 JSV        -0.3420
     18 C23        29.9200   33.2990   34.1750 C.3       1 JSV         0.1000
     19 O23        30.0980   32.0840   34.9430 O.3       1 JSV        -0.3879
     20 C24        30.9380   33.3830   33.0120 C.3       1 JSV         0.1105
     21 O24        32.2750   33.0870   33.4640 O.3       1 JSV        -0.3865
     22 C25        30.8350   34.7670   32.3260 C.3       1 JSV         0.1129
     23 C26        31.8850   34.9370   31.1650 C.3       1 JSV         0.0730
     24 O26        31.4370   35.8760   30.1740 O.3       1 JSV        -0.3924
     25 H1         25.6194   34.8454   33.8443 H         1 JSV         0.2100
     26 H2         26.2479   32.8117   32.8331 H         1 JSV         0.0655
     27 H3         23.4478   32.0210   33.8374 H         1 JSV         0.0647
     28 H4         24.8420   31.9980   31.3236 H         1 JSV         0.2100
     29 H5         25.4441   30.0598   32.6559 H         1 JSV         0.0647
     30 H6         24.0168   28.4290   33.5443 H         1 JSV         0.2100
     31 H7         24.6414   30.4398   35.6026 H         1 JSV         0.0646
     32 H8         26.6122   28.4588   34.4209 H         1 JSV         0.0584
     33 H9         24.9536   28.0721   34.9921 H         1 JSV         0.0584
     34 H10        26.5792   27.7946   36.6999 H         1 JSV         0.2095
     35 H11        25.2858   32.6106   35.7320 H         1 JSV         0.0740
     36 H12        28.0879   32.7616   33.1001 H         1 JSV         0.0489
     37 H13        28.6884   35.6966   33.7027 H         1 JSV         0.0922
     38 H14        26.0569   36.7706   31.4260 H         1 JSV         0.0525
     39 H15        27.7826   36.6197   30.9507 H         1 JSV         0.0525
     40 H16        27.3461   37.3763   32.5203 H         1 JSV         0.0525
     41 H17        30.1798   34.1234   34.8553 H         1 JSV         0.0633
     42 H18        31.0164   31.9814   35.1630 H         1 JSV         0.2099
     43 H19        30.6662   32.6200   32.2677 H         1 JSV         0.0646
     44 H20        32.2989   32.2084   33.8246 H         1 JSV         0.2100
     45 H21        31.0639   35.5410   33.0733 H         1 JSV         0.0647
     46 H22        32.0451   33.9608   30.6839 H         1 JSV         0.0584
     47 H23        32.8333   35.2953   31.5921 H         1 JSV         0.0584
     48 H24        30.6206   35.5707   29.7963 H         1 JSV         0.2095
@<TRIPOS>BOND
     1    1    2 1  
     2    2    3 1  
     3    2   11 1  
     4    3    4 1  
     5    3    5 1  
     6    5    6 1  
     7    5    7 1  
     8    7    8 1  
     9    7   10 1  
    10    8    9 1  
    11   10   11 1  
    12   11   12 1  
    13   12   13 1  
    14   13   14 1  
    15   13   18 1  
    16   14   15 1  
    17   14   17 1  
    18   15   16 1  
    19   17   22 1  
    20   18   19 1  
    21   18   20 1  
    22   20   21 1  
    23   20   22 1  
    24   22   23 1  
    25   23   24 1  
    26    1   25 1  
    27    2   26 1  
    28    3   27 1  
    29    4   28 1  
    30    5   29 1  
    31    6   30 1  
    32    7   31 1  
    33    8   32 1  
    34    8   33 1  
    35    9   34 1  
    36   11   35 1  
    37   13   36 1  
    38   14   37 1  
    39   16   38 1  
    40   16   39 1  
    41   16   40 1  
    42   18   41 1  
    43   19   42 1  
    44   20   43 1  
    45   21   44 1  
    46   22   45 1  
    47   23   46 1  
    48   23   47 1  
    49   24   48 1  
@<TRIPOS>SUBSTRUCTURE
     1 JSV         1

