### 
### Created by X-TOOL on Mon Aug  2 16:14:46 2021
### 

@<TRIPOS>MOLECULE
6md7_ligand
   48    50     1     0     0
SMALL
GAST_HUCK


@<TRIPOS>ATOM
      1 C1         21.6200   41.7640    4.2290 C.2       1 JE1         0.2260
      2 C2         21.5950   40.7400    5.2130 C.2       1 JE1         0.0995
      3 C3         22.6610   39.8350    5.1600 C.2       1 JE1        -0.0191
      4 O1         20.5890   42.6170    4.1540 O.2       1 JE1        -0.4079
      5 C11        28.3100   43.0110    3.6710 C.3       1 JE1        -0.0297
      6 C12        18.7770   40.5580    5.6760 C.ar      1 JE1         0.0869
      7 C13        18.7180   40.1150    4.3290 C.ar      1 JE1         0.0017
      8 C14        17.4870   40.0610    3.6450 C.ar      1 JE1        -0.0118
      9 C15        16.3280   40.4060    4.3450 C.ar      1 JE1         0.0341
     10 C16        17.5380   40.8840    6.3090 C.ar      1 JE1         0.1305
     11 C17        17.4230   41.2970    7.7790 C.3       1 JE1         0.3855
     12 C10        28.0480   42.2270    1.3240 C.3       1 JE1        -0.0546
     13 C4         23.5460   40.9540    3.3440 C.2       1 JE1         0.2434
     14 C5         25.7820   40.1960    2.5060 C.3       1 JE1         0.0399
     15 C6         26.9760   40.8890    3.2120 C.3       1 JE1        -0.0213
     16 C7         27.3070   42.3390    2.6920 C.3       1 JE1         0.0117
     17 C8         25.9920   43.1660    2.5030 C.3       1 JE1        -0.0213
     18 C9         24.8730   42.3940    1.7610 C.3       1 JE1         0.0399
     19 F1         16.1920   41.0400    8.1840 F         1 JE1        -0.2244
     20 F2         18.2450   40.5670    8.5390 F         1 JE1        -0.2244
     21 F3         17.6400   42.6070    7.9990 F         1 JE1        -0.2244
     22 N1         22.5690   41.8570    3.2950 N.am      1 JE1        -0.1796
     23 N2         23.6400   39.9750    4.2480 N.2       1 JE1        -0.3006
     24 N3         24.6400   41.1250    2.4930 N.pl3     1 JE1        -0.2518
     25 N4         27.7280   43.4530    4.9290 N.4       1 JE1         0.2189
     26 N5         16.3520   40.8120    5.6340 N.ar      1 JE1        -0.2721
     27 S1         20.3590   40.6980    6.4790 S.3       1 JE1        -0.0188
     28 H1         22.6986   39.0068    5.8661 H         1 JE1         0.0689
     29 H2         28.7448   43.8873    3.1681 H         1 JE1         0.0818
     30 H3         29.1056   42.2860    3.8976 H         1 JE1         0.0818
     31 H4         19.6280   39.8155    3.8217 H         1 JE1         0.0770
     32 H5         17.4406   39.7601    2.6046 H         1 JE1         0.0905
     33 H6         15.3734   40.3458    3.8350 H         1 JE1         0.0890
     34 H7         27.3838   41.7555    0.5848 H         1 JE1         0.0237
     35 H8         28.9535   41.6146    1.4465 H         1 JE1         0.0237
     36 H9         28.3292   43.2319    0.9759 H         1 JE1         0.0237
     37 H10        25.5090   39.2810    3.0521 H         1 JE1         0.0534
     38 H11        26.0611   39.9376    1.4739 H         1 JE1         0.0534
     39 H12        27.8685   40.2626    3.0669 H         1 JE1         0.0293
     40 H13        26.7455   40.9559    4.2855 H         1 JE1         0.0293
     41 H14        26.2309   44.0714    1.9257 H         1 JE1         0.0293
     42 H15        25.6162   43.4529    3.4962 H         1 JE1         0.0293
     43 H16        25.1869   42.1791    0.7289 H         1 JE1         0.0534
     44 H17        23.9506   42.9931    1.7465 H         1 JE1         0.0534
     45 H18        22.5472   42.5694    2.5935 H         1 JE1         0.2547
     46 H19        28.4434   43.8745    5.5004 H         1 JE1         0.1994
     47 H20        27.3340   42.6617    5.4134 H         1 JE1         0.1994
     48 H21        27.0034   44.1291    4.7448 H         1 JE1         0.1994
@<TRIPOS>BOND
     1    1    2 1  
     2    1    4 2  
     3   22    1 am 
     4    3    2 2  
     5    2   27 1  
     6   23    3 1  
     7   16    5 1  
     8    5   25 1  
     9    6    7 ar 
    10    6   10 ar 
    11   27    6 1  
    12    7    8 ar 
    13    8    9 ar 
    14   26    9 ar 
    15   10   11 1  
    16   10   26 ar 
    17   11   19 1  
    18   11   20 1  
    19   11   21 1  
    20   16   12 1  
    21   13   22 am 
    22   13   23 2  
    23   24   13 1  
    24   15   14 1  
    25   14   24 1  
    26   15   16 1  
    27   16   17 1  
    28   17   18 1  
    29   18   24 1  
    30    3   28 1  
    31    5   29 1  
    32    5   30 1  
    33    7   31 1  
    34    8   32 1  
    35    9   33 1  
    36   12   34 1  
    37   12   35 1  
    38   12   36 1  
    39   14   37 1  
    40   14   38 1  
    41   15   39 1  
    42   15   40 1  
    43   17   41 1  
    44   17   42 1  
    45   18   43 1  
    46   18   44 1  
    47   22   45 1  
    48   25   46 1  
    49   25   47 1  
    50   25   48 1  
@<TRIPOS>SUBSTRUCTURE
     1 JE1         1

