### 
### Created by X-TOOL on Mon Aug  2 16:14:46 2021
### 

@<TRIPOS>MOLECULE
6md8_ligand
   26    28     1     0     0
SMALL
GAST_HUCK


@<TRIPOS>ATOM
      1 C14       -20.8360  -20.3060  -10.8300 C.2       1 J84         0.1146
      2 C12       -22.8110  -20.5070   -9.3450 C.2       1 J84        -0.0086
      3 C11       -22.1840  -20.5590  -10.5740 C.2       1 J84         0.0464
      4 C01       -27.7980  -21.2850  -11.8720 C.ar      1 J84        -0.0525
      5 C02       -26.6010  -20.7710  -11.3700 C.ar      1 J84        -0.0256
      6 C03       -25.4760  -21.5830  -11.3110 C.ar      1 J84         0.1253
      7 C04       -25.6020  -22.8990  -11.7430 C.ar      1 J84         0.0750
      8 C05       -26.7780  -23.4120  -12.2410 C.ar      1 J84        -0.0386
      9 C06       -27.8750  -22.5960  -12.3070 C.ar      1 J84         0.0329
     10 C10       -23.1600  -20.9890  -11.4730 C.2       1 J84         0.1895
     11 N09       -24.2990  -21.1630  -10.8130 N.pl3     1 J84        -0.1379
     12 N13       -24.0830  -20.8600   -9.5040 N.2       1 J84        -0.2221
     13 N15       -20.3080  -20.0950  -12.0210 N.2       1 J84        -0.1741
     14 N16       -18.9560  -19.9550  -11.8790 N.pl3     1 J84        -0.1174
     15 N17       -18.6880  -20.0890  -10.5620 N.2       1 J84        -0.0598
     16 N18       -19.8660  -20.3190   -9.9340 N.2       1 J84        -0.1895
     17 N19       -22.9910  -21.2230  -12.8900 N.pl3     1 J84        -0.3014
     18 CL07      -29.3880  -23.2880  -12.9470 Cl        1 J84        -0.0777
     19 CL08      -24.2470  -24.0210  -11.6990 Cl        1 J84        -0.0746
     20 H1        -22.3424  -20.2243   -8.4035 H         1 J84         0.0636
     21 H2        -28.6756  -20.6507  -11.9214 H         1 J84         0.0606
     22 H3        -26.5500  -19.7436  -11.0281 H         1 J84         0.0580
     23 H4        -26.8344  -24.4419  -12.5744 H         1 J84         0.0610
     24 H5        -18.2736  -19.7810  -12.6307 H         1 J84         0.2879
     25 H6        -22.0742  -21.0654  -13.3323 H         1 J84         0.1825
     26 H7        -23.7874  -21.5472  -13.4570 H         1 J84         0.1825
@<TRIPOS>BOND
     1    3    1 1  
     2    1   13 2  
     3    1   16 1  
     4    3    2 1  
     5    2   12 2  
     6   10    3 2  
     7    5    4 ar 
     8    4    9 ar 
     9    6    5 ar 
    10    6    7 ar 
    11   11    6 1  
    12    7    8 ar 
    13    7   19 1  
    14    8    9 ar 
    15    9   18 1  
    16   10   11 1  
    17   10   17 1  
    18   11   12 1  
    19   13   14 1  
    20   14   15 1  
    21   15   16 2  
    22    2   20 1  
    23    4   21 1  
    24    5   22 1  
    25    8   23 1  
    26   14   24 1  
    27   17   25 1  
    28   17   26 1  
@<TRIPOS>SUBSTRUCTURE
     1 J84         1

