### 
### Created by X-TOOL on Mon Aug  2 16:14:47 2021
### 

@<TRIPOS>MOLECULE
6mdb_ligand
   49    52     1     0     0
SMALL
GAST_HUCK


@<TRIPOS>ATOM
      1 C1         21.8370   40.5840    4.3840 C.2       1 JE4         0.1952
      2 C2         23.0740   39.9780    4.6220 C.2       1 JE4         0.3006
      3 C3         24.0540   41.1510    2.8640 C.cat     1 JE4         0.2075
      4 O1         20.5870   42.1230    3.1260 O.2       1 JE4        -0.3846
      5 C11        28.5970   42.0580    0.0760 C.3       1 JE4        -0.0187
      6 C12        20.9500   40.0690    5.2640 C.2       1 JE4         0.1748
      7 C13        19.5060   40.2700    5.4380 C.ar      1 JE4         0.0446
      8 C14        18.9500   40.6850    6.6540 C.ar      1 JE4         0.0785
      9 C15        17.5600   40.8810    6.7990 C.ar      1 JE4         0.0662
     10 C16        16.6760   40.6820    5.7170 C.ar      1 JE4        -0.0365
     11 C17        17.2150   40.2370    4.4880 C.ar      1 JE4        -0.0494
     12 C18        18.6150   40.0280    4.3530 C.ar      1 JE4        -0.0383
     13 C10        25.4080   42.7470    1.4380 C.3       1 JE4         0.0322
     14 C4         21.6750   41.5740    3.2890 C.2       1 JE4         0.2214
     15 C5         22.6000   42.6960    1.3730 C.3       1 JE4         0.0204
     16 C6         26.2540   40.4280    1.9250 C.3       1 JE4         0.0322
     17 C7         27.6720   40.9650    2.1970 C.3       1 JE4         0.0140
     18 C8         28.0110   42.3040    1.4700 C.3       1 JE4        -0.0123
     19 C9         26.8400   43.3080    1.3660 C.3       1 JE4         0.0140
     20 N1         24.1860   40.2750    3.8380 N.pl3     1 JE4        -0.1981
     21 N2         22.7830   41.7750    2.5210 N.am      1 JE4        -0.2444
     22 N3         25.2000   41.4420    2.1020 N.pl3     1 JE4        -0.3067
     23 N4         29.0540   42.9660    2.2330 N.4       1 JE4         0.2228
     24 N5         23.0330   39.1570    5.6310 N.pl3     1 JE4        -0.0812
     25 N6         21.7440   39.2400    6.0340 N.2       1 JE4        -0.0585
     26 CL1        16.9700   41.4670    8.3030 Cl        1 JE4        -0.0666
     27 CL2        20.0100   41.0070    7.9640 Cl        1 JE4        -0.0593
     28 H1         29.4303   41.3437    0.1494 H         1 JE4         0.0287
     29 H2         28.9639   43.0077   -0.3404 H         1 JE4         0.0287
     30 H3         27.8177   41.6459   -0.5819 H         1 JE4         0.0287
     31 H4         15.6131   40.8653    5.8252 H         1 JE4         0.0714
     32 H5         16.5583   40.0544    3.6451 H         1 JE4         0.0654
     33 H6         19.0117   39.6780    3.4069 H         1 JE4         0.0696
     34 H7         25.0442   42.6484    0.4046 H         1 JE4         0.0536
     35 H8         24.7948   43.4866    1.9737 H         1 JE4         0.0536
     36 H9         23.5478   42.7884    0.8224 H         1 JE4         0.0480
     37 H10        22.2925   43.6855    1.7421 H         1 JE4         0.0480
     38 H11        21.8241   42.2972    0.7030 H         1 JE4         0.0480
     39 H12        26.0574   39.5963    2.6175 H         1 JE4         0.0536
     40 H13        26.2133   40.0601    0.8892 H         1 JE4         0.0536
     41 H14        28.3956   40.2041    1.8693 H         1 JE4         0.0344
     42 H15        27.7755   41.1271    3.2800 H         1 JE4         0.0344
     43 H16        26.9519   44.0296    2.1886 H         1 JE4         0.0344
     44 H17        26.9401   43.8308    0.4034 H         1 JE4         0.0344
     45 H18        25.0923   39.8191    4.0163 H         1 JE4         0.2477
     46 H19        29.8442   42.3476    2.3287 H         1 JE4         0.1999
     47 H20        28.7018   43.2048    3.1467 H         1 JE4         0.1999
     48 H21        29.3402   43.8051    1.7533 H         1 JE4         0.1999
     49 H22        23.7937   38.5854    6.0253 H         1 JE4         0.2941
@<TRIPOS>BOND
     1    2    1 2  
     2    1    6 1  
     3   14    1 1  
     4   20    2 1  
     5    2   24 1  
     6    3   20 ar 
     7    3   21 ar 
     8   22    3 ar 
     9   14    4 2  
    10   18    5 1  
    11    6    7 1  
    12    6   25 2  
    13    7    8 ar 
    14    7   12 ar 
    15    8    9 ar 
    16    8   27 1  
    17    9   10 ar 
    18    9   26 1  
    19   11   10 ar 
    20   12   11 ar 
    21   13   19 1  
    22   22   13 1  
    23   21   14 am 
    24   21   15 1  
    25   17   16 1  
    26   16   22 1  
    27   17   18 1  
    28   18   19 1  
    29   18   23 1  
    30   24   25 1  
    31    5   28 1  
    32    5   29 1  
    33    5   30 1  
    34   10   31 1  
    35   11   32 1  
    36   12   33 1  
    37   13   34 1  
    38   13   35 1  
    39   15   36 1  
    40   15   37 1  
    41   15   38 1  
    42   16   39 1  
    43   16   40 1  
    44   17   41 1  
    45   17   42 1  
    46   19   43 1  
    47   19   44 1  
    48   20   45 1  
    49   23   46 1  
    50   23   47 1  
    51   23   48 1  
    52   24   49 1  
@<TRIPOS>SUBSTRUCTURE
     1 JE4         1

