### 
### Created by X-TOOL on Mon Aug  2 16:14:47 2021
### 

@<TRIPOS>MOLECULE
6mdc_ligand
   65    70     1     0     0
SMALL
GAST_HUCK


@<TRIPOS>ATOM
      1 C1         22.5040   40.1300    5.1530 C.2       1 JEA         0.3115
      2 C2         21.3350   40.8970    5.1450 C.2       1 JEA         0.2081
      3 C3         21.1150   41.9190    4.0880 C.2       1 JEA         0.2319
      4 O1         29.2640   42.8870    2.1170 O.3       1 JEA        -0.3705
      5 O2         20.0870   42.5990    4.0880 O.2       1 JEA        -0.3775
      6 C11        29.5340   42.2780    3.3470 C.3       1 JEA         0.0988
      7 C12        28.1860   42.5230    4.0610 C.3       1 JEA         0.0101
      8 C13        30.8100   42.9180    3.9010 C.3       1 JEA        -0.0334
      9 C14        21.8630   42.8940    1.9830 C.3       1 JEA         0.0207
     10 C15        20.6170   40.5230    6.2340 C.2       1 JEA         0.1810
     11 C16        19.3000   40.8750    6.7640 C.ar      1 JEA         0.0448
     12 C17        18.1080   40.7840    5.9970 C.ar      1 JEA         0.1013
     13 C18        16.8800   41.1780    6.5930 C.ar      1 JEA         0.1315
     14 C19        17.9510   41.7030    8.6000 C.ar      1 JEA         0.0024
     15 C20        19.2050   41.2990    8.1010 C.ar      1 JEA        -0.0308
     16 C21        14.3980   41.5290    6.3320 C.3       1 JEA         0.0383
     17 C22        13.3440   42.0150    5.3670 C.3       1 JEA        -0.0280
     18 C23        14.0340   42.9980    6.2900 C.3       1 JEA        -0.0280
     19 C10        28.0110   42.4090    1.6760 C.3       1 JEA         0.0592
     20 C4         23.3090   41.1830    3.2700 C.cat     1 JEA         0.2103
     21 C5         24.7930   42.7440    1.9850 C.3       1 JEA         0.0278
     22 C6         25.9520   43.2210    2.8890 C.3       1 JEA        -0.0187
     23 C7         27.1520   42.2050    2.9510 C.3       1 JEA         0.0431
     24 C8         26.6550   40.7140    3.0780 C.3       1 JEA        -0.0187
     25 C9         25.4060   40.3700    2.2100 C.3       1 JEA         0.0278
     26 N1         22.1110   42.0010    3.1500 N.am      1 JEA        -0.2419
     27 N2         23.5240   40.3430    4.2530 N.pl3     1 JEA        -0.1929
     28 N3         24.4010   41.4070    2.4360 N.pl3     1 JEA        -0.3064
     29 N4         28.0570   43.8880    4.6390 N.4       1 JEA         0.2230
     30 N5         21.4360   39.5900    6.8190 N.2       1 JEA        -0.0580
     31 N6         22.6090   39.3550    6.1840 N.pl3     1 JEA        -0.0781
     32 N7         16.8160   41.6320    7.8670 N.ar      1 JEA        -0.2789
     33 N8         15.7030   41.0910    5.8280 N.pl3     1 JEA        -0.3037
     34 CL1        18.0980   40.1710    4.3750 Cl        1 JEA        -0.0656
     35 H1         29.7075   41.1964    3.2471 H         1 JEA         0.0650
     36 H2         28.0703   41.8052    4.8864 H         1 JEA         0.0882
     37 H3         31.0563   42.4635    4.8720 H         1 JEA         0.0256
     38 H4         30.6513   43.9986    4.0317 H         1 JEA         0.0256
     39 H5         31.6390   42.7515    3.1974 H         1 JEA         0.0256
     40 H6         20.8994   43.4083    2.1132 H         1 JEA         0.0480
     41 H7         21.8369   42.2942    1.0613 H         1 JEA         0.0480
     42 H8         22.6696   43.6387    1.9132 H         1 JEA         0.0480
     43 H9         17.8931   42.0863    9.6123 H         1 JEA         0.0794
     44 H10        20.0823   41.3148    8.7376 H         1 JEA         0.0649
     45 H11        14.1110   40.9135    7.1973 H         1 JEA         0.0554
     46 H12        12.2875   41.7560    5.5305 H         1 JEA         0.0288
     47 H13        13.5540   42.0342    4.2874 H         1 JEA         0.0288
     48 H14        14.7460   43.7302    5.8814 H         1 JEA         0.0288
     49 H15        13.4795   43.4519    7.1246 H         1 JEA         0.0288
     50 H16        28.1333   41.4551    1.1421 H         1 JEA         0.0567
     51 H17        27.5356   43.1439    1.0097 H         1 JEA         0.0567
     52 H18        25.1265   42.7037    0.9376 H         1 JEA         0.0535
     53 H19        23.9408   43.4341    2.0722 H         1 JEA         0.0535
     54 H20        25.5635   43.3649    3.9080 H         1 JEA         0.0294
     55 H21        26.3260   44.1797    2.5004 H         1 JEA         0.0294
     56 H22        26.4030   40.5249    4.1319 H         1 JEA         0.0294
     57 H23        27.4779   40.0508    2.7730 H         1 JEA         0.0294
     58 H24        25.0041   39.3897    2.5057 H         1 JEA         0.0535
     59 H25        25.6854   40.3461    1.1463 H         1 JEA         0.0535
     60 H26        24.4274   39.8576    4.3491 H         1 JEA         0.2511
     61 H27        28.7594   44.0196    5.3499 H         1 JEA         0.1998
     62 H28        27.1416   43.9949    5.0472 H         1 JEA         0.1998
     63 H29        28.1827   44.5742    3.9115 H         1 JEA         0.1998
     64 H30        23.3800   38.7263    6.4509 H         1 JEA         0.2940
     65 H31        15.7603   40.7039    4.8752 H         1 JEA         0.1808
@<TRIPOS>BOND
     1    1    2 2  
     2   27    1 1  
     3    1   31 1  
     4    3    2 1  
     5    2   10 1  
     6    3    5 2  
     7   26    3 am 
     8    4    6 1  
     9   19    4 1  
    10    7    6 1  
    11    6    8 1  
    12   23    7 1  
    13    7   29 1  
    14   26    9 1  
    15   10   11 1  
    16   10   30 2  
    17   11   12 ar 
    18   11   15 ar 
    19   12   13 ar 
    20   12   34 1  
    21   13   32 ar 
    22   13   33 1  
    23   15   14 ar 
    24   14   32 ar 
    25   16   17 1  
    26   16   18 1  
    27   33   16 1  
    28   18   17 1  
    29   23   19 1  
    30   20   26 ar 
    31   20   27 ar 
    32   28   20 ar 
    33   22   21 1  
    34   21   28 1  
    35   22   23 1  
    36   23   24 1  
    37   24   25 1  
    38   25   28 1  
    39   30   31 1  
    40    6   35 1  
    41    7   36 1  
    42    8   37 1  
    43    8   38 1  
    44    8   39 1  
    45    9   40 1  
    46    9   41 1  
    47    9   42 1  
    48   14   43 1  
    49   15   44 1  
    50   16   45 1  
    51   17   46 1  
    52   17   47 1  
    53   18   48 1  
    54   18   49 1  
    55   19   50 1  
    56   19   51 1  
    57   21   52 1  
    58   21   53 1  
    59   22   54 1  
    60   22   55 1  
    61   24   56 1  
    62   24   57 1  
    63   25   58 1  
    64   25   59 1  
    65   27   60 1  
    66   29   61 1  
    67   29   62 1  
    68   29   63 1  
    69   31   64 1  
    70   33   65 1  
@<TRIPOS>SUBSTRUCTURE
     1 JEA         1

