### 
### Created by X-TOOL on Mon Aug  2 16:14:47 2021
### 

@<TRIPOS>MOLECULE
6mdd_ligand
   27    29     1     0     0
SMALL
GAST_HUCK


@<TRIPOS>ATOM
      1 C1         22.4620   41.6810    3.7930 C.ar      1 JE7         0.1393
      2 C2         23.4510   40.6950    3.7780 C.ar      1 JE7         0.0324
      3 C12        18.5870   40.4680    5.7110 C.ar      1 JE7         0.0459
      4 C13        17.4240   40.9140    6.3530 C.ar      1 JE7         0.0679
      5 C14        18.5370   40.0140    4.3690 C.ar      1 JE7        -0.0466
      6 C15        16.2210   40.9720    5.6530 C.ar      1 JE7         0.0490
      7 C17        17.3270   40.0810    3.6600 C.ar      1 JE7        -0.0667
      8 C18        16.1760   40.5930    4.2970 C.ar      1 JE7        -0.0540
      9 C5         23.4240   39.5670    4.6200 C.ar      1 JE7        -0.0541
     10 C7         21.3690   40.5120    5.5090 C.ar      1 JE7         0.0821
     11 C8         23.9490   42.2100    2.3490 C.2       1 JE7         0.2133
     12 C9         22.3460   39.4990    5.5210 C.ar      1 JE7        -0.0377
     13 N11        24.6110   42.8570    1.4280 N.pl3     1 JE7        -0.2883
     14 N3         21.4280   41.5820    4.6660 N.ar      1 JE7        -0.2761
     15 N4         22.8250   42.6190    2.8800 N.pl3     1 JE7        -0.2179
     16 N6         24.3100   41.0860    2.8270 N.2       1 JE7        -0.3096
     17 S10        20.0670   40.4710    6.6940 S.3       1 JE7        -0.0312
     18 CL2        17.4680   41.4570    8.0220 Cl        1 JE7        -0.0752
     19 CL1        14.8210   41.5830    6.5080 Cl        1 JE7        -0.0718
     20 H1         19.4269   39.6178    3.8934 H         1 JE7         0.0571
     21 H2         17.2770   39.7422    2.6315 H         1 JE7         0.0602
     22 H3         15.2520   40.6951    3.7394 H         1 JE7         0.0567
     23 H4         24.1870   38.7982    4.5766 H         1 JE7         0.0630
     24 H5         22.2684   38.6732    6.2189 H         1 JE7         0.0557
     25 H6         24.2630   43.7636    1.0846 H         1 JE7         0.1861
     26 H7         25.4811   42.4608    1.0449 H         1 JE7         0.1861
     27 H8         22.3149   43.4838    2.6503 H         1 JE7         0.2342
@<TRIPOS>BOND
     1    1    2 ar 
     2    1   14 ar 
     3   15    1 1  
     4    2    9 ar 
     5    2   16 1  
     6    3    4 ar 
     7    3    5 ar 
     8   17    3 1  
     9    4    6 ar 
    10    4   18 1  
    11    5    7 ar 
    12    6    8 ar 
    13    6   19 1  
    14    7    8 ar 
    15    9   12 ar 
    16   10   12 ar 
    17   14   10 ar 
    18   10   17 1  
    19   11   13 1  
    20   11   15 1  
    21   11   16 2  
    22    5   20 1  
    23    7   21 1  
    24    8   22 1  
    25    9   23 1  
    26   12   24 1  
    27   13   25 1  
    28   13   26 1  
    29   15   27 1  
@<TRIPOS>SUBSTRUCTURE
     1 JE7         1

