### 
### Created by X-TOOL on Mon Aug  2 16:10:57 2021
### 

@<TRIPOS>MOLECULE
6mdq_ligand
   49    52     1     0     0
SMALL
GAST_HUCK


@<TRIPOS>ATOM
      1 C1         33.0240   16.7240   92.8130 C.3       1 TES        -0.0611
      2 C2         34.0800   17.7370   93.2510 C.3       1 TES         0.0243
      3 C3         35.2300   17.0650   93.9220 C.2       1 TES         0.1764
      4 O3         35.8830   17.6230   94.7960 O.2       1 TES        -0.3440
      5 C4         35.5390   15.7140   93.4840 C.2       1 TES         0.0476
      6 C5         34.8670   15.0680   92.5210 C.2       1 TES        -0.0413
      7 C6         35.3870   13.7720   91.9660 C.3       1 TES        -0.0169
      8 C7         34.3030   12.7040   91.8830 C.3       1 TES        -0.0393
      9 C8         33.0830   13.2100   91.1150 C.3       1 TES        -0.0416
     10 C9         32.5230   14.4770   91.7820 C.3       1 TES        -0.0619
     11 C10        33.5830   15.6160   91.9020 C.3       1 TES        -0.0378
     12 C11        31.2000   14.9400   91.1480 C.3       1 TES        -0.0583
     13 C12        30.1610   13.8290   90.9850 C.3       1 TES        -0.0456
     14 C13        30.7240   12.6100   90.2470 C.3       1 TES        -0.0031
     15 C14        31.9770   12.1520   91.0220 C.3       1 TES        -0.0309
     16 C15        32.2840   10.7670   90.4310 C.3       1 TES        -0.0470
     17 C16        30.9000   10.1900   90.0730 C.3       1 TES        -0.0261
     18 C17        29.8920   11.3190   90.3300 C.3       1 TES         0.0609
     19 O17        28.7880   11.2530   89.4220 O.3       1 TES        -0.3912
     20 C18        31.0160   12.9540   88.7740 C.3       1 TES        -0.0569
     21 C19        33.9360   16.2190   90.5270 C.3       1 TES        -0.0890
     22 H1         32.2328   17.2586   92.2670 H         1 TES         0.0172
     23 H2         32.5967   16.2546   93.7114 H         1 TES         0.0172
     24 H3         33.6230   18.4505   93.9525 H         1 TES         0.0483
     25 H4         34.4474   18.2771   92.3659 H         1 TES         0.0483
     26 H5         36.3659   15.1957   93.9672 H         1 TES         0.1318
     27 H6         36.1948   13.4067   92.6172 H         1 TES         0.0450
     28 H7         35.7836   13.9531   90.9561 H         1 TES         0.0450
     29 H8         33.9951   12.4260   92.9018 H         1 TES         0.0293
     30 H9         34.7090   11.8205   91.3687 H         1 TES         0.0293
     31 H10        33.4037   13.4631   90.0937 H         1 TES         0.0298
     32 H11        32.2757   14.1898   92.8146 H         1 TES         0.0187
     33 H12        31.4205   15.3549   90.1534 H         1 TES         0.0259
     34 H13        30.7681   15.7255   91.7855 H         1 TES         0.0259
     35 H14        29.3070   14.2241   90.4152 H         1 TES         0.0271
     36 H15        29.8216   13.5129   91.9824 H         1 TES         0.0271
     37 H16        31.6756   11.9816   92.0661 H         1 TES         0.0309
     38 H17        32.7915   10.1312   91.1714 H         1 TES         0.0269
     39 H18        32.9126   10.8573   89.5329 H         1 TES         0.0269
     40 H19        30.6717    9.3218   90.7086 H         1 TES         0.0290
     41 H20        30.8738    9.8875   89.0158 H         1 TES         0.0290
     42 H21        29.4872   11.2241   91.3484 H         1 TES         0.0599
     43 H22        28.3418   10.4210   89.5277 H         1 TES         0.2098
     44 H23        31.6109   13.8779   88.7243 H         1 TES         0.0236
     45 H24        30.0674   13.0994   88.2364 H         1 TES         0.0236
     46 H25        31.5782   12.1304   88.3096 H         1 TES         0.0236
     47 H26        34.6837   17.0153   90.6569 H         1 TES         0.0112
     48 H27        33.0293   16.6390   90.0671 H         1 TES         0.0112
     49 H28        34.3468   15.4329   89.8764 H         1 TES         0.0112
@<TRIPOS>BOND
     1    1    2 1  
     2    1   11 1  
     3    2    3 1  
     4    3    4 2  
     5    3    5 1  
     6    5    6 2  
     7    6    7 1  
     8    6   11 1  
     9    7    8 1  
    10    8    9 1  
    11    9   10 1  
    12    9   15 1  
    13   10   11 1  
    14   10   12 1  
    15   11   21 1  
    16   12   13 1  
    17   13   14 1  
    18   14   15 1  
    19   14   18 1  
    20   14   20 1  
    21   15   16 1  
    22   16   17 1  
    23   17   18 1  
    24   18   19 1  
    25    1   22 1  
    26    1   23 1  
    27    2   24 1  
    28    2   25 1  
    29    5   26 1  
    30    7   27 1  
    31    7   28 1  
    32    8   29 1  
    33    8   30 1  
    34    9   31 1  
    35   10   32 1  
    36   12   33 1  
    37   12   34 1  
    38   13   35 1  
    39   13   36 1  
    40   15   37 1  
    41   16   38 1  
    42   16   39 1  
    43   17   40 1  
    44   17   41 1  
    45   18   42 1  
    46   19   43 1  
    47   20   44 1  
    48   20   45 1  
    49   20   46 1  
    50   21   47 1  
    51   21   48 1  
    52   21   49 1  
@<TRIPOS>SUBSTRUCTURE
     1 TES         1

