### 
### Created by X-TOOL on Mon Aug  2 16:14:47 2021
### 

@<TRIPOS>MOLECULE
6mdu_ligand
   38    41     1     0     0
SMALL
GAST_HUCK


@<TRIPOS>ATOM
      1 C02        13.4440   10.9840    4.7280 C.2       1 N1G         0.2482
      2 C04        11.0140   10.1970    4.6120 C.2       1 N1G         0.2805
      3 C09        14.3290   12.1470    5.1290 C.2       1 N1G         0.1202
      4 C12        17.2310   14.2870    5.1460 C.ar      1 N1G         0.1142
      5 C13        18.4320   13.5970    5.1740 C.ar      1 N1G        -0.0246
      6 C14        19.6340   14.2650    4.9790 C.ar      1 N1G        -0.0652
      7 C15        19.6380   15.6280    4.7490 C.ar      1 N1G        -0.0682
      8 C16        18.4410   16.3180    4.7250 C.ar      1 N1G        -0.0652
      9 C17        17.2440   15.6500    4.9210 C.ar      1 N1G        -0.0246
     10 C18        14.9640   13.9640    6.1510 C.2       1 N1G         0.1115
     11 C19        14.9200   15.1320    7.1060 C.ar      1 N1G         0.0124
     12 C20        14.0450   16.1850    6.9080 C.ar      1 N1G        -0.0518
     13 C21        14.0370   17.2290    7.8170 C.ar      1 N1G        -0.0616
     14 C22        14.8870   17.1880    8.9140 C.ar      1 N1G        -0.0622
     15 C23        15.7540   16.1250    9.0990 C.ar      1 N1G        -0.0616
     16 C24        15.7650   15.0860    8.1950 C.ar      1 N1G        -0.0518
     17 C25        13.9510   13.0710    6.0420 C.2       1 N1G        -0.0169
     18 N03        12.0290   11.1710    4.9240 N.am      1 N1G        -0.1810
     19 N05         9.7840   10.5180    4.1310 N.pl3     1 N1G        -0.1360
     20 N06         9.0980    9.2770    3.9820 N.2       1 N1G        -0.0836
     21 N07         9.9740    8.3180    4.3900 N.2       1 N1G        -0.1669
     22 N08        11.0590    8.9290    4.7390 N.2       1 N1G        -0.2198
     23 N10        15.5430   12.4540    4.6840 N.2       1 N1G        -0.1754
     24 N11        15.9590   13.6050    5.3420 N.pl3     1 N1G        -0.1500
     25 O01        13.8980    9.9800    4.2940 O.2       1 N1G        -0.3698
     26 H1         18.4336   12.5273    5.3495 H         1 N1G         0.0591
     27 H2         20.5691   13.7174    5.0072 H         1 N1G         0.0601
     28 H3         20.5734   16.1518    4.5886 H         1 N1G         0.0562
     29 H4         18.4390   17.3881    4.5518 H         1 N1G         0.0601
     30 H5         16.3105   16.2005    4.8977 H         1 N1G         0.0591
     31 H6         13.3764   16.1925    6.0548 H         1 N1G         0.0621
     32 H7         13.3717   18.0727    7.6733 H         1 N1G         0.0616
     33 H8         14.8715   17.9981    9.6341 H         1 N1G         0.0613
     34 H9         16.4221   16.1103    9.9525 H         1 N1G         0.0616
     35 H10        16.4300   14.2420    8.3378 H         1 N1G         0.0621
     36 H11        13.0086   13.0929    6.5874 H         1 N1G         0.0414
     37 H12        11.7279   12.0446    5.3063 H         1 N1G         0.2379
     38 H13         9.4235   11.4592    3.9189 H         1 N1G         0.2663
@<TRIPOS>BOND
     1    3    1 1  
     2    1   18 am 
     3    1   25 2  
     4   18    2 1  
     5    2   19 1  
     6    2   22 2  
     7   17    3 1  
     8    3   23 2  
     9    4    5 ar 
    10    4    9 ar 
    11   24    4 1  
    12    5    6 ar 
    13    6    7 ar 
    14    8    7 ar 
    15    9    8 ar 
    16   10   11 1  
    17   10   17 2  
    18   10   24 1  
    19   11   12 ar 
    20   11   16 ar 
    21   12   13 ar 
    22   13   14 ar 
    23   14   15 ar 
    24   15   16 ar 
    25   19   20 1  
    26   20   21 2  
    27   21   22 1  
    28   23   24 1  
    29    5   26 1  
    30    6   27 1  
    31    7   28 1  
    32    8   29 1  
    33    9   30 1  
    34   12   31 1  
    35   13   32 1  
    36   14   33 1  
    37   15   34 1  
    38   16   35 1  
    39   17   36 1  
    40   18   37 1  
    41   19   38 1  
@<TRIPOS>SUBSTRUCTURE
     1 N1G         1

