### 
### Created by X-TOOL on Mon Aug  2 16:10:57 2021
### 

@<TRIPOS>MOLECULE
6me2_ligand
   38    40     1     0     0
SMALL
GAST_HUCK


@<TRIPOS>ATOM
      1 C4         24.3780  -21.3590   46.3860 C.3       1 JEV         0.0327
      2 C3         23.2130  -19.1850   46.9310 C.2       1 JEV         0.1757
      3 C2         24.4320  -18.7560   47.7700 C.3       1 JEV         0.0344
      4 O2         22.2350  -18.4420   46.8470 O.2       1 JEV        -0.3971
      5 C1         24.8590  -17.3290   47.4170 C.3       1 JEV        -0.0482
      6 O1         28.9750  -24.4470   48.3670 O.3       1 JEV        -0.2645
      7 C7         23.1860  -24.7890   46.8420 C.3       1 JEV        -0.0348
      8 C8         23.6150  -25.8030   47.8900 C.3       1 JEV        -0.0259
      9 C9         24.9800  -25.6230   48.1190 C.ar      1 JEV        -0.0555
     10 C10        25.8450  -26.3760   48.9110 C.ar      1 JEV        -0.0780
     11 C11        27.1980  -26.0450   48.9990 C.ar      1 JEV        -0.0436
     12 C12        27.7010  -24.9220   48.3450 C.ar      1 JEV         0.1122
     13 C15        29.0800  -23.5230   47.2630 C.2       1 JEV         0.0795
     14 C14        27.6630  -23.0530   47.0120 C.2       1 JEV        -0.0520
     15 C13        26.8400  -24.1630   47.5750 C.ar      1 JEV        -0.0138
     16 C16        25.4760  -24.4970   47.4540 C.ar      1 JEV        -0.0457
     17 C6         24.3530  -23.8430   46.6910 C.3       1 JEV        -0.0105
     18 C5         23.9950  -22.4960   47.3260 C.3       1 JEV        -0.0217
     19 N1         23.2580  -20.3990   46.3270 N.am      1 JEV        -0.2868
     20 H1         24.5758  -21.7598   45.3809 H         1 JEV         0.0521
     21 H2         25.2794  -20.8539   46.7633 H         1 JEV         0.0521
     22 H3         25.2677  -19.4426   47.5694 H         1 JEV         0.0500
     23 H4         24.1691  -18.8003   48.8372 H         1 JEV         0.0500
     24 H5         25.7291  -17.0451   48.0272 H         1 JEV         0.0254
     25 H6         24.0281  -16.6370   47.6190 H         1 JEV         0.0254
     26 H7         25.1267  -17.2794   46.3512 H         1 JEV         0.0254
     27 H8         22.2913  -24.2445   47.1781 H         1 JEV         0.0306
     28 H9         22.9725  -25.2909   45.8868 H         1 JEV         0.0306
     29 H10        23.4277  -26.8231   47.5235 H         1 JEV         0.0391
     30 H11        23.0538  -25.6394   48.8218 H         1 JEV         0.0391
     31 H12        25.4633  -27.2267   49.4638 H         1 JEV         0.0478
     32 H13        27.8653  -26.6687   49.5828 H         1 JEV         0.0485
     33 H14        29.9814  -23.2284   46.7277 H         1 JEV         0.1038
     34 H15        27.3272  -22.1321   46.5376 H         1 JEV         0.0330
     35 H16        24.6211  -23.7047   45.6332 H         1 JEV         0.0442
     36 H17        22.9127  -22.4604   47.5189 H         1 JEV         0.0307
     37 H18        24.5405  -22.3840   48.2746 H         1 JEV         0.0307
     38 H19        22.4576  -20.6688   45.7917 H         1 JEV         0.1851
@<TRIPOS>BOND
     1   18    1 1  
     2    1   19 1  
     3    2    3 1  
     4    2    4 2  
     5   19    2 am 
     6    3    5 1  
     7   12    6 1  
     8   13    6 1  
     9    7    8 1  
    10   17    7 1  
    11    9    8 1  
    12    9   10 ar 
    13   16    9 ar 
    14   10   11 ar 
    15   12   11 ar 
    16   15   12 ar 
    17   14   13 2  
    18   15   14 1  
    19   16   15 ar 
    20   17   16 1  
    21   17   18 1  
    22    1   20 1  
    23    1   21 1  
    24    3   22 1  
    25    3   23 1  
    26    5   24 1  
    27    5   25 1  
    28    5   26 1  
    29    7   27 1  
    30    7   28 1  
    31    8   29 1  
    32    8   30 1  
    33   10   31 1  
    34   11   32 1  
    35   13   33 1  
    36   14   34 1  
    37   17   35 1  
    38   18   36 1  
    39   18   37 1  
    40   19   38 1  
@<TRIPOS>SUBSTRUCTURE
     1 JEV         1

