### 
### Created by X-TOOL on Mon Aug  2 16:10:58 2021
### 

@<TRIPOS>MOLECULE
6me3_ligand
   43    45     1     0     0
SMALL
GAST_HUCK


@<TRIPOS>ATOM
      1 C4         24.4340  -22.9840   46.3040 C.3       1 JEY        -0.0118
      2 C3         24.6290  -21.8660   47.3190 C.3       1 JEY         0.0364
      3 C2         23.9300  -19.5140   47.4540 C.2       1 JEY         0.1730
      4 O2         23.6710  -19.5560   48.6630 O.2       1 JEY        -0.3974
      5 C1         23.7150  -18.2450   46.6640 C.3       1 JEY         0.0257
      6 O1         29.4080  -24.4240   48.1630 O.3       1 JEY        -0.3299
      7 N1         24.3720  -20.5620   46.7360 N.am      1 JEY        -0.2857
      8 C10        28.1350  -24.9280   48.1920 C.ar      1 JEY         0.0738
      9 C11        27.0870  -24.2700   47.5360 C.ar      1 JEY        -0.0462
     10 C12        25.7850  -24.7740   47.5510 C.ar      1 JEY        -0.0242
     11 C13        29.5200  -23.0770   47.6730 C.3       1 JEY         0.0568
     12 C14        21.3360  -24.0760   47.1360 C.ar      1 JEY        -0.0572
     13 C15        20.0070  -24.1070   46.6700 C.ar      1 JEY        -0.0652
     14 C16        19.4850  -25.2600   46.0520 C.ar      1 JEY        -0.0654
     15 C17        20.3020  -26.3910   45.8950 C.ar      1 JEY        -0.0652
     16 C18        21.6400  -26.3490   46.3350 C.ar      1 JEY        -0.0572
     17 C19        22.1650  -25.1990   46.9570 C.ar      1 JEY        -0.0052
     18 N2         24.1710  -26.2520   48.0470 N.pl3     1 JEY        -0.2866
     19 C5         24.5770  -24.3060   47.0130 C.2       1 JEY        -0.0328
     20 C6         23.5730  -25.2040   47.3850 C.2       1 JEY         0.0602
     21 C7         25.5190  -25.9680   48.2140 C.ar      1 JEY         0.0531
     22 C8         26.5640  -26.6360   48.8660 C.ar      1 JEY        -0.0480
     23 C9         27.8740  -26.1400   48.8380 C.ar      1 JEY        -0.0444
     24 H1         25.1942  -22.9034   45.5130 H         1 JEY         0.0390
     25 H2         23.4313  -22.9091   45.8580 H         1 JEY         0.0390
     26 H3         25.6655  -21.8944   47.6862 H         1 JEY         0.0537
     27 H4         23.9376  -22.0232   48.1600 H         1 JEY         0.0537
     28 H5         24.0027  -18.4126   45.6156 H         1 JEY         0.0467
     29 H6         24.3317  -17.4395   47.0892 H         1 JEY         0.0467
     30 H7         22.6540  -17.9587   46.7117 H         1 JEY         0.0467
     31 H8         24.5306  -20.4371   45.7566 H         1 JEY         0.1852
     32 H9         27.2915  -23.3478   47.0042 H         1 JEY         0.0444
     33 H10        30.5754  -22.7674   47.6895 H         1 JEY         0.0573
     34 H11        28.9305  -22.4039   48.3128 H         1 JEY         0.0573
     35 H12        29.1399  -23.0291   46.6419 H         1 JEY         0.0573
     36 H13        21.7186  -23.1905   47.6306 H         1 JEY         0.0592
     37 H14        19.3779  -23.2322   46.7886 H         1 JEY         0.0607
     38 H15        18.4598  -25.2741   45.7001 H         1 JEY         0.0587
     39 H16        19.9060  -27.2908   45.4382 H         1 JEY         0.0607
     40 H17        22.2756  -27.2155   46.1926 H         1 JEY         0.0592
     41 H18        23.6954  -27.1079   48.3665 H         1 JEY         0.2165
     42 H19        26.3548  -27.5544   49.4025 H         1 JEY         0.0525
     43 H20        28.6778  -26.6909   49.3129 H         1 JEY         0.0493
@<TRIPOS>BOND
     1    1    2 1  
     2   19    1 1  
     3    2    7 1  
     4    3    4 2  
     5    3    5 1  
     6    7    3 am 
     7    8    6 1  
     8    6   11 1  
     9    9    8 ar 
    10    8   23 ar 
    11   10    9 ar 
    12   10   19 1  
    13   21   10 ar 
    14   12   13 ar 
    15   17   12 ar 
    16   13   14 ar 
    17   15   14 ar 
    18   16   15 ar 
    19   17   16 ar 
    20   20   17 1  
    21   18   20 1  
    22   18   21 1  
    23   19   20 2  
    24   21   22 ar 
    25   22   23 ar 
    26    1   24 1  
    27    1   25 1  
    28    2   26 1  
    29    2   27 1  
    30    5   28 1  
    31    5   29 1  
    32    5   30 1  
    33    7   31 1  
    34    9   32 1  
    35   11   33 1  
    36   11   34 1  
    37   11   35 1  
    38   12   36 1  
    39   13   37 1  
    40   14   38 1  
    41   15   39 1  
    42   16   40 1  
    43   18   41 1  
    44   22   42 1  
    45   23   43 1  
@<TRIPOS>SUBSTRUCTURE
     1 JEY         1

