### 
### Created by X-TOOL on Mon Aug  2 16:14:48 2021
### 

@<TRIPOS>MOLECULE
6me4_ligand
   33    34     1     0     0
SMALL
GAST_HUCK


@<TRIPOS>ATOM
      1 C2         23.0100  -25.0520   47.5440 C.2       1 ML2         0.0842
      2 C4         24.8670  -25.9940   48.3370 C.ar      1 ML2         0.0530
      3 C5         25.8490  -26.7630   48.9660 C.ar      1 ML2        -0.0480
      4 C6         27.1960  -26.3780   48.9110 C.ar      1 ML2        -0.0443
      5 C9         29.2260  -23.5770   47.6490 C.3       1 ML2         0.0567
      6 C12        24.0460  -24.2380   47.1860 C.2       1 ML2        -0.0352
      7 C13        23.9370  -22.9200   46.4690 C.3       1 ML2        -0.0139
      8 N15        23.7960  -20.5020   46.8760 N.am      1 ML2        -0.2859
      9 C16        23.3380  -19.4580   47.5790 C.2       1 ML2         0.1730
     10 C18        23.0700  -18.2060   46.7400 C.3       1 ML2         0.0257
     11 I1         20.9940  -24.7020   47.0470 I         1 ML2        -0.0327
     12 N3         23.4970  -26.1310   48.2270 N.pl3     1 ML2        -0.2875
     13 C7         27.5770  -25.1990   48.2620 C.ar      1 ML2         0.0738
     14 O8         28.9040  -24.8550   48.2330 O.3       1 ML2        -0.3299
     15 C10        26.5890  -24.4170   47.6510 C.ar      1 ML2        -0.0467
     16 C11        25.2470  -24.8100   47.6970 C.ar      1 ML2        -0.0265
     17 C14        24.1300  -21.7930   47.4880 C.3       1 ML2         0.0358
     18 O17        23.1520  -19.4660   48.7980 O.2       1 ML2        -0.3974
     19 H1         25.5677  -27.6634   49.5002 H         1 ML2         0.0529
     20 H2         27.9508  -27.0012   49.3768 H         1 ML2         0.0492
     21 H3         30.3142  -23.4207   47.6860 H         1 ML2         0.0573
     22 H4         28.7216  -22.7786   48.2130 H         1 ML2         0.0573
     23 H5         28.8880  -23.5565   46.6024 H         1 ML2         0.0573
     24 H6         22.9445  -22.8324   46.0030 H         1 ML2         0.0380
     25 H7         24.7136  -22.8549   45.6927 H         1 ML2         0.0380
     26 H8         23.9158  -20.3968   45.8888 H         1 ML2         0.1852
     27 H9         22.6986  -17.4009   47.3911 H         1 ML2         0.0467
     28 H10        22.3161  -18.4337   45.9720 H         1 ML2         0.0467
     29 H11        24.0027  -17.8837   46.2541 H         1 ML2         0.0467
     30 H12        22.9378  -26.9130   48.5967 H         1 ML2         0.2189
     31 H13        26.8655  -23.5021   47.1396 H         1 ML2         0.0446
     32 H14        25.1783  -21.7782   47.8209 H         1 ML2         0.0535
     33 H15        23.4730  -21.9671   48.3529 H         1 ML2         0.0535
@<TRIPOS>BOND
     1    6    1 2  
     2    1   11 1  
     3   12    1 1  
     4    3    2 ar 
     5    2   12 1  
     6    2   16 ar 
     7    4    3 ar 
     8   13    4 ar 
     9   14    5 1  
    10    6    7 1  
    11   16    6 1  
    12    7   17 1  
    13    8    9 am 
    14   17    8 1  
    15    9   10 1  
    16    9   18 2  
    17   13   14 1  
    18   13   15 ar 
    19   15   16 ar 
    20    3   19 1  
    21    4   20 1  
    22    5   21 1  
    23    5   22 1  
    24    5   23 1  
    25    7   24 1  
    26    7   25 1  
    27    8   26 1  
    28   10   27 1  
    29   10   28 1  
    30   10   29 1  
    31   12   30 1  
    32   15   31 1  
    33   17   32 1  
    34   17   33 1  
@<TRIPOS>SUBSTRUCTURE
     1 ML2         1

