### 
### Created by X-TOOL on Mon Aug  2 16:10:58 2021
### 

@<TRIPOS>MOLECULE
6me5_ligand
   35    36     1     0     0
SMALL
GAST_HUCK


@<TRIPOS>ATOM
      1 N1         24.6020  -20.5250   47.2830 N.am      1 AWY        -0.2851
      2 C4         23.8010  -22.7700   46.6590 C.3       1 AWY         0.0015
      3 C5         23.9490  -24.0120   47.3110 C.ar      1 AWY        -0.0363
      4 C6         22.7880  -24.7440   47.6240 C.ar      1 AWY        -0.0647
      5 C7         22.8810  -25.9750   48.2800 C.ar      1 AWY        -0.0743
      6 C8         24.1340  -26.4890   48.6290 C.ar      1 AWY        -0.0674
      7 C10        25.2200  -24.5490   47.6380 C.ar      1 AWY        -0.0226
      8 C13        27.7220  -25.6420   48.3550 C.ar      1 AWY        -0.0293
      9 C15        28.8230  -22.3390   47.1930 C.3       1 AWY         0.0592
     10 C1         25.2780  -18.3050   46.6230 C.3       1 AWY         0.0257
     11 C2         24.1710  -19.2710   47.0390 C.2       1 AWY         0.1730
     12 O1         23.0010  -18.8830   47.1160 O.2       1 AWY        -0.3974
     13 C3         23.7090  -21.6230   47.6840 C.3       1 AWY         0.0406
     14 C9         25.3000  -25.7890   48.3080 C.ar      1 AWY        -0.0311
     15 C11        26.4180  -23.8780   47.3340 C.ar      1 AWY        -0.0297
     16 C12        27.6670  -24.4010   47.7110 C.ar      1 AWY         0.0904
     17 C14        26.5410  -26.3120   48.6850 C.ar      1 AWY        -0.0592
     18 O2         28.8570  -23.7660   47.4020 O.3       1 AWY        -0.3219
     19 H1         25.5783  -20.7185   47.1865 H         1 AWY         0.1852
     20 H2         22.8828  -22.7874   46.0535 H         1 AWY         0.0451
     21 H3         24.6687  -22.6003   46.0045 H         1 AWY         0.0451
     22 H4         21.8147  -24.3502   47.3544 H         1 AWY         0.0519
     23 H5         21.9817  -26.5313   48.5182 H         1 AWY         0.0564
     24 H6         24.2011  -27.4363   49.1517 H         1 AWY         0.0536
     25 H7         28.6815  -26.0840   48.5981 H         1 AWY         0.0587
     26 H8         29.8353  -21.9788   46.9573 H         1 AWY         0.0577
     27 H9         28.4607  -21.8433   48.1057 H         1 AWY         0.0577
     28 H10        28.1472  -22.1069   46.3567 H         1 AWY         0.0577
     29 H11        24.8471  -17.3090   46.4432 H         1 AWY         0.0467
     30 H12        25.7557  -18.6695   45.7016 H         1 AWY         0.0467
     31 H13        26.0287  -18.2405   47.4244 H         1 AWY         0.0467
     32 H14        22.6735  -21.2544   47.7278 H         1 AWY         0.0544
     33 H15        24.0084  -21.9940   48.6753 H         1 AWY         0.0544
     34 H16        26.3773  -22.9371   46.7973 H         1 AWY         0.0503
     35 H17        26.5871  -27.2437   49.2371 H         1 AWY         0.0603
@<TRIPOS>BOND
     1    1   11 am 
     2   13    1 1  
     3    3    2 1  
     4    2   13 1  
     5    3    4 ar 
     6    7    3 ar 
     7    4    5 ar 
     8    6    5 ar 
     9   14    6 ar 
    10    7   14 ar 
    11   15    7 ar 
    12   16    8 ar 
    13    8   17 ar 
    14   18    9 1  
    15   11   10 1  
    16   11   12 2  
    17   17   14 ar 
    18   16   15 ar 
    19   16   18 1  
    20    1   19 1  
    21    2   20 1  
    22    2   21 1  
    23    4   22 1  
    24    5   23 1  
    25    6   24 1  
    26    8   25 1  
    27    9   26 1  
    28    9   27 1  
    29    9   28 1  
    30   10   29 1  
    31   10   30 1  
    32   10   31 1  
    33   13   32 1  
    34   13   33 1  
    35   15   34 1  
    36   17   35 1  
@<TRIPOS>SUBSTRUCTURE
     1 AWY         1

