### 
### Created by X-TOOL on Mon Aug  2 16:14:48 2021
### 

@<TRIPOS>MOLECULE
6mep_ligand
   93    99     1     0     0
SMALL
GAST_HUCK


@<TRIPOS>ATOM
      1 O01       -13.2370   11.1170  -16.9030 O.3       1 MOL        -0.3918
      2 C02       -14.1560   10.6940  -15.9140 C.3       1 MOL         0.0554
      3 C03       -13.6640    9.3980  -15.3350 C.3       1 MOL        -0.0247
      4 C04       -13.8910    8.1780  -16.2470 C.3       1 MOL        -0.0272
      5 C05       -15.5610   10.6220  -16.5590 C.3       1 MOL        -0.0247
      6 C06       -15.7890    9.3820  -17.4480 C.3       1 MOL        -0.0272
      7 C07       -15.3230    8.0970  -16.8260 C.3       1 MOL         0.0411
      8 N08       -15.3610    7.0450  -17.8760 N.pl3     1 MOL        -0.2986
      9 C09       -15.7840    5.6520  -17.5510 C.ar      1 MOL         0.1244
     10 C10       -16.2910    4.7900  -18.5440 C.ar      1 MOL         0.0361
     11 C11       -16.4550    5.1650  -20.0460 C.ar      1 MOL        -0.0248
     12 C12       -15.3120    5.4070  -20.8260 C.ar      1 MOL        -0.0633
     13 C13       -15.4500    5.7220  -22.1900 C.ar      1 MOL        -0.0565
     14 C14       -16.7240    5.7760  -22.7740 C.ar      1 MOL         0.0001
     15 C15       -16.8340    6.1140  -24.2950 C.3       1 MOL         0.0018
     16 N16       -15.9600    5.3630  -24.9370 N.4       1 MOL         0.2545
     17 C17       -15.8220    5.7120  -26.2340 C.3       1 MOL         0.0109
     18 C18       -14.6290    4.9480  -26.8070 C.3       1 MOL         0.0092
     19 N19       -14.7940    3.5760  -26.7610 N.4       1 MOL         0.2405
     20 C20       -14.8530    3.0880  -27.9440 C.3       1 MOL        -0.0427
     21 C21       -15.8590    3.1560  -26.0180 C.3       1 MOL         0.0092
     22 C22       -16.1370    3.9970  -24.7630 C.3       1 MOL         0.0109
     23 C23       -17.8610    5.5190  -22.0080 C.ar      1 MOL        -0.0565
     24 C24       -17.7170    5.2030  -20.6170 C.ar      1 MOL        -0.0633
     25 C25       -16.6670    3.4830  -18.2080 C.ar      1 MOL         0.0084
     26 N26       -16.5400    3.0870  -16.9200 N.ar      1 MOL        -0.2683
     27 C27       -16.0790    3.8930  -16.0120 C.ar      1 MOL         0.1964
     28 N28       -15.9900    3.3330  -14.6370 N.pl3     1 MOL        -0.2415
     29 C29       -15.1970    4.0270  -13.5410 C.ar      1 MOL         0.0710
     30 C30       -13.9940    4.6860  -13.7900 C.ar      1 MOL        -0.0328
     31 C31       -13.3010    5.3070  -12.7330 C.ar      1 MOL        -0.0591
     32 C32       -13.8470    5.2580  -11.4420 C.ar      1 MOL        -0.0289
     33 C33       -13.2350    5.8230  -10.2440 C.2       1 MOL        -0.0556
     34 C34       -12.8250    4.8530   -9.4350 C.2       1 MOL        -0.0452
     35 C35       -12.1990    4.9220   -8.0440 C.ar      1 MOL         0.0284
     36 N36       -11.2120    5.6850   -7.5720 N.ar      1 MOL        -0.3087
     37 C37       -10.8120    5.5770   -6.3110 C.ar      1 MOL        -0.0019
     38 C38       -11.4220    4.6460   -5.4390 C.ar      1 MOL        -0.0304
     39 C39       -12.4590    3.8390   -5.9340 C.ar      1 MOL         0.0368
     40 C40       -13.2730    2.7690   -5.2290 C.3       1 MOL         0.2301
     41 O41       -13.1050    1.4850   -5.4740 O.3       1 MOL        -0.2992
     42 C42       -13.9980    0.7950   -4.7450 C.2       1 MOL         0.0601
     43 C43       -14.7600    1.7490   -4.0410 C.2       1 MOL         0.0601
     44 O44       -14.2710    2.9630   -4.3990 O.3       1 MOL        -0.2992
     45 C45       -12.8250    3.9930   -7.2320 C.ar      1 MOL        -0.0257
     46 C46       -15.0420    4.5780  -11.2040 C.ar      1 MOL        -0.0591
     47 C47       -15.7250    3.9670  -12.2430 C.ar      1 MOL        -0.0328
     48 N48       -15.6950    5.1710  -16.3020 N.ar      1 MOL        -0.2367
     49 H1        -13.5341   11.9369  -17.2798 H         1 MOL         0.2098
     50 H2        -14.1895   11.4383  -15.1047 H         1 MOL         0.0593
     51 H3        -14.1896    9.2220  -14.3849 H         1 MOL         0.0291
     52 H4        -12.5846    9.4917  -15.1451 H         1 MOL         0.0291
     53 H5        -13.7001    7.2661  -15.6622 H         1 MOL         0.0289
     54 H6        -13.1797    8.2323  -17.0843 H         1 MOL         0.0289
     55 H7        -15.7023   11.5202  -17.1780 H         1 MOL         0.0291
     56 H8        -16.3097   10.6105  -15.7533 H         1 MOL         0.0291
     57 H9        -15.2446    9.5275  -18.3927 H         1 MOL         0.0289
     58 H10       -16.8660    9.2967  -17.6548 H         1 MOL         0.0289
     59 H11       -16.0126    7.8297  -16.0118 H         1 MOL         0.0561
     60 H12       -15.0914    7.2815  -18.8416 H         1 MOL         0.1859
     61 H13       -14.3265    5.3512  -20.3781 H         1 MOL         0.0587
     62 H14       -14.5704    5.9233  -22.7906 H         1 MOL         0.0556
     63 H15       -16.6066    7.1775  -24.4599 H         1 MOL         0.0979
     64 H16       -17.8505    5.8963  -24.6546 H         1 MOL         0.0979
     65 H17       -15.0715    5.5693  -24.5079 H         1 MOL         0.2052
     66 H18       -15.6436    6.7946  -26.3118 H         1 MOL         0.0868
     67 H19       -16.7343    5.4498  -26.7898 H         1 MOL         0.0868
     68 H20       -13.7321    5.2128  -26.2279 H         1 MOL         0.0868
     69 H21       -14.4905    5.2495  -27.8558 H         1 MOL         0.0868
     70 H22       -13.9686    3.2010  -26.3203 H         1 MOL         0.2035
     71 H23       -14.9841    1.9975  -27.8846 H         1 MOL         0.0778
     72 H24       -13.9210    3.3164  -28.4818 H         1 MOL         0.0778
     73 H25       -15.7045    3.5309  -28.4813 H         1 MOL         0.0778
     74 H26       -15.6686    2.1200  -25.7010 H         1 MOL         0.0868
     75 H27       -16.7548    3.1856  -26.6557 H         1 MOL         0.0868
     76 H28       -17.1783    3.8215  -24.4551 H         1 MOL         0.0868
     77 H29       -15.4573    3.6608  -23.9661 H         1 MOL         0.0868
     78 H30       -18.8452    5.5579  -22.4606 H         1 MOL         0.0556
     79 H31       -18.5930    4.9944  -20.0136 H         1 MOL         0.0587
     80 H32       -17.0506    2.8049  -18.9617 H         1 MOL         0.0846
     81 H33       -16.4783    2.4521  -14.4216 H         1 MOL         0.2205
     82 H34       -13.5924    4.7204  -14.7963 H         1 MOL         0.0554
     83 H35       -12.3606    5.8148  -12.9142 H         1 MOL         0.0619
     84 H36       -13.1295    6.8879  -10.0421 H         1 MOL         0.0669
     85 H37       -12.9565    3.8455   -9.8270 H         1 MOL         0.0576
     86 H38       -10.0100    6.2086   -5.9462 H         1 MOL         0.0797
     87 H39       -11.0957    4.5570   -4.4091 H         1 MOL         0.0627
     88 H40       -12.5428    2.7632   -4.4064 H         1 MOL         0.1201
     89 H41       -14.1108   -0.2874   -4.7058 H         1 MOL         0.0740
     90 H42       -15.5771    1.5515   -3.3487 H         1 MOL         0.0740
     91 H43       -13.6201    3.3786   -7.6387 H         1 MOL         0.0629
     92 H44       -15.4396    4.5273  -10.1968 H         1 MOL         0.0619
     93 H45       -16.6578    3.4479  -12.0547 H         1 MOL         0.0554
@<TRIPOS>BOND
     1    1    2 1  
     2    2    3 1  
     3    2    5 1  
     4    3    4 1  
     5    4    7 1  
     6    5    6 1  
     7    6    7 1  
     8    7    8 1  
     9    8    9 1  
    10    9   10 ar 
    11    9   48 ar 
    12   10   11 1  
    13   10   25 ar 
    14   11   12 ar 
    15   11   24 ar 
    16   12   13 ar 
    17   13   14 ar 
    18   14   15 1  
    19   14   23 ar 
    20   15   16 1  
    21   16   17 1  
    22   16   22 1  
    23   17   18 1  
    24   18   19 1  
    25   19   20 1  
    26   19   21 1  
    27   21   22 1  
    28   23   24 ar 
    29   25   26 ar 
    30   26   27 ar 
    31   27   28 1  
    32   27   48 ar 
    33   28   29 1  
    34   29   30 ar 
    35   29   47 ar 
    36   30   31 ar 
    37   31   32 ar 
    38   32   33 1  
    39   32   46 ar 
    40   33   34 2  
    41   34   35 1  
    42   35   36 ar 
    43   35   45 ar 
    44   36   37 ar 
    45   37   38 ar 
    46   38   39 ar 
    47   39   40 1  
    48   39   45 ar 
    49   40   41 1  
    50   40   44 1  
    51   41   42 1  
    52   42   43 2  
    53   43   44 1  
    54   46   47 ar 
    55    1   49 1  
    56    2   50 1  
    57    3   51 1  
    58    3   52 1  
    59    4   53 1  
    60    4   54 1  
    61    5   55 1  
    62    5   56 1  
    63    6   57 1  
    64    6   58 1  
    65    7   59 1  
    66    8   60 1  
    67   12   61 1  
    68   13   62 1  
    69   15   63 1  
    70   15   64 1  
    71   16   65 1  
    72   17   66 1  
    73   17   67 1  
    74   18   68 1  
    75   18   69 1  
    76   19   70 1  
    77   20   71 1  
    78   20   72 1  
    79   20   73 1  
    80   21   74 1  
    81   21   75 1  
    82   22   76 1  
    83   22   77 1  
    84   23   78 1  
    85   24   79 1  
    86   25   80 1  
    87   28   81 1  
    88   30   82 1  
    89   31   83 1  
    90   33   84 1  
    91   34   85 1  
    92   37   86 1  
    93   38   87 1  
    94   40   88 1  
    95   42   89 1  
    96   43   90 1  
    97   45   91 1  
    98   46   92 1  
    99   47   93 1  
@<TRIPOS>SUBSTRUCTURE
     1 MOL         1

