### 
### Created by X-TOOL on Mon Aug  2 16:14:48 2021
### 

@<TRIPOS>MOLECULE
6mey_ligand
   36    38     1     0     0
SMALL
GAST_HUCK


@<TRIPOS>ATOM
      1 C02        43.7320   23.1270   27.2190 C.2       1 O5E         0.2401
      2 C04        44.8950   25.2940   26.5970 C.2       1 O5E         0.2233
      3 C09        42.6910   22.4560   28.1050 C.3       1 O5E         0.1640
      4 C11        40.5660   23.6700   27.5390 C.ar      1 O5E         0.0416
      5 C12        40.6100   23.1990   26.2320 C.ar      1 O5E        -0.0443
      6 C13        39.5380   23.4260   25.3820 C.ar      1 O5E        -0.0737
      7 C14        38.4220   24.1140   25.8280 C.ar      1 O5E        -0.0751
      8 C15        38.3760   24.5760   27.1330 C.ar      1 O5E        -0.0737
      9 C16        39.4490   24.3550   27.9820 C.ar      1 O5E        -0.0443
     10 C17        43.4180   22.0040   29.3650 C.ar      1 O5E         0.0008
     11 C18        43.5730   20.6540   29.6340 C.ar      1 O5E        -0.0558
     12 C19        44.2430   20.2580   30.7790 C.ar      1 O5E        -0.0681
     13 C20        44.7580   21.2050   31.6540 C.ar      1 O5E        -0.0684
     14 C21        44.6070   22.5540   31.3810 C.ar      1 O5E        -0.0681
     15 C22        43.9380   22.9530   30.2370 C.ar      1 O5E        -0.0558
     16 N03        43.9170   24.5530   27.3670 N.am      1 O5E        -0.2100
     17 N05        45.5850   24.8560   25.5580 N.2       1 O5E        -0.1594
     18 N06        46.4040   25.8610   25.1320 N.2       1 O5E        -0.0633
     19 N07        46.1940   26.9220   25.9620 N.pl3     1 O5E        -0.1252
     20 N08        45.2490   26.5350   26.8620 N.2       1 O5E        -0.1560
     21 N10        41.6770   23.4300   28.4550 N.pl3     1 O5E        -0.2918
     22 O01        44.3730   22.4920   26.4480 O.2       1 O5E        -0.3803
     23 H1         42.2337   21.5979   27.5907 H         1 O5E         0.0957
     24 H2         41.4791   22.6562   25.8784 H         1 O5E         0.0515
     25 H3         39.5739   23.0624   24.3614 H         1 O5E         0.0583
     26 H4         37.5878   24.2903   25.1586 H         1 O5E         0.0505
     27 H5         37.5023   25.1095   27.4896 H         1 O5E         0.0583
     28 H6         39.4125   24.7219   29.0014 H         1 O5E         0.0515
     29 H7         43.1723   19.9124   28.9524 H         1 O5E         0.0562
     30 H8         44.3662   19.2026   30.9936 H         1 O5E         0.0600
     31 H9         45.2782   20.8883   32.5507 H         1 O5E         0.0561
     32 H10        45.0114   23.2951   32.0610 H         1 O5E         0.0600
     33 H11        43.8193   24.0085   30.0206 H         1 O5E         0.0562
     34 H12        43.3487   25.0463   28.0255 H         1 O5E         0.2256
     35 H13        46.6604   27.8393   25.9168 H         1 O5E         0.2824
     36 H14        41.7396   23.9487   29.3427 H         1 O5E         0.1811
@<TRIPOS>BOND
     1    3    1 1  
     2    1   16 am 
     3    1   22 2  
     4   16    2 1  
     5    2   17 1  
     6    2   20 2  
     7    3   10 1  
     8   21    3 1  
     9    4    5 ar 
    10    4    9 ar 
    11    4   21 1  
    12    5    6 ar 
    13    6    7 ar 
    14    7    8 ar 
    15    8    9 ar 
    16   10   11 ar 
    17   10   15 ar 
    18   11   12 ar 
    19   12   13 ar 
    20   13   14 ar 
    21   14   15 ar 
    22   17   18 2  
    23   18   19 1  
    24   19   20 1  
    25    3   23 1  
    26    5   24 1  
    27    6   25 1  
    28    7   26 1  
    29    8   27 1  
    30    9   28 1  
    31   11   29 1  
    32   12   30 1  
    33   13   31 1  
    34   14   32 1  
    35   15   33 1  
    36   16   34 1  
    37   19   35 1  
    38   21   36 1  
@<TRIPOS>SUBSTRUCTURE
     1 O5E         1

