### 
### Created by X-TOOL on Mon Aug  2 16:14:48 2021
### 

@<TRIPOS>MOLECULE
6mg5_ligand
   34    35     1     0     0
SMALL
GAST_HUCK


@<TRIPOS>ATOM
      1 O17        -5.7460  -20.0870   37.7320 O.2       1 MOL        -0.3885
      2 C8         -4.8230  -19.9560   36.9520 C.2       1 MOL         0.2438
      3 O7         -3.8230  -20.9060   37.0090 O.3       1 MOL        -0.2175
      4 C2         -2.6900  -20.8090   36.2050 C.ar      1 MOL         0.1320
      5 C9         -4.6610  -18.8900   35.9720 C.2       1 MOL         0.0054
      6 C10        -3.5770  -18.7820   35.1740 C.2       1 MOL        -0.0329
      7 C16        -3.4730  -17.6840   34.1540 C.3       1 MOL        -0.0257
      8 C3         -2.5150  -19.7570   35.3050 C.ar      1 MOL         0.0210
      9 C4         -1.3090  -19.7140   34.6030 C.ar      1 MOL        -0.0616
     10 C5         -0.3450  -20.6880   34.7800 C.ar      1 MOL        -0.0455
     11 C6         -0.5450  -21.7330   35.6890 C.ar      1 MOL         0.0401
     12 C1         -1.7430  -21.7730   36.3860 C.ar      1 MOL        -0.0027
     13 N11         0.4380  -22.6970   35.9130 N.pl3     1 MOL        -0.3074
     14 C14         1.8960  -22.4700   35.5270 C.3       1 MOL         0.0253
     15 C15         2.1550  -23.2400   34.3070 C.3       1 MOL        -0.0451
     16 C12         0.1840  -23.8760   36.7470 C.3       1 MOL         0.0253
     17 C13        -0.5520  -25.0240   36.1150 C.3       1 MOL        -0.0451
     18 H1         -5.4507  -18.1459   35.8788 H         1 MOL         0.0400
     19 H2         -4.3696  -17.0489   34.2062 H         1 MOL         0.0431
     20 H3         -3.3931  -18.1236   33.1488 H         1 MOL         0.0431
     21 H4         -2.5802  -17.0754   34.3601 H         1 MOL         0.0431
     22 H5         -1.1258  -18.9030   33.9075 H         1 MOL         0.0613
     23 H6          0.5753  -20.6422   34.2091 H         1 MOL         0.0471
     24 H7         -1.9291  -22.5813   37.0839 H         1 MOL         0.0460
     25 H8          2.5566  -22.8152   36.3360 H         1 MOL         0.0515
     26 H9          2.0728  -21.4005   35.3404 H         1 MOL         0.0515
     27 H10         3.2016  -23.0985   33.9994 H         1 MOL         0.0249
     28 H11         1.4870  -22.8923   33.5052 H         1 MOL         0.0249
     29 H12         1.9709  -24.3070   34.5008 H         1 MOL         0.0249
     30 H13        -0.4040  -23.5453   37.6158 H         1 MOL         0.0515
     31 H14         1.1587  -24.2560   37.0870 H         1 MOL         0.0515
     32 H15        -0.6709  -25.8329   36.8509 H         1 MOL         0.0249
     33 H16         0.0194  -25.3950   35.2514 H         1 MOL         0.0249
     34 H17        -1.5432  -24.6843   35.7802 H         1 MOL         0.0249
@<TRIPOS>BOND
     1    1    2 2  
     2    2    3 1  
     3    2    5 1  
     4    3    4 1  
     5    4    8 ar 
     6    4   12 ar 
     7    5    6 2  
     8    6    7 1  
     9    6    8 1  
    10    8    9 ar 
    11    9   10 ar 
    12   10   11 ar 
    13   11   12 ar 
    14   11   13 1  
    15   13   14 1  
    16   13   16 1  
    17   14   15 1  
    18   16   17 1  
    19    5   18 1  
    20    7   19 1  
    21    7   20 1  
    22    7   21 1  
    23    9   22 1  
    24   10   23 1  
    25   12   24 1  
    26   14   25 1  
    27   14   26 1  
    28   15   27 1  
    29   15   28 1  
    30   15   29 1  
    31   16   30 1  
    32   16   31 1  
    33   17   32 1  
    34   17   33 1  
    35   17   34 1  
@<TRIPOS>SUBSTRUCTURE
     1 MOL         1

