### 
### Created by X-TOOL on Mon Aug  2 16:14:48 2021
### 

@<TRIPOS>MOLECULE
6mh1_ligand
   61    65     1     0     0
SMALL
GAST_HUCK


@<TRIPOS>ATOM
      1 C10        -1.0270   38.5950   19.8700 C.ar      1 JQP         0.0724
      2 C15        -0.8950   38.8190   24.1110 C.ar      1 JQP        -0.0445
      3 C17         0.4520   40.5330   25.3490 C.3       1 JQP        -0.0352
      4 C20        -4.4410   39.8360   26.3650 C.3       1 JQP        -0.0352
      5 C21        -3.2590   38.4660   24.5760 C.ar      1 JQP        -0.0445
      6 C24        -1.1260   37.4970   18.9970 C.ar      1 JQP        -0.0205
      7 C26        -2.0870   41.3030   21.0100 C.3       1 JQP         0.0804
      8 C28        -4.3200   42.2910   21.7800 C.3       1 JQP        -0.0308
      9 F01         3.8260   37.3810   15.2110 F         1 JQP        -0.1843
     10 C02         2.9880   38.0350   15.9780 C.ar      1 JQP         0.1310
     11 C03         2.4310   39.2530   15.5370 C.ar      1 JQP        -0.0294
     12 C04         1.5480   39.9650   16.3410 C.ar      1 JQP        -0.0583
     13 C05         1.1340   39.4670   17.5910 C.ar      1 JQP        -0.0208
     14 C06         1.6950   38.2570   18.0370 C.ar      1 JQP        -0.0583
     15 C07         2.6080   37.5330   17.2340 C.ar      1 JQP        -0.0294
     16 C08         0.2820   40.2410   18.4100 C.2       1 JQP         0.0462
     17 C09        -0.6220   39.8910   19.4400 C.2       1 JQP         0.1154
     18 N11        -1.4170   38.3910   21.1710 N.ar      1 JQP        -0.2541
     19 C12        -1.8620   37.1970   21.6230 C.ar      1 JQP         0.2027
     20 N13        -2.2320   37.1540   22.9060 N.pl3     1 JQP        -0.2458
     21 C14        -2.0920   38.1370   23.8450 C.ar      1 JQP         0.0517
     22 C16        -0.8340   39.8290   25.1080 C.ar      1 JQP        -0.0623
     23 C18        -2.0130   40.1380   25.8280 C.ar      1 JQP        -0.0711
     24 C19        -3.2370   39.4590   25.5750 C.ar      1 JQP        -0.0623
     25 N22        -1.9350   36.1330   20.7890 N.ar      1 JQP        -0.2587
     26 C23        -1.5470   36.2480   19.4980 C.ar      1 JQP         0.0084
     27 N25        -1.1060   41.0710   19.9430 N.pl3     1 JQP        -0.2316
     28 C27        -3.3730   42.0610   20.5760 C.3       1 JQP         0.0186
     29 N29        -3.6410   43.0490   22.8500 N.4       1 JQP         0.2271
     30 C30        -2.4150   42.3510   23.2990 C.3       1 JQP        -0.0308
     31 C31        -1.4120   42.0940   22.1460 C.3       1 JQP         0.0186
     32 C32        -0.4990   42.0840   19.2710 C.2       1 JQP         0.1086
     33 N33         0.3530   41.5850   18.3350 N.2       1 JQP        -0.3026
     34 H1         -0.0030   38.5713   23.5470 H         1 JQP         0.0417
     35 H2          0.3186   41.2768   26.1483 H         1 JQP         0.0388
     36 H3          0.7712   41.0396   24.4263 H         1 JQP         0.0388
     37 H4          1.2183   39.8038   25.6509 H         1 JQP         0.0388
     38 H5         -5.2954   39.2203   26.0475 H         1 JQP         0.0388
     39 H6         -4.6720   40.8982   26.1969 H         1 JQP         0.0388
     40 H7         -4.2453   39.6680   27.4343 H         1 JQP         0.0388
     41 H8         -4.1854   37.9448   24.3633 H         1 JQP         0.0417
     42 H9         -0.8806   37.6099   17.9472 H         1 JQP         0.0644
     43 H10        -2.3950   40.3200   21.3957 H         1 JQP         0.0662
     44 H11        -4.6402   41.3165   22.1772 H         1 JQP         0.0815
     45 H12        -5.2008   42.8565   21.4420 H         1 JQP         0.0815
     46 H13         2.6945   39.6390   14.5589 H         1 JQP         0.0601
     47 H14         1.1711   40.9220   15.9988 H         1 JQP         0.0595
     48 H15         1.4232   37.8721   19.0132 H         1 JQP         0.0595
     49 H16         3.0138   36.5920   17.5876 H         1 JQP         0.0601
     50 H17        -2.6735   36.2794   23.2240 H         1 JQP         0.2175
     51 H18        -1.9823   40.9093   26.5891 H         1 JQP         0.0401
     52 H19        -1.5598   35.3800   18.8488 H         1 JQP         0.0870
     53 H20        -3.8993   41.4678   19.8137 H         1 JQP         0.0348
     54 H21        -3.0894   43.0352   20.1513 H         1 JQP         0.0348
     55 H22        -4.2686   43.1489   23.6324 H         1 JQP         0.2013
     56 H23        -3.3917   43.9610   22.5006 H         1 JQP         0.2013
     57 H24        -2.7020   41.3836   23.7368 H         1 JQP         0.0815
     58 H25        -1.9202   42.9674   24.0640 H         1 JQP         0.0815
     59 H26        -1.0564   43.0583   21.7540 H         1 JQP         0.0348
     60 H27        -0.5581   41.5173   22.5309 H         1 JQP         0.0348
     61 H28        -0.6700   43.1436   19.4552 H         1 JQP         0.1311
@<TRIPOS>BOND
     1    1    6 ar 
     2    1   17 1  
     3   18    1 ar 
     4   21    2 ar 
     5    2   22 ar 
     6   22    3 1  
     7   24    4 1  
     8   21    5 ar 
     9    5   24 ar 
    10    6   26 ar 
    11   27    7 1  
    12    7   28 1  
    13    7   31 1  
    14   28    8 1  
    15    8   29 1  
    16   10    9 1  
    17   11   10 ar 
    18   15   10 ar 
    19   12   11 ar 
    20   13   12 ar 
    21   13   14 ar 
    22   16   13 1  
    23   14   15 ar 
    24   17   16 2  
    25   16   33 1  
    26   17   27 1  
    27   19   18 ar 
    28   20   19 1  
    29   19   25 ar 
    30   20   21 1  
    31   22   23 ar 
    32   23   24 ar 
    33   25   26 ar 
    34   27   32 1  
    35   29   30 1  
    36   30   31 1  
    37   32   33 2  
    38    2   34 1  
    39    3   35 1  
    40    3   36 1  
    41    3   37 1  
    42    4   38 1  
    43    4   39 1  
    44    4   40 1  
    45    5   41 1  
    46    6   42 1  
    47    7   43 1  
    48    8   44 1  
    49    8   45 1  
    50   11   46 1  
    51   12   47 1  
    52   14   48 1  
    53   15   49 1  
    54   20   50 1  
    55   23   51 1  
    56   26   52 1  
    57   28   53 1  
    58   28   54 1  
    59   29   55 1  
    60   29   56 1  
    61   30   57 1  
    62   30   58 1  
    63   31   59 1  
    64   31   60 1  
    65   32   61 1  
@<TRIPOS>SUBSTRUCTURE
     1 JQP         1

