### 
### Created by X-TOOL on Mon Aug  2 16:14:48 2021
### 

@<TRIPOS>MOLECULE
6mh7_ligand
   61    65     1     0     0
SMALL
GAST_HUCK


@<TRIPOS>ATOM
      1 C10        21.2770  -21.4860   35.3580 C.ar      1 JQY         0.0721
      2 C15        22.8540  -22.3400   30.3010 C.ar      1 JQY        -0.0514
      3 C17        21.5360  -20.7090   29.0630 C.ar      1 JQY        -0.0552
      4 C20        19.2620  -19.9540   29.9230 C.3       1 JQY        -0.0360
      5 C21        20.6860  -21.6270   31.1510 C.ar      1 JQY        -0.0434
      6 C24        21.4330  -22.5370   36.2710 C.ar      1 JQY        -0.0207
      7 C26        22.3800  -18.8670   34.1110 C.3       1 JQY         0.0804
      8 C28        24.4050  -17.8260   33.0100 C.3       1 JQY        -0.0308
      9 F01        16.8670  -22.5920   40.3130 F         1 JQY        -0.1843
     10 C02        17.6350  -21.9200   39.4890 C.ar      1 JQY         0.1310
     11 C03        18.2090  -20.6870   39.8690 C.ar      1 JQY        -0.0294
     12 C04        19.0370  -19.9910   38.9960 C.ar      1 JQY        -0.0583
     13 C05        17.8760  -22.4360   38.2080 C.ar      1 JQY        -0.0294
     14 C06        18.6860  -21.7320   37.3240 C.ar      1 JQY        -0.0583
     15 C07        19.2980  -20.5120   37.7070 C.ar      1 JQY        -0.0208
     16 C08        20.1090  -19.7760   36.8120 C.2       1 JQY         0.0462
     17 C09        20.9630  -20.1690   35.7590 C.2       1 JQY         0.1153
     18 N11        21.5110  -21.7450   34.0450 N.ar      1 JQY        -0.2546
     19 C12        21.8380  -22.9900   33.6020 C.ar      1 JQY         0.2013
     20 N13        22.0660  -23.2620   32.3020 N.pl3     1 JQY        -0.2480
     21 C14        21.8490  -22.4020   31.2830 C.ar      1 JQY         0.0520
     22 C16        22.6930  -21.4970   29.2110 C.ar      1 JQY        -0.0760
     23 C18        21.4120  -19.8410   27.8690 C.3       1 JQY        -0.0388
     24 C19        20.5070  -20.7720   30.0380 C.ar      1 JQY        -0.0533
     25 N22        21.9460  -24.0230   34.4730 N.ar      1 JQY        -0.2592
     26 C23        21.7590  -23.8220   35.7990 C.ar      1 JQY         0.0081
     27 N25        21.4400  -19.0340   35.2020 N.pl3     1 JQY        -0.2316
     28 C27        23.4880  -17.7860   34.2430 C.3       1 JQY         0.0186
     29 N29        23.5880  -17.5500   31.8190 N.4       1 JQY         0.2271
     30 C30        22.5760  -18.6080   31.5940 C.3       1 JQY        -0.0308
     31 C31        21.5930  -18.6670   32.7900 C.3       1 JQY         0.0186
     32 C32        20.9070  -17.9970   35.8850 C.2       1 JQY         0.1086
     33 N33        20.0940  -18.4260   36.8640 N.2       1 JQY        -0.3026
     34 H1         23.7476  -22.9463   30.3951 H         1 JQY         0.0464
     35 H2         18.6075  -20.1596   30.7828 H         1 JQY         0.0375
     36 H3         18.7370  -20.2142   28.9921 H         1 JQY         0.0375
     37 H4         19.5249  -18.8860   29.9095 H         1 JQY         0.0375
     38 H5         19.9155  -21.6843   31.9113 H         1 JQY         0.0457
     39 H6         21.3036  -22.3618   37.3329 H         1 JQY         0.0642
     40 H7         22.9145  -19.8251   34.0314 H         1 JQY         0.0662
     41 H8         24.8671  -18.8203   32.9220 H         1 JQY         0.0815
     42 H9         25.1917  -17.0633   33.1064 H         1 JQY         0.0815
     43 H10        18.0018  -20.2791   40.8517 H         1 JQY         0.0601
     44 H11        19.4817  -19.0511   39.3023 H         1 JQY         0.0595
     45 H12        17.4332  -23.3789   37.9082 H         1 JQY         0.0601
     46 H13        18.8521  -22.1221   36.3264 H         1 JQY         0.0595
     47 H14        22.4332  -24.1954   32.0678 H         1 JQY         0.2159
     48 H15        23.4725  -21.4442   28.4595 H         1 JQY         0.0511
     49 H16        22.3140  -19.9414   27.2475 H         1 JQY         0.0355
     50 H17        21.3005  -18.7939   28.1869 H         1 JQY         0.0355
     51 H18        20.5295  -20.1432   27.2860 H         1 JQY         0.0355
     52 H19        21.8600  -24.6476   36.4941 H         1 JQY         0.0870
     53 H20        24.0832  -17.9818   35.1471 H         1 JQY         0.0348
     54 H21        23.0217  -16.7926   34.3190 H         1 JQY         0.0348
     55 H22        24.1915  -17.4981   31.0133 H         1 JQY         0.2013
     56 H23        23.1166  -16.6677   31.9431 H         1 JQY         0.2013
     57 H24        23.0818  -19.5793   31.4905 H         1 JQY         0.0815
     58 H25        22.0161  -18.3862   30.6735 H         1 JQY         0.0815
     59 H26        21.0256  -17.7261   32.8424 H         1 JQY         0.0348
     60 H27        20.8974  -19.5074   32.6491 H         1 JQY         0.0348
     61 H28        21.1104  -16.9491   35.6695 H         1 JQY         0.1311
@<TRIPOS>BOND
     1    1    6 ar 
     2    1   17 1  
     3   18    1 ar 
     4   21    2 ar 
     5    2   22 ar 
     6   22    3 ar 
     7    3   23 1  
     8   24    3 ar 
     9   24    4 1  
    10   21    5 ar 
    11    5   24 ar 
    12    6   26 ar 
    13   27    7 1  
    14    7   28 1  
    15    7   31 1  
    16   28    8 1  
    17    8   29 1  
    18   10    9 1  
    19   11   10 ar 
    20   13   10 ar 
    21   12   11 ar 
    22   15   12 ar 
    23   14   13 ar 
    24   15   14 ar 
    25   16   15 1  
    26   17   16 2  
    27   16   33 1  
    28   17   27 1  
    29   19   18 ar 
    30   20   19 1  
    31   19   25 ar 
    32   20   21 1  
    33   25   26 ar 
    34   27   32 1  
    35   29   30 1  
    36   30   31 1  
    37   32   33 2  
    38    2   34 1  
    39    4   35 1  
    40    4   36 1  
    41    4   37 1  
    42    5   38 1  
    43    6   39 1  
    44    7   40 1  
    45    8   41 1  
    46    8   42 1  
    47   11   43 1  
    48   12   44 1  
    49   13   45 1  
    50   14   46 1  
    51   20   47 1  
    52   22   48 1  
    53   23   49 1  
    54   23   50 1  
    55   23   51 1  
    56   26   52 1  
    57   28   53 1  
    58   28   54 1  
    59   29   55 1  
    60   29   56 1  
    61   30   57 1  
    62   30   58 1  
    63   31   59 1  
    64   31   60 1  
    65   32   61 1  
@<TRIPOS>SUBSTRUCTURE
     1 JQY         1

