### 
### Created by X-TOOL on Mon Aug  2 16:10:17 2021
### 

@<TRIPOS>MOLECULE
6mhb_ligand
   28    29     1     0     0
SMALL
GAST_HUCK


@<TRIPOS>ATOM
      1 C1         -5.8750    6.4560   -2.9920 C.3       1 JR7         0.0425
      2 C3         -2.5980    8.1510   -2.0790 C.2       1 JR7         0.2076
      3 C4         -0.4390    8.7540   -1.7780 C.2       1 JR7         0.0006
      4 C11        -0.8600    8.8640   -0.4900 C.2       1 JR7         0.0071
      5 O          -5.0860    7.1100   -0.8590 O.2       1 JR7        -0.3800
      6 C2         -4.8900    7.0770   -2.0520 C.2       1 JR7         0.2148
      7 C          -6.1860    5.0050   -2.5620 C.3       1 JR7        -0.0475
      8 N          -3.7170    7.5700   -2.6870 N.am      1 JR7        -0.1938
      9 S          -2.5230    8.4510   -0.3260 S.3       1 JR7         0.0187
     10 N1         -1.4510    8.3600   -2.7030 N.2       1 JR7        -0.3155
     11 C5          0.8910    9.0650   -2.3300 C.ar      1 JR7        -0.0264
     12 C10         1.8600    9.7590   -1.5850 C.ar      1 JR7        -0.0582
     13 C9          3.1300    9.9730   -2.1240 C.ar      1 JR7        -0.0507
     14 C8          3.4240    9.4840   -3.4140 C.ar      1 JR7         0.0373
     15 CL          4.9760    9.7500   -4.0990 Cl        1 JR7        -0.0731
     16 C7          2.5030    8.7990   -4.1690 C.ar      1 JR7        -0.0507
     17 C6          1.2380    8.5770   -3.6300 C.ar      1 JR7        -0.0582
     18 H1         -5.4534    6.4508   -4.0080 H         1 JR7         0.0507
     19 H2         -6.8047    7.0439   -2.9838 H         1 JR7         0.0507
     20 H3         -0.2231    9.1753    0.3367 H         1 JR7         0.0647
     21 H4         -6.9104    4.5626   -3.2616 H         1 JR7         0.0254
     22 H5         -6.6102    5.0062   -1.5471 H         1 JR7         0.0254
     23 H6         -5.2589    4.4131   -2.5712 H         1 JR7         0.0254
     24 H7         -3.6882    7.4926   -3.6836 H         1 JR7         0.2412
     25 H8          1.6217   10.1274   -0.5938 H         1 JR7         0.0595
     26 H9          3.8823   10.5094   -1.5570 H         1 JR7         0.0615
     27 H10         2.7548    8.4399   -5.1603 H         1 JR7         0.0615
     28 H11         0.5035    8.0250   -4.2051 H         1 JR7         0.0595
@<TRIPOS>BOND
     1    6    1 1  
     2    1    7 1  
     3    8    2 1  
     4    2    9 1  
     5    2   10 2  
     6    3    4 2  
     7   10    3 1  
     8    3   11 1  
     9    9    4 1  
    10    6    5 2  
    11    6    8 am 
    12   11   12 ar 
    13   11   17 ar 
    14   12   13 ar 
    15   13   14 ar 
    16   14   15 1  
    17   14   16 ar 
    18   16   17 ar 
    19    1   18 1  
    20    1   19 1  
    21    4   20 1  
    22    7   21 1  
    23    7   22 1  
    24    7   23 1  
    25    8   24 1  
    26   12   25 1  
    27   13   26 1  
    28   16   27 1  
    29   17   28 1  
@<TRIPOS>SUBSTRUCTURE
     1 JR7         1

