### 
### Created by X-TOOL on Mon Aug  2 16:11:38 2021
### 

@<TRIPOS>MOLECULE
6mhc_ligand
   28    29     1     0     0
SMALL
GAST_HUCK


@<TRIPOS>ATOM
      1 N1         24.4350    6.6500   11.2010 N.2       1 JRM        -0.3155
      2 C2         26.5800    1.3410    9.5700 C.3       1 JRM        -0.0475
      3 C12        22.2370   10.2570   10.7850 C.ar      1 JRM        -0.0646
      4 C15        23.6220    9.7490   13.1250 C.ar      1 JRM        -0.0587
      5 N          24.9000    4.4210   10.7320 N.am      1 JRM        -0.1938
      6 C          25.9560    3.5380   10.5850 C.2       1 JRM         0.2148
      7 C1         25.9750    2.7010    9.3290 C.3       1 JRM         0.0425
      8 O          26.8160    3.4390   11.4420 O.2       1 JRM        -0.3800
      9 C8         24.9280    5.5040   11.5790 C.2       1 JRM         0.2076
     10 S1         25.3480    5.3670   13.2550 S.3       1 JRM         0.0186
     11 C16        24.7480    6.9630   13.4690 C.2       1 JRM         0.0070
     12 C9         24.2970    7.4900   12.2990 C.2       1 JRM         0.0004
     13 C10        23.6110    8.7830   12.1160 C.ar      1 JRM        -0.0265
     14 C14        22.9350   10.9420   12.9630 C.ar      1 JRM        -0.0646
     15 C13        22.2530   11.2010   11.7920 C.ar      1 JRM        -0.0647
     16 C11        22.9060    9.0540   10.9410 C.ar      1 JRM        -0.0587
     17 H1         26.5743    0.7658    8.6324 H         1 JRM         0.0254
     18 H2         25.9915    0.8075   10.3310 H         1 JRM         0.0254
     19 H3         27.6155    1.4575    9.9224 H         1 JRM         0.0254
     20 H4         21.6976   10.4583    9.8665 H         1 JRM         0.0609
     21 H5         24.1716    9.5644   14.0410 H         1 JRM         0.0595
     22 H6         24.0724    4.2628   10.1934 H         1 JRM         0.2412
     23 H7         24.9428    2.5729    8.9712 H         1 JRM         0.0507
     24 H8         26.5667    3.2229    8.5626 H         1 JRM         0.0507
     25 H9         24.7310    7.4875   14.4232 H         1 JRM         0.0646
     26 H10        22.9336   11.6757   13.7610 H         1 JRM         0.0609
     27 H11        21.7315   12.1426   11.6632 H         1 JRM         0.0592
     28 H12        22.8822    8.3178   10.1457 H         1 JRM         0.0595
@<TRIPOS>BOND
     1    1    9 2  
     2   12    1 1  
     3    7    2 1  
     4    3   15 ar 
     5   16    3 ar 
     6   13    4 ar 
     7    4   14 ar 
     8    5    6 am 
     9    9    5 1  
    10    6    7 1  
    11    6    8 2  
    12   10    9 1  
    13   11   10 1  
    14   12   11 2  
    15   13   12 1  
    16   13   16 ar 
    17   14   15 ar 
    18    2   17 1  
    19    2   18 1  
    20    2   19 1  
    21    3   20 1  
    22    4   21 1  
    23    5   22 1  
    24    7   23 1  
    25    7   24 1  
    26   11   25 1  
    27   14   26 1  
    28   15   27 1  
    29   16   28 1  
@<TRIPOS>SUBSTRUCTURE
     1 JRM         1

