### 
### Created by X-TOOL on Mon Aug  2 16:10:17 2021
### 

@<TRIPOS>MOLECULE
6mhd_ligand
   40    42     1     0     0
SMALL
GAST_HUCK


@<TRIPOS>ATOM
      1 O          28.4620    3.9520   10.3630 O.2       1 JRD        -0.3797
      2 C          27.5920    4.1130    9.5200 C.2       1 JRD         0.2196
      3 C1         27.4020    3.1260    8.3880 C.3       1 JRD         0.0428
      4 C2         28.1600    1.8350    8.6120 C.3       1 JRD        -0.0475
      5 N          26.7720    5.2590    9.5740 N.am      1 JRD        -0.1627
      6 C5         26.4240    5.9000    8.3050 C.3       1 JRD         0.1369
      7 C6         24.9820    6.2530    8.2010 C.2       1 JRD         0.1611
      8 O1         24.6030    7.5380    8.3540 O.3       1 JRD        -0.1782
      9 N1         23.1860    7.5960    8.2850 N.2       1 JRD        -0.1736
     10 C8         22.7800    6.3220    8.0840 C.2       1 JRD         0.0082
     11 C9         21.3310    5.9530    7.9980 C.3       1 JRD        -0.0293
     12 C7         23.9030    5.4810    8.0190 C.2       1 JRD        -0.0301
     13 C10        26.5890    5.9930   10.7460 C.2       1 JRD         0.2124
     14 S1         26.9370    5.3660   12.3310 S.3       1 JRD         0.0189
     15 C18        26.1750    6.7690   12.9780 C.2       1 JRD         0.0070
     16 C11        25.7290    7.5930   11.9920 C.2       1 JRD         0.0004
     17 N2         25.9980    7.1540   10.7160 N.2       1 JRD        -0.3152
     18 C12        24.9210    8.8150   12.1440 C.ar      1 JRD        -0.0265
     19 C17        23.9920    8.9260   13.1760 C.ar      1 JRD        -0.0587
     20 C16        23.0700    9.9590   13.1800 C.ar      1 JRD        -0.0646
     21 C15        23.1160   10.9400   12.2120 C.ar      1 JRD        -0.0647
     22 C14        24.0570   10.8670   11.2080 C.ar      1 JRD        -0.0646
     23 C13        24.9480    9.8090   11.1610 C.ar      1 JRD        -0.0587
     24 H1         27.7578    3.5867    7.4547 H         1 JRD         0.0507
     25 H2         26.3304    2.8948    8.2975 H         1 JRD         0.0507
     26 H3         27.9877    1.1567    7.7634 H         1 JRD         0.0254
     27 H4         27.8078    1.3591    9.5391 H         1 JRD         0.0254
     28 H5         29.2353    2.0510    8.6962 H         1 JRD         0.0254
     29 H6         26.6749    5.2109    7.4851 H         1 JRD         0.0830
     30 H7         27.0172    6.8209    8.2045 H         1 JRD         0.0830
     31 H8         21.2378    4.8696    7.8323 H         1 JRD         0.0374
     32 H9         20.8640    6.4933    7.1614 H         1 JRD         0.0374
     33 H10        20.8270    6.2250    8.9371 H         1 JRD         0.0374
     34 H11        23.8974    4.4049    7.8522 H         1 JRD         0.0259
     35 H12        26.0643    6.9708   14.0424 H         1 JRD         0.0646
     36 H13        23.9909    8.1995   13.9805 H         1 JRD         0.0595
     37 H14        22.3070    9.9968   13.9491 H         1 JRD         0.0609
     38 H15        22.4143   11.7658   12.2408 H         1 JRD         0.0592
     39 H16        24.0996   11.6420   10.4513 H         1 JRD         0.0609
     40 H17        25.6720    9.7505   10.3563 H         1 JRD         0.0595
@<TRIPOS>BOND
     1    1    2 2  
     2    2    3 1  
     3    2    5 am 
     4    3    4 1  
     5    5    6 1  
     6    5   13 1  
     7    6    7 1  
     8    7    8 1  
     9    7   12 2  
    10    8    9 1  
    11    9   10 2  
    12   10   11 1  
    13   10   12 1  
    14   13   14 1  
    15   13   17 2  
    16   14   15 1  
    17   15   16 2  
    18   16   17 1  
    19   16   18 1  
    20   18   19 ar 
    21   18   23 ar 
    22   19   20 ar 
    23   20   21 ar 
    24   21   22 ar 
    25   22   23 ar 
    26    3   24 1  
    27    3   25 1  
    28    4   26 1  
    29    4   27 1  
    30    4   28 1  
    31    6   29 1  
    32    6   30 1  
    33   11   31 1  
    34   11   32 1  
    35   11   33 1  
    36   12   34 1  
    37   15   35 1  
    38   19   36 1  
    39   20   37 1  
    40   21   38 1  
    41   22   39 1  
    42   23   40 1  
@<TRIPOS>SUBSTRUCTURE
     1 JRD         1

