### 
### Created by X-TOOL on Mon Aug  2 16:10:17 2021
### 

@<TRIPOS>MOLECULE
6mhm_ligand
   27    26     1     0     0
SMALL
GAST_HUCK


@<TRIPOS>ATOM
      1 C07        -7.5830    4.8430   28.5860 C.3       1 JRY         0.0697
      2 C09        -7.8590    2.9000   29.1570 C.3       1 JRY        -0.0315
      3 C10        -8.2120    1.4440   29.2960 C.3       1 JRY        -0.0125
      4 C11        -8.9280    0.8110   30.4420 C.3       1 JRY        -0.0483
      5 C12        -8.2760   -0.5650   30.4970 C.3       1 JRY        -0.0531
      6 C13        -9.2560   -1.6060   31.0110 C.3       1 JRY        -0.0559
      7 C14        -8.5610   -2.8730   31.4960 C.3       1 JRY        -0.0653
      8 N08        -8.5020    4.1190   29.3850 N.4       1 JRY         0.2468
      9 O15        -7.8980    5.9490   28.5980 O.3       1 JRY        -0.3557
     10 H1         -7.6020    4.4603   27.5549 H         1 JRY         0.1145
     11 H2         -6.5680    4.7392   28.9970 H         1 JRY         0.1145
     12 H3         -7.5772    2.9754   28.0964 H         1 JRY         0.0814
     13 H4         -6.9585    2.9864   29.7827 H         1 JRY         0.0814
     14 H5         -7.2532    0.9093   29.2272 H         1 JRY         0.0317
     15 H6         -8.8252    1.2126   28.4126 H         1 JRY         0.0317
     16 H7        -10.0078    0.7347   30.2465 H         1 JRY         0.0267
     17 H8         -8.7629    1.3697   31.3750 H         1 JRY         0.0267
     18 H9         -7.4063   -0.5254   31.1694 H         1 JRY         0.0265
     19 H10        -7.9459   -0.8483   29.4867 H         1 JRY         0.0265
     20 H11        -9.9469   -1.8721   30.1975 H         1 JRY         0.0263
     21 H12        -9.8240   -1.1730   31.8476 H         1 JRY         0.0263
     22 H13        -9.3141   -3.5895   31.8557 H         1 JRY         0.0230
     23 H14        -7.8723   -2.6224   32.3162 H         1 JRY         0.0230
     24 H15        -7.9952   -3.3215   30.6661 H         1 JRY         0.0230
     25 H16        -9.4459    4.1453   29.0324 H         1 JRY         0.2038
     26 H17        -8.4971    4.3988   30.3534 H         1 JRY         0.2038
     27 H18        -7.2941    6.4549   28.0671 H         1 JRY         0.2151
@<TRIPOS>BOND
     1    8    1 1  
     2    1    9 1  
     3    2    3 1  
     4    2    8 1  
     5    3    4 1  
     6    4    5 1  
     7    5    6 1  
     8    6    7 1  
     9    1   10 1  
    10    1   11 1  
    11    2   12 1  
    12    2   13 1  
    13    3   14 1  
    14    3   15 1  
    15    4   16 1  
    16    4   17 1  
    17    5   18 1  
    18    5   19 1  
    19    6   20 1  
    20    6   21 1  
    21    7   22 1  
    22    7   23 1  
    23    7   24 1  
    24    8   25 1  
    25    8   26 1  
    26    9   27 1  
@<TRIPOS>SUBSTRUCTURE
     1 JRY         1

