### 
### Created by X-TOOL on Mon Aug  2 16:45:41 2021
### 

@<TRIPOS>MOLECULE
6MIA_LIGAND
   32    35     1     0     0
SMALL
GAST_HUCK


@<TRIPOS>ATOM
      1 O20       -30.0010  -19.1240  -12.5860 O.2       1 Q1CE302    -0.4052
      2 C12       -29.7230  -19.1260  -13.7950 C.2       1 Q1CE302     0.2158
      3 N7        -30.0910  -18.0540  -14.5850 N.am      1 Q1CE302    -0.1775
      4 C6        -30.7980  -16.9120  -13.9560 C.3       1 Q1CE302     0.1288
      5 C3        -32.3100  -16.9350  -14.1690 C.2       1 Q1CE302     0.1499
      6 N2        -32.9180  -16.8710  -15.3540 N.2       1 Q1CE302    -0.1785
      7 N4        -33.2130  -17.0150  -13.1880 N.2       1 Q1CE302    -0.1597
      8 N5        -34.4330  -17.0040  -13.7780 N.pl3     1 Q1CE302    -0.1152
      9 N1        -34.2460  -16.9170  -15.0940 N.2       1 Q1CE302    -0.0594
     10 C11       -29.0420  -20.2050  -14.4060 C.2       1 Q1CE302     0.0421
     11 C13       -28.5560  -21.4170  -13.8380 C.2       1 Q1CE302    -0.0531
     12 C16       -28.6230  -21.9270  -12.3780 C.3       1 Q1CE302    -0.0378
     13 C17       -28.3140  -23.3830  -12.2230 C.3       1 Q1CE302    -0.0470
     14 C18       -27.1010  -23.8080  -13.0450 C.3       1 Q1CE302    -0.0436
     15 C19       -27.3080  -23.5900  -14.5090 C.3       1 Q1CE302    -0.0175
     16 C14       -27.9030  -22.2560  -14.8570 C.2       1 Q1CE302     0.0045
     17 S15       -28.0210  -21.3700  -16.3330 S.3       1 Q1CE302    -0.0355
     18 C10       -28.7860  -20.0810  -15.8340 C.2       1 Q1CE302     0.0763
     19 N9        -29.1780  -18.9940  -16.5080 N.2       1 Q1CE302    -0.2834
     20 C8        -29.8040  -18.0230  -15.9070 C.2       1 Q1CE302     0.1308
     21 H1        -30.4010  -15.9795  -14.3835 H         1 Q1CE302     0.0820
     22 H2        -30.5991  -16.9333  -12.8743 H         1 Q1CE302     0.0820
     23 H3        -35.3416  -17.0539  -13.2955 H         1 Q1CE302     0.2882
     24 H4        -29.6387  -21.7472  -11.9958 H         1 Q1CE302     0.0351
     25 H5        -27.8992  -21.3549  -11.7790 H         1 Q1CE302     0.0351
     26 H6        -29.1863  -23.9668  -12.5519 H         1 Q1CE302     0.0281
     27 H7        -28.1126  -23.5909  -11.1618 H         1 Q1CE302     0.0281
     28 H8        -26.9107  -24.8771  -12.8693 H         1 Q1CE302     0.0287
     29 H9        -26.2290  -23.2219  -12.7192 H         1 Q1CE302     0.0287
     30 H10       -27.9814  -24.3755  -14.8825 H         1 Q1CE302     0.0408
     31 H11       -26.3329  -23.6738  -15.0111 H         1 Q1CE302     0.0408
     32 H12       -30.1076  -17.1544  -16.4896 H         1 Q1CE302     0.1478
@<TRIPOS>BOND
     1    2    1 2  
     2    3    2 am 
     3    2   10 1  
     4    3    4 1  
     5   20    3 1  
     6    4    5 1  
     7    5    6 1  
     8    5    7 2  
     9    6    9 2  
    10    7    8 1  
    11    8    9 1  
    12   10   11 1  
    13   10   18 2  
    14   11   12 1  
    15   11   16 2  
    16   12   13 1  
    17   13   14 1  
    18   14   15 1  
    19   15   16 1  
    20   16   17 1  
    21   17   18 1  
    22   18   19 1  
    23   19   20 2  
    24    4   21 1  
    25    4   22 1  
    26    8   23 1  
    27   12   24 1  
    28   12   25 1  
    29   13   26 1  
    30   13   27 1  
    31   14   28 1  
    32   14   29 1  
    33   15   30 1  
    34   15   31 1  
    35   20   32 1  
@<TRIPOS>SUBSTRUCTURE
     1 Q1CE302      1

