### 
### Created by X-TOOL on Wed Jan  1 15:39:34 2020
### 

@<TRIPOS>MOLECULE
6mj7_ligand
   27    26     1     0     0
SMALL
GAST_HUCK


@<TRIPOS>ATOM
      1 N           1.9620    5.4740    5.3660 N.4       1 ARG         0.2327
      2 CA          1.0360    6.4280    4.7570 C.3       1 ARG         0.0284
      3 C          -0.2520    6.5350    5.5580 C.2       1 ARG         0.0844
      4 O          -1.0490    7.4470    5.3330 O.co2     1 ARG        -0.5643
      5 CB          0.7090    6.0160    3.3220 C.3       1 ARG         0.0055
      6 CG          0.0350    4.6570    3.2030 C.3       1 ARG        -0.0131
      7 CD         -0.1200    4.2800    1.7420 C.3       1 ARG         0.0628
      8 NE         -0.8520    3.0300    1.5430 N.pl3     1 ARG        -0.2723
      9 CZ         -0.3160    1.8180    1.6510 C.cat     1 ARG         0.2882
     10 NH1         0.9640    1.6810    1.9670 N.pl3     1 ARG        -0.2849
     11 NH2        -1.0560    0.7370    1.4400 N.pl3     1 ARG        -0.2849
     12 OXT        -0.5320    5.7300    6.4390 O.co2     1 ARG        -0.5643
     13 H1          2.8043    5.4245    4.8145 H         1 ARG         0.2010
     14 H2          1.5306    4.5637    5.4029 H         1 ARG         0.2010
     15 H3          2.1895    5.7762    6.3003 H         1 ARG         0.2010
     16 H4          1.5196    7.4158    4.7386 H         1 ARG         0.1024
     17 H5          1.6473    5.9873    2.7487 H         1 ARG         0.0340
     18 H6          0.0382    6.7731    2.8898 H         1 ARG         0.0340
     19 H7         -0.9576    4.7002    3.6751 H         1 ARG         0.0302
     20 H8          0.6501    3.8997    3.7111 H         1 ARG         0.0302
     21 H9          0.8818    4.1722    1.3008 H         1 ARG         0.0689
     22 H10        -0.6619    5.0877    1.2283 H         1 ARG         0.0689
     23 H11        -1.8516    3.0926    1.3026 H         1 ARG         0.2642
     24 H12         1.3762    0.7407    2.0499 H         1 ARG         0.2615
     25 H13         1.5464    2.5148    2.1297 H         1 ARG         0.2615
     26 H14        -2.0515    0.8343    1.1940 H         1 ARG         0.2615
     27 H15        -0.6350   -0.1994    1.5222 H         1 ARG         0.2615
@<TRIPOS>BOND
     1    1    2 1  
     2    2    3 1  
     3    2    5 1  
     4    3    4 ar 
     5    3   12 ar 
     6    5    6 1  
     7    6    7 1  
     8    7    8 1  
     9    8    9 ar 
    10    9   10 ar 
    11    9   11 ar 
    12    1   13 1  
    13    1   14 1  
    14    1   15 1  
    15    2   16 1  
    16    5   17 1  
    17    5   18 1  
    18    6   19 1  
    19    6   20 1  
    20    7   21 1  
    21    7   22 1  
    22    8   23 1  
    23   10   24 1  
    24   10   25 1  
    25   11   26 1  
    26   11   27 1  
@<TRIPOS>SUBSTRUCTURE
     1 ARG         1

