### 
### Created by X-TOOL on Wed Jan  1 15:39:38 2020
### 

@<TRIPOS>MOLECULE
6mjf_ligand
   46    48     1     0     0
SMALL
GAST_HUCK


@<TRIPOS>ATOM
      1 N         -62.1540   28.1470   -3.5890 N.4       1 SAH         0.2327
      2 CA        -61.2060   28.6460   -4.5790 C.3       1 SAH         0.0291
      3 CB        -61.8390   29.7450   -5.4250 C.3       1 SAH         0.0114
      4 CG        -63.0540   29.3080   -6.2370 C.3       1 SAH         0.0005
      5 SD        -64.0530   30.7080   -6.8040 S.3       1 SAH        -0.1578
      6 C         -59.9350   29.1630   -3.9180 C.2       1 SAH         0.0844
      7 O         -59.2660   30.0550   -4.4400 O.co2     1 SAH        -0.5643
      8 OXT       -59.5460   28.6910   -2.8500 O.co2     1 SAH        -0.5643
      9 C5'       -63.1620   30.7760   -8.3800 C.3       1 SAH         0.0226
     10 C4'       -62.2050   31.9620   -8.4390 C.3       1 SAH         0.0995
     11 O4'       -60.9960   31.6510   -7.7680 O.3       1 SAH        -0.3383
     12 C3'       -61.8140   32.3350   -9.8600 C.3       1 SAH         0.1132
     13 O3'       -62.6800   33.2980  -10.4090 O.3       1 SAH        -0.3864
     14 C2'       -60.4180   32.8880   -9.7060 C.3       1 SAH         0.1385
     15 O2'       -60.4660   34.2660   -9.4190 O.3       1 SAH        -0.3836
     16 C1'       -59.8900   32.1610   -8.4890 C.3       1 SAH         0.2009
     17 N9        -59.0530   31.0520   -8.9720 N.pl3     1 SAH        -0.1919
     18 C8        -59.4440   29.7510   -9.1540 C.2       1 SAH         0.1123
     19 N7        -58.3890   29.0490   -9.6270 N.2       1 SAH        -0.2958
     20 C5        -57.3390   29.8890   -9.7610 C.ar      1 SAH         0.1045
     21 C6        -56.0380   29.6980  -10.2010 C.ar      1 SAH         0.1298
     22 N6        -55.6290   28.4950  -10.5930 N.pl3     1 SAH        -0.3152
     23 N1        -55.1710   30.7690  -10.2280 N.ar      1 SAH        -0.2698
     24 C2        -55.5920   32.0180   -9.8240 C.ar      1 SAH         0.0533
     25 N3        -56.8870   32.2000   -9.3900 N.ar      1 SAH        -0.2714
     26 C4        -57.7440   31.1520   -9.3570 C.ar      1 SAH         0.1613
     27 H1        -62.9825   27.8127   -4.0558 H         1 SAH         0.2010
     28 H2        -62.4021   28.8914   -2.9562 H         1 SAH         0.2010
     29 H3        -61.7326   27.3920   -3.0709 H         1 SAH         0.2010
     30 H4        -60.9338   27.8117   -5.2423 H         1 SAH         0.1024
     31 H5        -61.0772   30.1201   -6.1242 H         1 SAH         0.0347
     32 H6        -62.1513   30.5575   -4.7524 H         1 SAH         0.0347
     33 H7        -63.6820   28.6584   -5.6096 H         1 SAH         0.0379
     34 H8        -62.7065   28.7445   -7.1155 H         1 SAH         0.0379
     35 H9        -63.8918   30.8665   -9.1980 H         1 SAH         0.0402
     36 H10       -62.5858   29.8472   -8.5036 H         1 SAH         0.0402
     37 H11       -62.6883   32.8244   -7.9567 H         1 SAH         0.0632
     38 H12       -61.8113   31.4446  -10.5059 H         1 SAH         0.0647
     39 H13       -62.6545   34.0849   -9.8774 H         1 SAH         0.2100
     40 H14       -59.8045   32.6988  -10.5992 H         1 SAH         0.0676
     41 H15       -59.5816   34.5997   -9.3249 H         1 SAH         0.2101
     42 H16       -59.3006   32.8388   -7.8540 H         1 SAH         0.0996
     43 H17       -60.4362   29.3503   -8.9520 H         1 SAH         0.1349
     44 H18       -54.6611   28.3609  -10.9186 H         1 SAH         0.1820
     45 H19       -56.2801   27.6972  -10.5711 H         1 SAH         0.1820
     46 H20       -54.9049   32.8561   -9.8477 H         1 SAH         0.0996
@<TRIPOS>BOND
     1    1    2 1  
     2    2    3 1  
     3    2    6 1  
     4    3    4 1  
     5    4    5 1  
     6    5    9 1  
     7    6    7 ar 
     8    6    8 ar 
     9    9   10 1  
    10   10   11 1  
    11   10   12 1  
    12   11   16 1  
    13   12   13 1  
    14   12   14 1  
    15   14   15 1  
    16   14   16 1  
    17   16   17 1  
    18   17   18 1  
    19   17   26 1  
    20   18   19 2  
    21   19   20 1  
    22   20   21 ar 
    23   20   26 ar 
    24   21   22 1  
    25   21   23 ar 
    26   23   24 ar 
    27   24   25 ar 
    28   25   26 ar 
    29    1   27 1  
    30    1   28 1  
    31    1   29 1  
    32    2   30 1  
    33    3   31 1  
    34    3   32 1  
    35    4   33 1  
    36    4   34 1  
    37    9   35 1  
    38    9   36 1  
    39   10   37 1  
    40   12   38 1  
    41   13   39 1  
    42   14   40 1  
    43   15   41 1  
    44   16   42 1  
    45   18   43 1  
    46   22   44 1  
    47   22   45 1  
    48   24   46 1  
@<TRIPOS>SUBSTRUCTURE
     1 SAH         1

