### 
### Created by X-TOOL on Mon Aug  2 16:14:54 2021
### 

@<TRIPOS>MOLECULE
6mju_ligand
   34    37     1     0     0
SMALL
GAST_HUCK


@<TRIPOS>ATOM
      1 C10        30.7610  226.5550   -9.2530 C.2       1 JUM         0.1302
      2 C13        26.7380  229.0030   -9.9860 C.ar      1 JUM        -0.0652
      3 C20        27.4750  226.7550   -9.2090 C.2       1 JUM        -0.0032
      4 C21        28.1390  226.0890   -8.2250 C.2       1 JUM         0.0058
      5 C24        26.4570  225.9410   -9.6480 C.2       1 JUM         0.0608
      6 C02        31.6490  223.9310  -10.3820 C.3       1 JUM         0.1566
      7 C03        32.6360  225.0290   -9.9950 C.2       1 JUM         0.3054
      8 C06        33.0560  227.3400   -9.0770 C.2       1 JUM         0.1123
      9 C07        32.8240  228.5200  -10.0270 C.2       1 JUM        -0.0154
     10 C08        31.3310  228.8470  -10.0970 C.2       1 JUM        -0.0196
     11 C09        30.3940  227.9430   -9.7440 C.2       1 JUM         0.0246
     12 C11        29.1190  228.5510   -9.9140 C.ar      1 JUM        -0.0369
     13 C12        27.7860  228.1390   -9.7200 C.ar      1 JUM        -0.0487
     14 C14        27.0170  230.2770  -10.4490 C.ar      1 JUM         0.0313
     15 C16        28.3300  230.6810  -10.6370 C.ar      1 JUM         0.0364
     16 C18        29.3780  229.8000  -10.3580 C.ar      1 JUM        -0.0305
     17 N05        32.1550  226.2710   -9.4440 N.am      1 JUM        -0.1189
     18 N19        30.7080  229.9730  -10.4700 N.2       1 JUM        -0.3983
     19 N22        27.5630  224.9340   -8.0730 N.2       1 JUM        -0.2156
     20 N23        26.5270  224.8150   -8.9430 N.pl3     1 JUM        -0.2165
     21 O01        31.7980  223.6210  -11.7430 O.3       1 JUM        -0.3722
     22 O04        33.7970  224.8820  -10.1270 O.2       1 JUM        -0.3424
     23 CL1        25.6530  231.3470  -10.7760 Cl        1 JUM        -0.0795
     24 CL2        28.8240  232.2790  -11.2210 Cl        1 JUM        -0.0852
     25 H1         30.0519  225.8579   -8.8090 H         1 JUM         0.1500
     26 H2         25.7126  228.6861   -9.8337 H         1 JUM         0.0458
     27 H3         28.9979  226.4575   -7.6660 H         1 JUM         0.0675
     28 H4         25.7310  226.1741  -10.4255 H         1 JUM         0.1035
     29 H5         30.6224  224.2798  -10.1965 H         1 JUM         0.0826
     30 H6         31.8458  223.0327   -9.7785 H         1 JUM         0.0826
     31 H7         33.7782  227.3117   -8.2624 H         1 JUM         0.1270
     32 H8         33.6058  229.0475  -10.5715 H         1 JUM         0.0526
     33 H9         25.9063  223.9987   -9.0397 H         1 JUM         0.2599
     34 H10        31.1823  222.9375  -11.9802 H         1 JUM         0.2131
@<TRIPOS>BOND
     1   11    1 2  
     2    1   17 1  
     3   13    2 ar 
     4    2   14 ar 
     5    3    4 1  
     6    3    5 2  
     7   13    3 1  
     8    4   19 2  
     9    5   20 1  
    10    7    6 1  
    11    6   21 1  
    12   17    7 am 
    13    7   22 2  
    14    9    8 2  
    15   17    8 1  
    16   10    9 1  
    17   11   10 1  
    18   10   18 2  
    19   12   11 1  
    20   12   13 ar 
    21   12   16 ar 
    22   14   15 ar 
    23   14   23 1  
    24   15   16 ar 
    25   15   24 1  
    26   16   18 1  
    27   19   20 1  
    28    1   25 1  
    29    2   26 1  
    30    4   27 1  
    31    5   28 1  
    32    6   29 1  
    33    6   30 1  
    34    8   31 1  
    35    9   32 1  
    36   20   33 1  
    37   21   34 1  
@<TRIPOS>SUBSTRUCTURE
     1 JUM         1

