### 
### Created by X-TOOL on Mon Aug  2 16:14:54 2021
### 

@<TRIPOS>MOLECULE
6mjw_ligand
   42    45     1     0     0
SMALL
GAST_HUCK


@<TRIPOS>ATOM
      1 C13        37.8040   13.7910   11.4750 C.3       1 JUJ         0.0461
      2 C20        33.4160   10.1500   10.8030 C.ar      1 JUJ        -0.0121
      3 C21        32.4160    9.7920   11.6630 C.ar      1 JUJ         0.0022
      4 C26        33.1830   11.1220    9.8510 C.ar      1 JUJ        -0.0484
      5 O01        36.4020   17.6110   10.3250 O.3       1 JUJ        -0.3746
      6 C02        37.1300   16.4280   10.1250 C.3       1 JUJ         0.1334
      7 C03        36.2110   15.2010   10.0990 C.2       1 JUJ         0.2053
      8 O04        35.1870   15.2410    9.5290 O.2       1 JUJ        -0.3942
      9 N05        36.5720   13.9670   10.7650 N.am      1 JUJ        -0.2662
     10 C06        35.6770   12.7860   10.7330 C.3       1 JUJ         0.0459
     11 C07        36.4260   11.4200   10.8660 C.2       1 JUJ        -0.0249
     12 C08        35.9960   10.0490   10.9450 C.ar      1 JUJ        -0.0222
     13 C09        37.1250    9.2930   11.0620 C.ar      1 JUJ         0.0706
     14 N10        38.1900   10.1340   11.0630 N.pl3     1 JUJ        -0.2805
     15 C11        37.7640   11.4080   10.9340 C.2       1 JUJ         0.0430
     16 C12        38.5720   12.6640   10.8970 C.3       1 JUJ         0.0206
     17 C14        37.0120    7.8950   11.1590 C.ar      1 JUJ         0.0669
     18 CL2        38.3780    6.7830   11.2900 Cl        1 JUJ        -0.0788
     19 C16        35.7850    7.2980   11.1450 C.ar      1 JUJ         0.0358
     20 CL1        35.6990    5.5340   11.2570 Cl        1 JUJ        -0.0821
     21 C18        34.6320    8.0480   11.0260 C.ar      1 JUJ        -0.0615
     22 C19        34.7350    9.4130   10.9220 C.ar      1 JUJ        -0.0357
     23 N22        31.2480   10.3740   11.6230 N.ar      1 JUJ        -0.2852
     24 C23        30.9820   11.3060   10.7450 C.ar      1 JUJ         0.1086
     25 N24        29.6590   11.9060   10.7630 N.pl3     1 JUJ        -0.3221
     26 C25        31.9350   11.7130    9.8310 C.ar      1 JUJ        -0.0166
     27 H1         37.5868   13.5781   12.5321 H         1 JUJ         0.0547
     28 H2         38.4004   14.7124   11.4015 H         1 JUJ         0.0547
     29 H3         32.5960    9.0102   12.3920 H         1 JUJ         0.0780
     30 H4         33.9523   11.4112    9.1442 H         1 JUJ         0.0694
     31 H5         35.7751   17.7189    9.6194 H         1 JUJ         0.2129
     32 H6         37.8569   16.3129   10.9425 H         1 JUJ         0.0801
     33 H7         37.6644   16.4948    9.1658 H         1 JUJ         0.0801
     34 H8         35.1317   12.7904    9.7777 H         1 JUJ         0.0579
     35 H9         34.9615   12.8710   11.5641 H         1 JUJ         0.0579
     36 H10        39.1745    9.8439   11.1492 H         1 JUJ         0.2222
     37 H11        39.4944   12.5184   11.4783 H         1 JUJ         0.0465
     38 H12        38.8293   12.8985    9.8535 H         1 JUJ         0.0465
     39 H13        33.6608    7.5667   11.0149 H         1 JUJ         0.0507
     40 H14        29.4183   12.6426   10.0845 H         1 JUJ         0.1769
     41 H15        28.9617   11.5948   11.4543 H         1 JUJ         0.1769
     42 H16        31.7059   12.4867    9.1071 H         1 JUJ         0.0610
@<TRIPOS>BOND
     1    9    1 1  
     2    1   16 1  
     3    2    3 ar 
     4    2    4 ar 
     5   22    2 1  
     6    3   23 ar 
     7    4   26 ar 
     8    6    5 1  
     9    7    6 1  
    10    7    8 2  
    11    9    7 am 
    12   10    9 1  
    13   11   10 1  
    14   12   11 1  
    15   11   15 2  
    16   12   13 ar 
    17   12   22 ar 
    18   13   14 1  
    19   13   17 ar 
    20   14   15 1  
    21   15   16 1  
    22   17   18 1  
    23   17   19 ar 
    24   19   20 1  
    25   19   21 ar 
    26   21   22 ar 
    27   23   24 ar 
    28   24   25 1  
    29   24   26 ar 
    30    1   27 1  
    31    1   28 1  
    32    3   29 1  
    33    4   30 1  
    34    5   31 1  
    35    6   32 1  
    36    6   33 1  
    37   10   34 1  
    38   10   35 1  
    39   14   36 1  
    40   16   37 1  
    41   16   38 1  
    42   21   39 1  
    43   25   40 1  
    44   25   41 1  
    45   26   42 1  
@<TRIPOS>SUBSTRUCTURE
     1 JUJ         1

