### 
### Created by X-TOOL on Mon Aug  2 16:10:18 2021
### 

@<TRIPOS>MOLECULE
6mkq_ligand
   30    30     1     0     0
SMALL
GAST_HUCK


@<TRIPOS>ATOM
      1 OAC        22.8960  -19.9070    9.5010 O.2       1 NXL        -0.3828
      2 CAN        23.2470  -20.2710   10.6040 C.2       1 NXL         0.1743
      3 N          24.2590  -20.9720   10.8860 N.am      1 NXL        -0.2479
      4 CAJ        24.6710  -21.2640   12.2680 C.3       1 NXL         0.0807
      5 CA         25.0080  -21.5910    9.8160 C.3       1 NXL         0.1340
      6 C          24.7090  -23.1080    9.8680 C.2       1 NXL         0.1996
      7 O          23.8550  -23.5590   10.5720 O.2       1 NXL        -0.3947
      8 NAA        25.5130  -24.0050    9.0480 N.am      1 NXL        -0.2989
      9 CB         26.4810  -21.3100    9.9740 C.3       1 NXL        -0.0069
     10 CAH        27.0000  -21.5200   11.4070 C.3       1 NXL        -0.0025
     11 CAO        26.1300  -20.9240   12.5190 C.3       1 NXL         0.0316
     12 NAK        26.2340  -19.4540   12.6050 N.4       1 NXL         0.4138
     13 OAL        26.6890  -18.7960   11.4380 O.3       1 NXL        -0.2010
     14 SAR        25.7910  -17.3760   11.3460 S.o2      1 NXL        -0.0327
     15 OAD        26.0670  -16.4100   12.4140 O.co2     1 NXL        -0.4578
     16 OAE        25.9860  -16.5940   10.1370 O.co2     1 NXL        -0.4578
     17 OAG        24.3570  -17.5960   11.4090 O.co2     1 NXL        -0.4578
     18 H1         22.6226  -19.9600   11.4402 H         1 NXL         0.1547
     19 H2         24.5190  -22.3358   12.4634 H         1 NXL         0.0583
     20 H3         24.0471  -20.6738   12.9553 H         1 NXL         0.0583
     21 H4         24.6734  -21.1864    8.8494 H         1 NXL         0.0804
     22 H5         25.3382  -24.9895    9.0650 H         1 NXL         0.1815
     23 H6         26.2395  -23.6361    8.4682 H         1 NXL         0.1815
     24 H7         26.6681  -20.2648    9.6865 H         1 NXL         0.0314
     25 H8         27.0366  -21.9803    9.3017 H         1 NXL         0.0314
     26 H9         27.9981  -21.0628   11.4761 H         1 NXL         0.0323
     27 H10        27.0797  -22.6029   11.5831 H         1 NXL         0.0323
     28 H11        26.4477  -21.3587   13.4782 H         1 NXL         0.0882
     29 H12        26.8728  -19.2330   13.3527 H         1 NXL         0.2382
     30 H13        25.3195  -19.0924   12.8264 H         1 NXL         0.2382
@<TRIPOS>BOND
     1    1    2 2  
     2    2    3 am 
     3    3    4 1  
     4    3    5 1  
     5    4   11 1  
     6    5    6 1  
     7    5    9 1  
     8    6    7 2  
     9    6    8 am 
    10    9   10 1  
    11   10   11 1  
    12   11   12 1  
    13   12   13 1  
    14   13   14 1  
    15   14   15 ar 
    16   14   16 ar 
    17   14   17 ar 
    18    2   18 1  
    19    4   19 1  
    20    4   20 1  
    21    5   21 1  
    22    8   22 1  
    23    8   23 1  
    24    9   24 1  
    25    9   25 1  
    26   10   26 1  
    27   10   27 1  
    28   11   28 1  
    29   12   29 1  
    30   12   30 1  
@<TRIPOS>SUBSTRUCTURE
     1 NXL         1

