### 
### Created by X-TOOL on Mon Aug  2 16:14:54 2021
### 

@<TRIPOS>MOLECULE
6mku_ligand
   27    26     1     0     0
SMALL
GAST_HUCK


@<TRIPOS>ATOM
      1 N          -0.0630   -1.2000  -12.1790 N.4       1 ARG         0.2327
      2 CA          0.1080   -2.0000  -10.9610 C.3       1 ARG         0.0284
      3 C          -0.4070   -1.2140   -9.7670 C.2       1 ARG         0.0844
      4 O          -0.7000   -0.0180   -9.9140 O.co2     1 ARG        -0.5643
      5 CB          1.5760   -2.3760  -10.7450 C.3       1 ARG         0.0055
      6 CG          2.5190   -1.1860  -10.8430 C.3       1 ARG        -0.0131
      7 CD          3.8880   -1.4720  -10.2420 C.3       1 ARG         0.0628
      8 NE          4.8480   -0.4290  -10.5870 N.pl3     1 ARG        -0.2723
      9 CZ          6.1230   -0.4100  -10.1960 C.cat     1 ARG         0.2882
     10 NH1         6.5900   -1.3760   -9.4250 N.pl3     1 ARG        -0.2849
     11 NH2         6.9390    0.5760  -10.5760 N.pl3     1 ARG        -0.2849
     12 OXT        -0.5230   -1.7240   -8.6540 O.co2     1 ARG        -0.5643
     13 H1          0.2780   -1.7194  -12.9727 H         1 ARG         0.2010
     14 H2          0.4560   -0.3403  -12.0920 H         1 ARG         0.2010
     15 H3         -1.0404   -0.9908  -12.3092 H         1 ARG         0.2010
     16 H4         -0.4795   -2.9246  -11.0608 H         1 ARG         0.1024
     17 H5          1.8640   -3.1142  -11.5079 H         1 ARG         0.0340
     18 H6          1.6793   -2.8227   -9.7451 H         1 ARG         0.0340
     19 H7          2.0702   -0.3360  -10.3081 H         1 ARG         0.0302
     20 H8          2.6477   -0.9250  -11.9038 H         1 ARG         0.0302
     21 H9          4.2533   -2.4360  -10.6257 H         1 ARG         0.0689
     22 H10         3.7946   -1.5247   -9.1473 H         1 ARG         0.0689
     23 H11         4.5171    0.3491  -11.1752 H         1 ARG         0.2642
     24 H12         7.5744   -1.3628   -9.1222 H         1 ARG         0.2615
     25 H13         5.9697   -2.1423   -9.1268 H         1 ARG         0.2615
     26 H14         6.5856    1.3342  -11.1770 H         1 ARG         0.2615
     27 H15         7.9219    0.5785  -10.2682 H         1 ARG         0.2615
@<TRIPOS>BOND
     1    1    2 1  
     2    2    3 1  
     3    2    5 1  
     4    3    4 ar 
     5    3   12 ar 
     6    5    6 1  
     7    6    7 1  
     8    7    8 1  
     9    8    9 ar 
    10    9   10 ar 
    11    9   11 ar 
    12    1   13 1  
    13    1   14 1  
    14    1   15 1  
    15    2   16 1  
    16    5   17 1  
    17    5   18 1  
    18    6   19 1  
    19    6   20 1  
    20    7   21 1  
    21    7   22 1  
    22    8   23 1  
    23   10   24 1  
    24   10   25 1  
    25   11   26 1  
    26   11   27 1  
@<TRIPOS>SUBSTRUCTURE
     1 ARG         1

