### 
### Created by X-TOOL on Mon Aug  2 16:14:54 2021
### 

@<TRIPOS>MOLECULE
6ml9_ligand
   27    26     1     0     0
SMALL
GAST_HUCK


@<TRIPOS>ATOM
      1 N          13.8860    1.2410  -12.2740 N.4       1 ARG         0.2327
      2 CA         13.7450    2.0480  -11.0390 C.3       1 ARG         0.0284
      3 C          14.3250    1.2450   -9.8870 C.2       1 ARG         0.0844
      4 O          14.7000    0.0710  -10.1040 O.co2     1 ARG        -0.5643
      5 CB         12.2610    2.4020  -10.7880 C.3       1 ARG         0.0055
      6 CG         11.3520    1.1860  -10.7850 C.3       1 ARG        -0.0131
      7 CD          9.9950    1.4820  -10.1800 C.3       1 ARG         0.0628
      8 NE          9.0470    0.4130  -10.4510 N.pl3     1 ARG        -0.2723
      9 CZ          7.7680    0.4240  -10.0780 C.cat     1 ARG         0.2882
     10 NH1         7.2650    1.4430   -9.3970 N.pl3     1 ARG        -0.2849
     11 NH2         6.9940   -0.6090  -10.3570 N.pl3     1 ARG        -0.2849
     12 OXT        14.4420    1.7320   -8.7590 O.co2     1 ARG        -0.5643
     13 H1         13.5074    1.7533  -13.0552 H         1 ARG         0.2010
     14 H2         13.3851    0.3728  -12.1671 H         1 ARG         0.2010
     15 H3         14.8614    1.0480  -12.4398 H         1 ARG         0.2010
     16 H4         14.3145    2.9826  -11.1491 H         1 ARG         0.1024
     17 H5         11.9257    3.0879  -11.5799 H         1 ARG         0.0340
     18 H6         12.1804    2.9019   -9.8115 H         1 ARG         0.0340
     19 H7         11.8325    0.3870  -10.2013 H         1 ARG         0.0302
     20 H8         11.2104    0.8480  -11.8222 H         1 ARG         0.0302
     21 H9          9.6093    2.4190  -10.6081 H         1 ARG         0.0689
     22 H10        10.1056    1.5944   -9.0914 H         1 ARG         0.0689
     23 H11         9.3882   -0.4103  -10.9674 H         1 ARG         0.2642
     24 H12         6.2740    1.4358   -9.1163 H         1 ARG         0.2615
     25 H13         7.8649    2.2425   -9.1483 H         1 ARG         0.2615
     26 H14         7.3722   -1.4079  -10.8857 H         1 ARG         0.2615
     27 H15         6.0121   -0.6157  -10.0459 H         1 ARG         0.2615
@<TRIPOS>BOND
     1    1    2 1  
     2    2    3 1  
     3    2    5 1  
     4    3    4 ar 
     5    3   12 ar 
     6    5    6 1  
     7    6    7 1  
     8    7    8 1  
     9    8    9 ar 
    10    9   10 ar 
    11    9   11 ar 
    12    1   13 1  
    13    1   14 1  
    14    1   15 1  
    15    2   16 1  
    16    5   17 1  
    17    5   18 1  
    18    6   19 1  
    19    6   20 1  
    20    7   21 1  
    21    7   22 1  
    22    8   23 1  
    23   10   24 1  
    24   10   25 1  
    25   11   26 1  
    26   11   27 1  
@<TRIPOS>SUBSTRUCTURE
     1 ARG         1

