### 
### Created by X-TOOL on Mon Aug  2 16:14:54 2021
### 

@<TRIPOS>MOLECULE
6mla_ligand
   27    26     1     0     0
SMALL
GAST_HUCK


@<TRIPOS>ATOM
      1 N          13.9300    1.3140  -11.9840 N.4       1 ARG         0.2327
      2 CA         13.8360    2.0440  -10.7250 C.3       1 ARG         0.0284
      3 C          14.4610    1.2540   -9.5870 C.2       1 ARG         0.0844
      4 O          14.7690    0.0750   -9.7420 O.co2     1 ARG        -0.5643
      5 CB         12.3740    2.3690  -10.3970 C.3       1 ARG         0.0055
      6 CG         11.4230    1.1880  -10.5730 C.3       1 ARG        -0.0131
      7 CD          9.9610    1.5260  -10.2100 C.3       1 ARG         0.0628
      8 NE          9.0400    0.4240  -10.5170 N.pl3     1 ARG        -0.2723
      9 CZ          7.7810    0.3350  -10.0800 C.cat     1 ARG         0.2882
     10 NH1         7.2830    1.2870   -9.3040 N.pl3     1 ARG        -0.2849
     11 NH2         7.0130   -0.7100  -10.4190 N.pl3     1 ARG        -0.2849
     12 OXT        14.6770    1.7620   -8.4800 O.co2     1 ARG        -0.5643
     13 H1         13.5092    1.8587  -12.7204 H         1 ARG         0.2010
     14 H2         13.4464    0.4337  -11.8989 H         1 ARG         0.2010
     15 H3         14.8993    1.1451  -12.2030 H         1 ARG         0.2010
     16 H4         14.3869    2.9899  -10.8336 H         1 ARG         0.1024
     17 H5         12.0428    3.1820  -11.0599 H         1 ARG         0.0340
     18 H6         12.3201    2.7040   -9.3507 H         1 ARG         0.0340
     19 H7         11.7628    0.3659   -9.9260 H         1 ARG         0.0302
     20 H8         11.4567    0.8654  -11.6241 H         1 ARG         0.0302
     21 H9          9.6516    2.4144  -10.7800 H         1 ARG         0.0689
     22 H10         9.9054    1.7435   -9.1332 H         1 ARG         0.0689
     23 H11         9.3915   -0.3378  -11.1145 H         1 ARG         0.2642
     24 H12         6.3124    1.2205   -8.9658 H         1 ARG         0.2615
     25 H13         7.8666    2.0933   -9.0391 H         1 ARG         0.2615
     26 H14         7.3926   -1.4540  -11.0217 H         1 ARG         0.2615
     27 H15         6.0433   -0.7690  -10.0768 H         1 ARG         0.2615
@<TRIPOS>BOND
     1    1    2 1  
     2    2    3 1  
     3    2    5 1  
     4    3    4 ar 
     5    3   12 ar 
     6    5    6 1  
     7    6    7 1  
     8    7    8 1  
     9    8    9 ar 
    10    9   10 ar 
    11    9   11 ar 
    12    1   13 1  
    13    1   14 1  
    14    1   15 1  
    15    2   16 1  
    16    5   17 1  
    17    5   18 1  
    18    6   19 1  
    19    6   20 1  
    20    7   21 1  
    21    7   22 1  
    22    8   23 1  
    23   10   24 1  
    24   10   25 1  
    25   11   26 1  
    26   11   27 1  
@<TRIPOS>SUBSTRUCTURE
     1 ARG         1

