### 
### Created by X-TOOL on Mon Aug  2 16:14:55 2021
### 

@<TRIPOS>MOLECULE
6mle_ligand
   27    26     1     0     0
SMALL
GAST_HUCK


@<TRIPOS>ATOM
      1 N          -0.0710   -1.2430  -12.2200 N.4       1 ARG         0.2327
      2 CA          0.1670   -1.9980  -10.9830 C.3       1 ARG         0.0284
      3 C          -0.2850   -1.1960   -9.7740 C.2       1 ARG         0.0844
      4 O          -0.5390    0.0090   -9.8870 O.co2     1 ARG        -0.5643
      5 CB          1.6520   -2.3500  -10.8210 C.3       1 ARG         0.0055
      6 CG          2.5620   -1.1240  -10.8190 C.3       1 ARG        -0.0131
      7 CD          3.9520   -1.4200  -10.2530 C.3       1 ARG         0.0628
      8 NE          4.9090   -0.3470  -10.5440 N.pl3     1 ARG        -0.2723
      9 CZ          6.1760   -0.3280  -10.1370 C.cat     1 ARG         0.2882
     10 NH1         6.6510   -1.3160   -9.3820 N.pl3     1 ARG        -0.2849
     11 NH2         6.9740    0.6880  -10.4760 N.pl3     1 ARG        -0.2849
     12 OXT        -0.3700   -1.7170   -8.6630 O.co2     1 ARG        -0.5643
     13 H1          0.2341   -1.7888  -13.0107 H         1 ARG         0.2010
     14 H2          0.4449   -0.3776  -12.1900 H         1 ARG         0.2010
     15 H3         -1.0553   -1.0445  -12.3084 H         1 ARG         0.2010
     16 H4         -0.4138   -2.9310  -11.0284 H         1 ARG         0.1024
     17 H5          1.9492   -3.0050  -11.6532 H         1 ARG         0.0340
     18 H6          1.7831   -2.8846   -9.8687 H         1 ARG         0.0340
     19 H7          2.0932   -0.3390  -10.2075 H         1 ARG         0.0302
     20 H8          2.6724   -0.7662  -11.8533 H         1 ARG         0.0302
     21 H9          4.3232   -2.3556  -10.6966 H         1 ARG         0.0689
     22 H10         3.8726   -1.5376   -9.1622 H         1 ARG         0.0689
     23 H11         4.5759    0.4503  -11.1045 H         1 ARG         0.2642
     24 H12         7.6320   -1.2986   -9.0685 H         1 ARG         0.2615
     25 H13         6.0376   -2.0979   -9.1113 H         1 ARG         0.2615
     26 H14         6.6113    1.4550  -11.0600 H         1 ARG         0.2615
     27 H15         7.9520    0.7045  -10.1534 H         1 ARG         0.2615
@<TRIPOS>BOND
     1    1    2 1  
     2    2    3 1  
     3    2    5 1  
     4    3    4 ar 
     5    3   12 ar 
     6    5    6 1  
     7    6    7 1  
     8    7    8 1  
     9    8    9 ar 
    10    9   10 ar 
    11    9   11 ar 
    12    1   13 1  
    13    1   14 1  
    14    1   15 1  
    15    2   16 1  
    16    5   17 1  
    17    5   18 1  
    18    6   19 1  
    19    6   20 1  
    20    7   21 1  
    21    7   22 1  
    22    8   23 1  
    23   10   24 1  
    24   10   25 1  
    25   11   26 1  
    26   11   27 1  
@<TRIPOS>SUBSTRUCTURE
     1 ARG         1

