### 
### Created by X-TOOL on Mon Aug  2 16:14:55 2021
### 

@<TRIPOS>MOLECULE
6mlg_ligand
   27    26     1     0     0
SMALL
GAST_HUCK


@<TRIPOS>ATOM
      1 N         -14.0300    1.3140   12.0460 N.4       1 ARG         0.2327
      2 CA        -13.8710    1.9850   10.7600 C.3       1 ARG         0.0284
      3 C         -14.4900    1.1230    9.6570 C.2       1 ARG         0.0844
      4 O         -14.6220    1.5600    8.5060 O.co2     1 ARG        -0.5643
      5 CB        -12.3810    2.2810   10.4570 C.3       1 ARG         0.0055
      6 CG        -11.4360    1.0820   10.5940 C.3       1 ARG        -0.0131
      7 CD        -10.0020    1.3910   10.1150 C.3       1 ARG         0.0628
      8 NE         -9.0690    0.2970   10.4160 N.pl3     1 ARG        -0.2723
      9 CZ         -7.7910    0.2510   10.0350 C.cat     1 ARG         0.2882
     10 NH1        -7.0340   -0.7950   10.3580 N.pl3     1 ARG        -0.2849
     11 NH2        -7.2620    1.2330    9.3150 N.pl3     1 ARG        -0.2849
     12 OXT       -14.8960   -0.0210    9.9110 O.co2     1 ARG        -0.5643
     13 H1        -13.6227    1.8808   12.7733 H         1 ARG         0.2010
     14 H2        -13.5664    0.4194   12.0178 H         1 ARG         0.2010
     15 H3        -15.0107    1.1784   12.2353 H         1 ARG         0.2010
     16 H4        -14.4096    2.9433   10.7988 H         1 ARG         0.1024
     17 H5        -12.0413    3.0630   11.1520 H         1 ARG         0.0340
     18 H6        -12.3112    2.6528    9.4241 H         1 ARG         0.0340
     19 H7        -11.8348    0.2503    9.9947 H         1 ARG         0.0302
     20 H8        -11.3963    0.7853   11.6525 H         1 ARG         0.0302
     21 H9         -9.6501    2.3047   10.6163 H         1 ARG         0.0689
     22 H10       -10.0190    1.5529    9.0271 H         1 ARG         0.0689
     23 H11        -9.4296   -0.4969   10.9642 H         1 ARG         0.2642
     24 H12        -6.0478   -0.8278   10.0626 H         1 ARG         0.2615
     25 H13        -7.4344   -1.5716   10.9034 H         1 ARG         0.2615
     26 H14        -7.8352    2.0490    9.0572 H         1 ARG         0.2615
     27 H15        -6.2784    1.1789    9.0142 H         1 ARG         0.2615
@<TRIPOS>BOND
     1    1    2 1  
     2    2    3 1  
     3    2    5 1  
     4    3    4 ar 
     5    3   12 ar 
     6    5    6 1  
     7    6    7 1  
     8    7    8 1  
     9    8    9 ar 
    10    9   10 ar 
    11    9   11 ar 
    12    1   13 1  
    13    1   14 1  
    14    1   15 1  
    15    2   16 1  
    16    5   17 1  
    17    5   18 1  
    18    6   19 1  
    19    6   20 1  
    20    7   21 1  
    21    7   22 1  
    22    8   23 1  
    23   10   24 1  
    24   10   25 1  
    25   11   26 1  
    26   11   27 1  
@<TRIPOS>SUBSTRUCTURE
     1 ARG         1

