### 
### Created by X-TOOL on Mon Aug  2 16:14:55 2021
### 

@<TRIPOS>MOLECULE
6mli_ligand
   20    20     1     0     0
SMALL
GAST_HUCK


@<TRIPOS>ATOM
      1 N          19.0200    1.0270  -12.1850 N.4       1 HIS         0.2337
      2 CA         19.2430    1.9300  -11.0570 C.3       1 HIS         0.0342
      3 C          19.5650    1.1710   -9.7620 C.2       1 HIS         0.0860
      4 O          19.8570   -0.0260   -9.8110 O.co2     1 HIS        -0.5642
      5 CB         18.0310    2.8570  -10.8930 C.3       1 HIS         0.0292
      6 CG         16.7400    2.1540  -10.6050 C.2       1 HIS        -0.0001
      7 ND1        16.2570    1.1220  -11.3750 N.2       1 HIS        -0.3251
      8 CD2        15.7960    2.3970   -9.6680 C.2       1 HIS         0.0292
      9 CE1        15.0900    0.7240  -10.8940 C.2       1 HIS         0.0907
     10 NE2        14.7850    1.4850   -9.8640 N.pl3     1 HIS        -0.2752
     11 OXT        19.5910    1.7100   -8.6430 O.co2     1 HIS        -0.5642
     12 H1         18.8126    1.5661  -13.0111 H         1 HIS         0.2011
     13 H2         18.2447    0.4167  -11.9787 H         1 HIS         0.2011
     14 H3         19.8489    0.4756  -12.3430 H         1 HIS         0.2011
     15 H4         20.1157    2.5559  -11.2952 H         1 HIS         0.1042
     16 H5         17.9090    3.4296  -11.8243 H         1 HIS         0.0446
     17 H6         18.2378    3.5477  -10.0622 H         1 HIS         0.0446
     18 H7         15.8297    3.1700   -8.9016 H         1 HIS         0.0729
     19 H8         14.4853   -0.0935  -11.2838 H         1 HIS         0.1199
     20 H9         13.9284    1.4098   -9.2969 H         1 HIS         0.2361
@<TRIPOS>BOND
     1    1    2 1  
     2    2    3 1  
     3    2    5 1  
     4    3    4 ar 
     5    3   11 ar 
     6    5    6 1  
     7    6    7 1  
     8    6    8 2  
     9    7    9 2  
    10    8   10 1  
    11    9   10 1  
    12    1   12 1  
    13    1   13 1  
    14    1   14 1  
    15    2   15 1  
    16    5   16 1  
    17    5   17 1  
    18    8   18 1  
    19    9   19 1  
    20   10   20 1  
@<TRIPOS>SUBSTRUCTURE
     1 HIS         1

