### 
### Created by X-TOOL on Mon Aug  2 16:14:55 2021
### 

@<TRIPOS>MOLECULE
6mlj_ligand
   27    26     1     0     0
SMALL
GAST_HUCK


@<TRIPOS>ATOM
      1 N          15.7980  -11.9580   38.8010 N.4       1 ARG         0.2327
      2 CA         16.6280  -11.8150   39.9570 C.3       1 ARG         0.0284
      3 C          15.8160  -12.4260   41.1030 C.2       1 ARG         0.0844
      4 O          14.5770  -12.7610   40.8340 O.co2     1 ARG        -0.5643
      5 CB         17.0650  -10.3550   40.2400 C.3       1 ARG         0.0055
      6 CG         15.9740   -9.2790   40.0810 C.3       1 ARG        -0.0131
      7 CD         15.9840   -7.9020   40.8470 C.3       1 ARG         0.0628
      8 NE         14.8870   -6.9920   40.4570 N.pl3     1 ARG        -0.2723
      9 CZ         14.7200   -5.7090   40.8210 C.cat     1 ARG         0.2882
     10 NH1        15.6110   -5.1100   41.6010 N.pl3     1 ARG        -0.2849
     11 NH2        13.6820   -5.0000   40.3740 N.pl3     1 ARG        -0.2849
     12 OXT        16.3290  -12.5470   42.1770 O.co2     1 ARG        -0.5643
     13 H1         16.2712  -11.5740   37.9981 H         1 ARG         0.2010
     14 H2         14.9307  -11.4656   38.9471 H         1 ARG         0.2010
     15 H3         15.6073  -12.9351   38.6431 H         1 ARG         0.2010
     16 H4         17.5436  -12.4070   39.8113 H         1 ARG         0.1024
     17 H5         17.8835  -10.1088   39.5476 H         1 ARG         0.0340
     18 H6         17.4341  -10.3091   41.2752 H         1 ARG         0.0340
     19 H7         15.0284   -9.7683   40.3573 H         1 ARG         0.0302
     20 H8         15.9568   -9.0259   39.0107 H         1 ARG         0.0302
     21 H9         16.9406   -7.3988   40.6426 H         1 ARG         0.0689
     22 H10        15.8992   -8.1046   41.9248 H         1 ARG         0.0689
     23 H11        14.1674   -7.3864   39.8345 H         1 ARG         0.2642
     24 H12        15.4763   -4.1265   41.8758 H         1 ARG         0.2615
     25 H13        16.4373   -5.6286   41.9316 H         1 ARG         0.2615
     26 H14        12.9780   -5.4441   39.7673 H         1 ARG         0.2615
     27 H15        13.5846   -4.0085   40.6356 H         1 ARG         0.2615
@<TRIPOS>BOND
     1    1    2 1  
     2    2    3 1  
     3    2    5 1  
     4    3    4 ar 
     5    3   12 ar 
     6    5    6 1  
     7    6    7 1  
     8    7    8 1  
     9    8    9 ar 
    10    9   10 ar 
    11    9   11 ar 
    12    1   13 1  
    13    1   14 1  
    14    1   15 1  
    15    2   16 1  
    16    5   17 1  
    17    5   18 1  
    18    6   19 1  
    19    6   20 1  
    20    7   21 1  
    21    7   22 1  
    22    8   23 1  
    23   10   24 1  
    24   10   25 1  
    25   11   26 1  
    26   11   27 1  
@<TRIPOS>SUBSTRUCTURE
     1 ARG         1

