### 
### Created by X-TOOL on Mon Aug  2 16:14:56 2021
### 

@<TRIPOS>MOLECULE
6mll_ligand
   38    41     1     0     0
SMALL
GAST_HUCK


@<TRIPOS>ATOM
      1 C02        20.5800   14.7340    8.3120 C.2       1 N1G         0.2384
      2 C04        19.8370   16.8540    9.4860 C.2       1 N1G         0.2229
      3 C09        21.5030   14.1460    7.2550 C.2       1 N1G         0.1183
      4 C12        22.8760   11.6910    5.0380 C.ar      1 N1G         0.1142
      5 C13        24.0670   11.0130    5.2410 C.ar      1 N1G        -0.0246
      6 C14        24.3620    9.8850    4.4880 C.ar      1 N1G        -0.0652
      7 C15        23.4700    9.4290    3.5320 C.ar      1 N1G        -0.0682
      8 C16        22.2750   10.1000    3.3300 C.ar      1 N1G        -0.0652
      9 C17        21.9840   11.2290    4.0820 C.ar      1 N1G        -0.0246
     10 C18        23.1290   14.0500    5.7530 C.2       1 N1G         0.1114
     11 C19        24.2900   14.5220    4.8890 C.ar      1 N1G         0.0124
     12 C20        25.5650   14.5720    5.4210 C.ar      1 N1G        -0.0518
     13 C21        26.6180   15.0170    4.6400 C.ar      1 N1G        -0.0616
     14 C22        26.3920   15.4260    3.3370 C.ar      1 N1G        -0.0622
     15 C23        25.1110   15.3900    2.8110 C.ar      1 N1G        -0.0616
     16 C24        24.0580   14.9440    3.5920 C.ar      1 N1G        -0.0518
     17 C25        22.5030   14.8760    6.6390 C.2       1 N1G        -0.0170
     18 N03        20.6570   16.1700    8.5120 N.am      1 N1G        -0.2126
     19 N05        18.5070   16.9740    9.4510 N.2       1 N1G        -0.1559
     20 N06        18.1180   17.6780   10.5330 N.pl3     1 N1G        -0.1251
     21 N07        19.2130   17.9970   11.2290 N.2       1 N1G        -0.0632
     22 N08        20.2810   17.4840   10.5790 N.2       1 N1G        -0.1594
     23 N10        21.5240   12.9080    6.7430 N.2       1 N1G        -0.1757
     24 N11        22.5410   12.8730    5.8190 N.pl3     1 N1G        -0.1500
     25 O01        19.8350   14.0520    8.9360 O.2       1 N1G        -0.3741
     26 H1         24.7692   11.3638    5.9886 H         1 N1G         0.0591
     27 H2         25.2956    9.3582    4.6491 H         1 N1G         0.0601
     28 H3         23.7061    8.5498    2.9436 H         1 N1G         0.0562
     29 H4         21.5700    9.7443    2.5873 H         1 N1G         0.0601
     30 H5         21.0501   11.7552    3.9207 H         1 N1G         0.0591
     31 H6         25.7396   14.2640    6.4456 H         1 N1G         0.0621
     32 H7         27.6212   15.0452    5.0496 H         1 N1G         0.0616
     33 H8         27.2180   15.7747    2.7278 H         1 N1G         0.0613
     34 H9         24.9333   15.7101    1.7907 H         1 N1G         0.0616
     35 H10        23.0525   14.9255    3.1874 H         1 N1G         0.0621
     36 H11        22.7463   15.9206    6.8273 H         1 N1G         0.0414
     37 H12        21.2974   16.7025    7.9585 H         1 N1G         0.2250
     38 H13        17.1491   17.9258   10.7793 H         1 N1G         0.2825
@<TRIPOS>BOND
     1    3    1 1  
     2    1   18 am 
     3    1   25 2  
     4   18    2 1  
     5    2   19 2  
     6    2   22 1  
     7   17    3 1  
     8    3   23 2  
     9    4    5 ar 
    10    4    9 ar 
    11   24    4 1  
    12    5    6 ar 
    13    6    7 ar 
    14    8    7 ar 
    15    9    8 ar 
    16   10   11 1  
    17   10   17 2  
    18   10   24 1  
    19   11   12 ar 
    20   11   16 ar 
    21   12   13 ar 
    22   13   14 ar 
    23   14   15 ar 
    24   15   16 ar 
    25   19   20 1  
    26   20   21 1  
    27   21   22 2  
    28   23   24 1  
    29    5   26 1  
    30    6   27 1  
    31    7   28 1  
    32    8   29 1  
    33    9   30 1  
    34   12   31 1  
    35   13   32 1  
    36   14   33 1  
    37   15   34 1  
    38   16   35 1  
    39   17   36 1  
    40   18   37 1  
    41   20   38 1  
@<TRIPOS>SUBSTRUCTURE
     1 N1G         1

