### 
### Created by X-TOOL on Mon Aug  2 16:14:56 2021
### 

@<TRIPOS>MOLECULE
6mln_ligand
   27    26     1     0     0
SMALL
GAST_HUCK


@<TRIPOS>ATOM
      1 N          -0.2950   -1.5260  -12.2410 N.4       1 ARG         0.2327
      2 CA         -0.1420   -2.2290  -10.9720 C.3       1 ARG         0.0284
      3 C          -0.7300   -1.3910   -9.8520 C.2       1 ARG         0.0844
      4 O          -1.1110   -0.2400  -10.0710 O.co2     1 ARG        -0.5643
      5 CB          1.3330   -2.5460  -10.6810 C.3       1 ARG         0.0055
      6 CG          2.2450   -1.3120  -10.7690 C.3       1 ARG        -0.0131
      7 CD          3.6190   -1.5800  -10.1610 C.3       1 ARG         0.0628
      8 NE          4.5680   -0.5150  -10.4930 N.pl3     1 ARG        -0.2723
      9 CZ          5.8420   -0.4880  -10.0990 C.cat     1 ARG         0.2882
     10 NH1         6.3400   -1.4630   -9.3490 N.pl3     1 ARG        -0.2849
     11 NH2         6.6280    0.5230  -10.4690 N.pl3     1 ARG        -0.2849
     12 OXT        -0.8490   -1.8610   -8.7220 O.co2     1 ARG        -0.5643
     13 H1          0.0961   -2.0842  -12.9836 H         1 ARG         0.2010
     14 H2          0.1871   -0.6419  -12.1956 H         1 ARG         0.2010
     15 H3         -1.2739   -1.3662  -12.4207 H         1 ARG         0.2010
     16 H4         -0.6951   -3.1780  -11.0303 H         1 ARG         0.1024
     17 H5          1.6814   -3.2912  -11.4113 H         1 ARG         0.0340
     18 H6          1.4074   -2.9643   -9.6664 H         1 ARG         0.0340
     19 H7          1.7718   -0.4798  -10.2272 H         1 ARG         0.0302
     20 H8          2.3709   -1.0366  -11.8265 H         1 ARG         0.0302
     21 H9          4.0023   -2.5348  -10.5501 H         1 ARG         0.0689
     22 H10         3.5202   -1.6429   -9.0673 H         1 ARG         0.0689
     23 H11         4.2281    0.2671  -11.0706 H         1 ARG         0.2642
     24 H12         7.3254   -1.4313   -9.0508 H         1 ARG         0.2615
     25 H13         5.7411   -2.2515   -9.0651 H         1 ARG         0.2615
     26 H14         6.2491    1.2836  -11.0511 H         1 ARG         0.2615
     27 H15         7.6143    0.5436  -10.1728 H         1 ARG         0.2615
@<TRIPOS>BOND
     1    1    2 1  
     2    2    3 1  
     3    2    5 1  
     4    3    4 ar 
     5    3   12 ar 
     6    5    6 1  
     7    6    7 1  
     8    7    8 1  
     9    8    9 ar 
    10    9   10 ar 
    11    9   11 ar 
    12    1   13 1  
    13    1   14 1  
    14    1   15 1  
    15    2   16 1  
    16    5   17 1  
    17    5   18 1  
    18    6   19 1  
    19    6   20 1  
    20    7   21 1  
    21    7   22 1  
    22    8   23 1  
    23   10   24 1  
    24   10   25 1  
    25   11   26 1  
    26   11   27 1  
@<TRIPOS>SUBSTRUCTURE
     1 ARG         1

