### 
### Created by X-TOOL on Mon Aug  2 16:14:56 2021
### 

@<TRIPOS>MOLECULE
6mlo_ligand
   27    26     1     0     0
SMALL
GAST_HUCK


@<TRIPOS>ATOM
      1 N           0.0660   -1.0570  -12.3440 N.4       1 ARG         0.2327
      2 CA          0.1690   -1.8510  -11.1200 C.3       1 ARG         0.0284
      3 C          -0.3190   -1.0420   -9.9260 C.2       1 ARG         0.0844
      4 O          -0.6060    0.1520  -10.0750 O.co2     1 ARG        -0.5643
      5 CB          1.6070   -2.3140  -10.8880 C.3       1 ARG         0.0055
      6 CG          2.6190   -1.1930  -11.0210 C.3       1 ARG        -0.0131
      7 CD          4.0330   -1.6170  -10.6390 C.3       1 ARG         0.0628
      8 NE          4.9800   -0.5160  -10.8220 N.pl3     1 ARG        -0.2723
      9 CZ          6.2810   -0.5670  -10.5380 C.cat     1 ARG         0.2882
     10 NH1         6.8280   -1.6790  -10.0680 N.pl3     1 ARG        -0.2849
     11 NH2         7.0410    0.5010  -10.7320 N.pl3     1 ARG        -0.2849
     12 OXT        -0.4070   -1.5600   -8.8020 O.co2     1 ARG        -0.5643
     13 H1          0.3915   -1.6024  -13.1267 H         1 ARG         0.2010
     14 H2          0.6310   -0.2271  -12.2547 H         1 ARG         0.2010
     15 H3         -0.8955   -0.7944  -12.4942 H         1 ARG         0.2010
     16 H4         -0.4702   -2.7398  -11.2269 H         1 ARG         0.1024
     17 H5          1.8479   -3.0930  -11.6263 H         1 ARG         0.0340
     18 H6          1.6807   -2.7342   -9.8741 H         1 ARG         0.0340
     19 H7          2.3125   -0.3647  -10.3653 H         1 ARG         0.0302
     20 H8          2.6265   -0.8499  -12.0661 H         1 ARG         0.0302
     21 H9          4.3382   -2.4626  -11.2728 H         1 ARG         0.0689
     22 H10         4.0424   -1.9275   -9.5838 H         1 ARG         0.0689
     23 H11         4.6116    0.3683  -11.2003 H         1 ARG         0.2642
     24 H12         7.8348   -1.7064   -9.8521 H         1 ARG         0.2615
     25 H13         6.2463   -2.5158   -9.9186 H         1 ARG         0.2615
     26 H14         6.6250    1.3697  -11.0969 H         1 ARG         0.2615
     27 H15         8.0478    0.4624  -10.5179 H         1 ARG         0.2615
@<TRIPOS>BOND
     1    1    2 1  
     2    2    3 1  
     3    2    5 1  
     4    3    4 ar 
     5    3   12 ar 
     6    5    6 1  
     7    6    7 1  
     8    7    8 1  
     9    8    9 ar 
    10    9   10 ar 
    11    9   11 ar 
    12    1   13 1  
    13    1   14 1  
    14    1   15 1  
    15    2   16 1  
    16    5   17 1  
    17    5   18 1  
    18    6   19 1  
    19    6   20 1  
    20    7   21 1  
    21    7   22 1  
    22    8   23 1  
    23   10   24 1  
    24   10   25 1  
    25   11   26 1  
    26   11   27 1  
@<TRIPOS>SUBSTRUCTURE
     1 ARG         1

