### 
### Created by X-TOOL on Mon Aug  2 16:14:56 2021
### 

@<TRIPOS>MOLECULE
6mlp_ligand
   20    20     1     0     0
SMALL
GAST_HUCK


@<TRIPOS>ATOM
      1 N          13.7260    1.1710  -12.3460 N.4       1 HIS         0.2337
      2 CA         13.7950    2.0290  -11.1600 C.3       1 HIS         0.0342
      3 C          14.2400    1.2270   -9.9510 C.2       1 HIS         0.0860
      4 O          14.5010    0.0180  -10.1020 O.co2     1 HIS        -0.5642
      5 CB         12.4780    2.8120  -10.9100 C.3       1 HIS         0.0292
      6 CG         11.2440    1.9700  -10.7680 C.2       1 HIS        -0.0001
      7 ND1         9.9870    2.5330  -10.6560 N.2       1 HIS        -0.3251
      8 CD2        11.0590    0.6290  -10.7200 C.2       1 HIS         0.0292
      9 CE1         9.0820    1.5760  -10.5490 C.2       1 HIS         0.0907
     10 NE2         9.7040    0.4110  -10.5900 N.pl3     1 HIS        -0.2752
     11 OXT        14.3930    1.7670   -8.8480 O.co2     1 HIS        -0.5642
     12 H1         13.4295    1.7176  -13.1393 H         1 HIS         0.2011
     13 H2         13.0652    0.4272  -12.1846 H         1 HIS         0.2011
     14 H3         14.6359    0.7781  -12.5299 H         1 HIS         0.2011
     15 H4         14.5748    2.7808  -11.3517 H         1 HIS         0.1042
     16 H5         12.3251    3.4975  -11.7566 H         1 HIS         0.0446
     17 H6         12.5998    3.3938   -9.9844 H         1 HIS         0.0446
     18 H7         11.8347   -0.1334  -10.7740 H         1 HIS         0.0729
     19 H8          8.0079    1.7224  -10.4449 H         1 HIS         0.1199
     20 H9          9.2496   -0.5116  -10.5339 H         1 HIS         0.2361
@<TRIPOS>BOND
     1    1    2 1  
     2    2    3 1  
     3    2    5 1  
     4    3    4 ar 
     5    3   11 ar 
     6    5    6 1  
     7    6    7 1  
     8    6    8 2  
     9    7    9 2  
    10    8   10 1  
    11    9   10 1  
    12    1   12 1  
    13    1   13 1  
    14    1   14 1  
    15    2   15 1  
    16    5   16 1  
    17    5   17 1  
    18    8   18 1  
    19    9   19 1  
    20   10   20 1  
@<TRIPOS>SUBSTRUCTURE
     1 HIS         1

