### 
### Created by X-TOOL on Mon Aug  2 16:14:57 2021
### 

@<TRIPOS>MOLECULE
6mnc_ligand
   42    45     1     0     0
SMALL
GAST_HUCK


@<TRIPOS>ATOM
      1 C2         22.7240   -4.3490  -29.8300 C.3       1 J3Z        -0.0119
      2 C4         23.1790   -2.5750  -31.6890 C.3       1 J3Z        -0.0408
      3 C5         24.2900   -2.0080  -30.8090 C.3       1 J3Z         0.0352
      4 C6         23.7460   -0.8240  -29.9980 C.3       1 J3Z        -0.0545
      5 O1         25.5520   -0.9100  -32.5350 O.2       1 J3Z        -0.3322
      6 O3         19.2390   -7.2200  -26.3080 O.3       1 J3Z        -0.3393
      7 C7         25.5560   -1.5480  -31.5010 C.2       1 J3Z         0.1328
      8 C8         26.8180   -1.9180  -30.7360 C.3       1 J3Z         0.0229
      9 C9         26.2460   -2.5820  -29.4920 C.3       1 J3Z        -0.0350
     10 C10        24.8980   -3.1300  -29.9700 C.3       1 J3Z        -0.0241
     11 C12        23.8710   -3.7220  -28.9920 C.3       1 J3Z        -0.0269
     12 C3         22.1270   -3.3790  -30.8820 C.3       1 J3Z        -0.0432
     13 C14        24.5000   -4.6420  -27.9230 C.3       1 J3Z        -0.0398
     14 C15        23.7570   -5.9660  -27.8060 C.3       1 J3Z        -0.0236
     15 C16        22.2490   -5.8680  -27.8720 C.ar      1 J3Z        -0.0491
     16 C21        21.6900   -5.0120  -28.9450 C.ar      1 J3Z        -0.0484
     17 C17        21.4160   -6.5960  -27.0270 C.ar      1 J3Z        -0.0385
     18 C18        20.0260   -6.5090  -27.1760 C.ar      1 J3Z         0.0739
     19 C19        19.4600   -5.6990  -28.1840 C.ar      1 J3Z        -0.0468
     20 C20        20.2780   -4.9650  -29.0680 C.ar      1 J3Z        -0.0749
     21 H1         23.1850   -5.1614  -30.4109 H         1 J3Z         0.0429
     22 H2         23.6300   -3.2404  -32.4399 H         1 J3Z         0.0256
     23 H3         22.6714   -1.7410  -32.1957 H         1 J3Z         0.0256
     24 H4         24.5465   -0.4153  -29.3638 H         1 J3Z         0.0219
     25 H5         22.9142   -1.1650  -29.3642 H         1 J3Z         0.0219
     26 H6         23.3875   -0.0430  -30.6847 H         1 J3Z         0.0219
     27 H7         18.3244   -7.0729  -26.5186 H         1 J3Z         0.2457
     28 H8         27.4063   -1.0250  -30.4784 H         1 J3Z         0.0487
     29 H9         27.4441   -2.6165  -31.3105 H         1 J3Z         0.0487
     30 H10        26.1085   -1.8497  -28.6828 H         1 J3Z         0.0291
     31 H11        26.9001   -3.3949  -29.1436 H         1 J3Z         0.0291
     32 H12        25.1405   -3.9614  -30.6482 H         1 J3Z         0.0296
     33 H13        23.4315   -2.8808  -28.4359 H         1 J3Z         0.0324
     34 H14        21.4760   -2.6634  -30.3585 H         1 J3Z         0.0285
     35 H15        21.5278   -3.9687  -31.5914 H         1 J3Z         0.0285
     36 H16        24.4693   -4.1297  -26.9501 H         1 J3Z         0.0290
     37 H17        25.5457   -4.8440  -28.1982 H         1 J3Z         0.0290
     38 H18        24.0261   -6.4229  -26.8423 H         1 J3Z         0.0410
     39 H19        24.0916   -6.6174  -28.6268 H         1 J3Z         0.0410
     40 H20        21.8417   -7.2282  -26.2562 H         1 J3Z         0.0462
     41 H21        18.3819   -5.6403  -28.2800 H         1 J3Z         0.0468
     42 H22        19.8247   -4.3614  -29.8460 H         1 J3Z         0.0511
@<TRIPOS>BOND
     1    1   11 1  
     2    1   12 1  
     3   16    1 1  
     4    2    3 1  
     5   12    2 1  
     6    3    4 1  
     7    3    7 1  
     8   10    3 1  
     9    7    5 2  
    10   18    6 1  
    11    7    8 1  
    12    9    8 1  
    13   10    9 1  
    14   11   10 1  
    15   13   11 1  
    16   14   13 1  
    17   15   14 1  
    18   15   16 ar 
    19   17   15 ar 
    20   16   20 ar 
    21   17   18 ar 
    22   18   19 ar 
    23   19   20 ar 
    24    1   21 1  
    25    2   22 1  
    26    2   23 1  
    27    4   24 1  
    28    4   25 1  
    29    4   26 1  
    30    6   27 1  
    31    8   28 1  
    32    8   29 1  
    33    9   30 1  
    34    9   31 1  
    35   10   32 1  
    36   11   33 1  
    37   12   34 1  
    38   12   35 1  
    39   13   36 1  
    40   13   37 1  
    41   14   38 1  
    42   14   39 1  
    43   17   40 1  
    44   19   41 1  
    45   20   42 1  
@<TRIPOS>SUBSTRUCTURE
     1 J3Z         1

