### 
### Created by X-TOOL on Mon Aug  2 16:17:11 2021
### 

@<TRIPOS>MOLECULE
6mnp_ligand
   32    35     1     0     0
SMALL
GAST_HUCK


@<TRIPOS>ATOM
      1 O20        29.8460   26.9850    8.3900 O.2       1 MOL        -0.4052
      2 C12        28.6220   26.8290    8.2840 C.2       1 MOL         0.2165
      3 N7         28.0940   26.1460    7.2100 N.am      1 MOL        -0.1705
      4 C6         29.0280   25.6300    6.2260 C.3       1 MOL         0.1562
      5 C3         29.2520   24.1390    6.4600 C.2       1 MOL         0.1955
      6 N2         28.3420   23.1630    6.3000 N.pl3     1 MOL        -0.1488
      7 N4         30.4270   23.6270    6.8720 N.2       1 MOL        -0.2200
      8 N5         30.2420   22.2870    6.9680 N.2       1 MOL        -0.1531
      9 N1         28.9820   22.0130    6.6220 N.2       1 MOL        -0.0729
     10 C11        27.7220   27.3330    9.2440 C.2       1 MOL         0.0421
     11 C13        27.9800   28.0680   10.4390 C.2       1 MOL        -0.0531
     12 C16        29.3170   28.5380   11.0580 C.3       1 MOL        -0.0378
     13 C17        29.1580   29.6290   12.0670 C.3       1 MOL        -0.0470
     14 C18        28.0570   29.3290   13.0790 C.3       1 MOL        -0.0436
     15 C19        26.7200   29.1610   12.4310 C.3       1 MOL        -0.0175
     16 C14        26.7310   28.3910   11.1420 C.2       1 MOL         0.0045
     17 S15        25.4830   27.7120   10.1630 S.3       1 MOL        -0.0355
     18 C10        26.3120   27.0750    8.9900 C.2       1 MOL         0.0763
     19 N9         25.8830   26.4000    7.9150 N.2       1 MOL        -0.2834
     20 C8         26.7620   25.9570    7.0620 C.2       1 MOL         0.1316
     21 H1         29.9863   26.1622    6.3175 H         1 MOL         0.0907
     22 H2         28.6179   25.7839    5.2170 H         1 MOL         0.0907
     23 H3         27.3633   23.2674    5.9963 H         1 MOL         0.2710
     24 H4         29.9652   28.9047   10.2485 H         1 MOL         0.0351
     25 H5         29.7947   27.6773   11.5488 H         1 MOL         0.0351
     26 H6         28.9098   30.5629   11.5414 H         1 MOL         0.0281
     27 H7         30.1089   29.7531   12.6059 H         1 MOL         0.0281
     28 H8         28.0001   30.1607   13.7966 H         1 MOL         0.0287
     29 H9         28.3104   28.4010   13.6125 H         1 MOL         0.0287
     30 H10        26.3117   30.1618   12.2269 H         1 MOL         0.0408
     31 H11        26.0623   28.6337   13.1376 H         1 MOL         0.0408
     32 H12        26.4089   25.4093    6.1895 H         1 MOL         0.1479
@<TRIPOS>BOND
     1    1    2 2  
     2    2    3 am 
     3    2   10 1  
     4    3    4 1  
     5    3   20 1  
     6    4    5 1  
     7    5    6 1  
     8    5    7 2  
     9    6    9 1  
    10    7    8 1  
    11    8    9 2  
    12   10   11 1  
    13   10   18 2  
    14   11   12 1  
    15   11   16 2  
    16   12   13 1  
    17   13   14 1  
    18   14   15 1  
    19   15   16 1  
    20   16   17 1  
    21   17   18 1  
    22   18   19 1  
    23   19   20 2  
    24    4   21 1  
    25    4   22 1  
    26    6   23 1  
    27   12   24 1  
    28   12   25 1  
    29   13   26 1  
    30   13   27 1  
    31   14   28 1  
    32   14   29 1  
    33   15   30 1  
    34   15   31 1  
    35   20   32 1  
@<TRIPOS>SUBSTRUCTURE
     1 MOL         1

