### 
### Created by X-TOOL on Mon Aug  2 16:14:57 2021
### 

@<TRIPOS>MOLECULE
6mo0_ligand
   63    67     1     0     0
SMALL
GAST_HUCK


@<TRIPOS>ATOM
      1 N1          7.0120  -60.8150    9.3110 N.4       1 JVJ         0.2312
      2 C2          7.9870  -61.7640    8.7180 C.3       1 JVJ        -0.0007
      3 C3          7.7750  -61.9860    7.2250 C.ar      1 JVJ         0.0032
      4 C33         8.8060  -62.6500    6.5340 C.ar      1 JVJ        -0.0529
      5 C32         8.6860  -62.7980    5.1410 C.ar      1 JVJ        -0.0577
      6 C6          7.4910  -62.3040    4.5110 C.ar      1 JVJ        -0.0065
      7 C5          6.4100  -61.7220    5.1610 C.ar      1 JVJ        -0.0577
      8 C4          6.5790  -61.5380    6.5760 C.ar      1 JVJ        -0.0529
      9 C7          7.4050  -62.4910    3.0760 C.ar      1 JVJ         0.0711
     10 C20         8.3430  -61.9840    2.1630 C.ar      1 JVJ         0.0718
     11 C21         9.4300  -61.0010    2.5800 C.ar      1 JVJ        -0.0010
     12 C31         9.2980  -60.2220    3.7810 C.ar      1 JVJ        -0.0537
     13 C30        10.3420  -59.2490    4.0590 C.ar      1 JVJ        -0.0581
     14 C24        11.4800  -59.1120    3.1050 C.ar      1 JVJ        -0.0345
     15 C25        12.5010  -58.0800    3.4340 C.2       1 JVJ        -0.0159
     16 C29        13.0660  -57.1920    2.4660 C.2       1 JVJ         0.0941
     17 O28        13.9660  -56.3420    3.1650 O.3       1 JVJ        -0.2636
     18 C27        13.8580  -56.7130    4.5410 C.2       1 JVJ         0.0811
     19 C26        12.9790  -57.7920    4.7170 C.2       1 JVJ        -0.0563
     20 C23        11.5760  -59.8380    1.9020 C.ar      1 JVJ        -0.0581
     21 C22        10.5360  -60.7600    1.6550 C.ar      1 JVJ        -0.0537
     22 N19         8.1680  -62.2790    0.7760 N.ar      1 JVJ        -0.2488
     23 C10         7.1840  -63.1350    0.3590 C.ar      1 JVJ         0.1907
     24 C9          6.3660  -63.7140    1.3730 C.ar      1 JVJ         0.0664
     25 N8          6.4660  -63.3490    2.6750 N.ar      1 JVJ        -0.2805
     26 O11         6.9480  -63.4560   -1.0190 O.3       1 JVJ        -0.2921
     27 C12         7.9070  -63.0600   -2.0610 C.3       1 JVJ         0.0789
     28 C13         7.2350  -62.0260   -2.9870 C.3       1 JVJ        -0.0029
     29 C18         8.2990  -61.1020   -3.6570 C.3       1 JVJ        -0.0071
     30 C17         7.6000  -60.0850   -4.5890 C.3       1 JVJ        -0.0333
     31 N16         6.6840  -60.8490   -5.5570 N.4       1 JVJ         0.2270
     32 C15         5.6880  -61.8100   -4.9920 C.3       1 JVJ        -0.0333
     33 C14         6.3530  -62.8000   -3.9900 C.3       1 JVJ        -0.0071
     34 H1          7.2020  -60.7094   10.2953 H         1 JVJ         0.2008
     35 H2          6.0774  -61.1712    9.1855 H         1 JVJ         0.2008
     36 H3          7.0945  -59.9198    8.8550 H         1 JVJ         0.2008
     37 H4          7.8909  -62.7314    9.2326 H         1 JVJ         0.0985
     38 H5          9.0008  -61.3658    8.8719 H         1 JVJ         0.0985
     39 H6          9.6699  -63.0371    7.0621 H         1 JVJ         0.0565
     40 H7          9.4699  -63.2699    4.5597 H         1 JVJ         0.0617
     41 H8          5.5062  -61.4285    4.6395 H         1 JVJ         0.0617
     42 H9          5.7982  -61.0581    7.1549 H         1 JVJ         0.0565
     43 H10         8.4560  -60.3544    4.4508 H         1 JVJ         0.0635
     44 H11        10.2938  -58.6311    4.9483 H         1 JVJ         0.0588
     45 H12        12.8488  -57.1709    1.3991 H         1 JVJ         0.1032
     46 H13        14.3917  -56.2195    5.3519 H         1 JVJ         0.0970
     47 H14        12.7244  -58.2954    5.6485 H         1 JVJ         0.0338
     48 H15        12.3975  -59.6975    1.2088 H         1 JVJ         0.0588
     49 H16        10.5588  -61.3207    0.7275 H         1 JVJ         0.0635
     50 H17         5.6410  -64.4701    1.0942 H         1 JVJ         0.0837
     51 H18         8.2029  -63.9432   -2.6462 H         1 JVJ         0.0625
     52 H19         8.7976  -62.6143   -1.5939 H         1 JVJ         0.0625
     53 H20         6.5783  -61.3850   -2.3805 H         1 JVJ         0.0331
     54 H21         8.9969  -61.7160   -4.2451 H         1 JVJ         0.0320
     55 H22         8.8546  -60.5603   -2.8773 H         1 JVJ         0.0320
     56 H23         8.3562  -59.5257   -5.1594 H         1 JVJ         0.0814
     57 H24         7.0011  -59.3843   -3.9887 H         1 JVJ         0.0814
     58 H25         7.2798  -61.3710   -6.1803 H         1 JVJ         0.2013
     59 H26         6.1679  -60.1612   -6.0829 H         1 JVJ         0.2013
     60 H27         5.2382  -62.3838   -5.8157 H         1 JVJ         0.0814
     61 H28         4.9035  -61.2445   -4.4678 H         1 JVJ         0.0814
     62 H29         5.5696  -63.3438   -3.4417 H         1 JVJ         0.0320
     63 H30         6.9762  -63.5162   -4.5455 H         1 JVJ         0.0320
@<TRIPOS>BOND
     1    1    2 1  
     2    2    3 1  
     3    3    4 ar 
     4    3    8 ar 
     5    4    5 ar 
     6    5    6 ar 
     7    6    7 ar 
     8    6    9 1  
     9    7    8 ar 
    10    9   10 ar 
    11    9   25 ar 
    12   10   11 1  
    13   10   22 ar 
    14   11   12 ar 
    15   11   21 ar 
    16   12   13 ar 
    17   13   14 ar 
    18   14   15 1  
    19   14   20 ar 
    20   15   16 2  
    21   15   19 1  
    22   16   17 1  
    23   17   18 1  
    24   18   19 2  
    25   20   21 ar 
    26   22   23 ar 
    27   23   24 ar 
    28   23   26 1  
    29   24   25 ar 
    30   26   27 1  
    31   27   28 1  
    32   28   29 1  
    33   28   33 1  
    34   29   30 1  
    35   30   31 1  
    36   31   32 1  
    37   32   33 1  
    38    1   34 1  
    39    1   35 1  
    40    1   36 1  
    41    2   37 1  
    42    2   38 1  
    43    4   39 1  
    44    5   40 1  
    45    7   41 1  
    46    8   42 1  
    47   12   43 1  
    48   13   44 1  
    49   16   45 1  
    50   18   46 1  
    51   19   47 1  
    52   20   48 1  
    53   21   49 1  
    54   24   50 1  
    55   27   51 1  
    56   27   52 1  
    57   28   53 1  
    58   29   54 1  
    59   29   55 1  
    60   30   56 1  
    61   30   57 1  
    62   31   58 1  
    63   31   59 1  
    64   32   60 1  
    65   32   61 1  
    66   33   62 1  
    67   33   63 1  
@<TRIPOS>SUBSTRUCTURE
     1 JVJ         1

