### 
### Created by X-TOOL on Mon Aug  2 16:14:57 2021
### 

@<TRIPOS>MOLECULE
6mo1_ligand
   64    68     1     0     0
SMALL
GAST_HUCK


@<TRIPOS>ATOM
      1 N1        -55.8260   25.2700    9.0020 N.4       1 I16         0.2312
      2 C2        -57.0580   24.4180    8.7160 C.3       1 I16        -0.0009
      3 C3        -57.2690   24.5810    7.1980 C.ar      1 I16         0.0029
      4 C8        -58.3680   23.8710    6.5590 C.ar      1 I16        -0.0532
      5 C7        -58.5660   23.9610    5.1460 C.ar      1 I16        -0.0582
      6 C6        -57.6590   24.8280    4.4370 C.ar      1 I16        -0.0080
      7 C5        -56.6210   25.6040    5.0450 C.ar      1 I16        -0.0582
      8 C4        -56.3830   25.4940    6.4880 C.ar      1 I16        -0.0532
      9 C9        -57.9130   24.9960    2.9940 C.ar      1 I16         0.0687
     10 N22       -58.0610   26.3590    2.6240 N.ar      1 I16        -0.2837
     11 C21       -58.3930   26.7580    1.2880 C.ar      1 I16         0.0549
     12 C12       -58.5320   25.7320    0.3070 C.ar      1 I16         0.1372
     13 N13       -58.7800   26.1380   -1.0050 N.pl3     1 I16        -0.3021
     14 C14       -58.8670   25.0170   -2.0060 C.3       1 I16         0.0314
     15 C15       -57.5840   25.1010   -2.8940 C.3       1 I16        -0.0112
     16 C20       -57.0510   23.6360   -3.2650 C.3       1 I16        -0.0077
     17 C19       -55.8130   23.8050   -4.2400 C.3       1 I16        -0.0334
     18 N18       -56.3030   24.6270   -5.4830 N.4       1 I16         0.2270
     19 C17       -56.8630   26.0190   -5.1320 C.3       1 I16        -0.0334
     20 C16       -58.0570   25.8830   -4.1310 C.3       1 I16        -0.0077
     21 N11       -58.3700   24.3640    0.6420 N.ar      1 I16        -0.2605
     22 C10       -58.1270   23.9370    2.0360 C.ar      1 I16         0.0679
     23 C23       -57.8460   22.4340    2.3910 C.ar      1 I16        -0.0017
     24 C28       -57.1600   22.0500    3.6090 C.ar      1 I16        -0.0538
     25 C27       -56.8090   20.6170    3.8470 C.ar      1 I16        -0.0581
     26 C26       -57.1620   19.5670    2.8830 C.ar      1 I16        -0.0345
     27 C25       -57.7630   19.9390    1.6240 C.ar      1 I16        -0.0581
     28 C24       -58.0590   21.3480    1.3970 C.ar      1 I16        -0.0538
     29 C29       -56.7430   18.1720    3.2880 C.2       1 I16        -0.0158
     30 C33       -56.6430   17.6860    4.6720 C.2       1 I16        -0.0563
     31 C32       -56.1700   16.3130    4.5590 C.2       1 I16         0.0811
     32 O31       -55.9480   15.8970    3.1370 O.3       1 I16        -0.2636
     33 C30       -56.2910   17.1070    2.3470 C.2       1 I16         0.0941
     34 H1        -55.6073   25.2252    9.9850 H         1 I16         0.2008
     35 H2        -56.0110   26.2262    8.7422 H         1 I16         0.2008
     36 H3        -55.0453   24.9218    8.4679 H         1 I16         0.2008
     37 H4        -57.9298   24.7883    9.2754 H         1 I16         0.0984
     38 H5        -56.8758   23.3648    8.9760 H         1 I16         0.0984
     39 H6        -59.0411   23.2696    7.1592 H         1 I16         0.0564
     40 H7        -59.3503   23.4108    4.6389 H         1 I16         0.0614
     41 H8        -56.0140   26.2695    4.4419 H         1 I16         0.0614
     42 H9        -55.6024   26.0530    6.9912 H         1 I16         0.0564
     43 H10       -58.5334   27.8020    1.0323 H         1 I16         0.0812
     44 H11       -58.8946   27.1273   -1.2679 H         1 I16         0.1827
     45 H12       -59.7662   25.1346   -2.6285 H         1 I16         0.0523
     46 H13       -58.9047   24.0481   -1.4866 H         1 I16         0.0523
     47 H14       -56.7856   25.6511   -2.3744 H         1 I16         0.0324
     48 H15       -57.8462   23.0638   -3.7653 H         1 I16         0.0320
     49 H16       -56.7389   23.1086   -2.3515 H         1 I16         0.0320
     50 H17       -55.4503   22.8176   -4.5616 H         1 I16         0.0814
     51 H18       -55.0025   24.3446   -3.7283 H         1 I16         0.0814
     52 H19       -57.0280   24.1010   -5.9452 H         1 I16         0.2013
     53 H20       -55.5235   24.7479   -6.1105 H         1 I16         0.2013
     54 H21       -57.2133   26.5122   -6.0507 H         1 I16         0.0814
     55 H22       -56.0690   26.6245   -4.6706 H         1 I16         0.0814
     56 H23       -58.3994   26.8831   -3.8268 H         1 I16         0.0320
     57 H24       -58.8846   25.3434   -4.6147 H         1 I16         0.0320
     58 H25       -56.9019   22.8015    4.3464 H         1 I16         0.0636
     59 H26       -56.2806   20.3459    4.7539 H         1 I16         0.0588
     60 H27       -57.9873   19.1929    0.8703 H         1 I16         0.0588
     61 H28       -58.4650   21.6254    0.4309 H         1 I16         0.0636
     62 H29       -56.8729   18.2341    5.5845 H         1 I16         0.0338
     63 H30       -55.9969   15.6609    5.4138 H         1 I16         0.0970
     64 H31       -56.2238   17.2006    1.2641 H         1 I16         0.1032
@<TRIPOS>BOND
     1    1    2 1  
     2    2    3 1  
     3    3    4 ar 
     4    3    8 ar 
     5    4    5 ar 
     6    5    6 ar 
     7    6    7 ar 
     8    6    9 1  
     9    7    8 ar 
    10    9   10 ar 
    11    9   22 ar 
    12   10   11 ar 
    13   11   12 ar 
    14   12   13 1  
    15   12   21 ar 
    16   13   14 1  
    17   14   15 1  
    18   15   16 1  
    19   15   20 1  
    20   16   17 1  
    21   17   18 1  
    22   18   19 1  
    23   19   20 1  
    24   21   22 ar 
    25   22   23 1  
    26   23   24 ar 
    27   23   28 ar 
    28   24   25 ar 
    29   25   26 ar 
    30   26   27 ar 
    31   26   29 1  
    32   27   28 ar 
    33   29   30 1  
    34   29   33 2  
    35   30   31 2  
    36   31   32 1  
    37   32   33 1  
    38    1   34 1  
    39    1   35 1  
    40    1   36 1  
    41    2   37 1  
    42    2   38 1  
    43    4   39 1  
    44    5   40 1  
    45    7   41 1  
    46    8   42 1  
    47   11   43 1  
    48   13   44 1  
    49   14   45 1  
    50   14   46 1  
    51   15   47 1  
    52   16   48 1  
    53   16   49 1  
    54   17   50 1  
    55   17   51 1  
    56   18   52 1  
    57   18   53 1  
    58   19   54 1  
    59   19   55 1  
    60   20   56 1  
    61   20   57 1  
    62   24   58 1  
    63   25   59 1  
    64   27   60 1  
    65   28   61 1  
    66   30   62 1  
    67   31   63 1  
    68   33   64 1  
@<TRIPOS>SUBSTRUCTURE
     1 I16         1

