### 
### Created by X-TOOL on Mon Aug  2 16:14:58 2021
### 

@<TRIPOS>MOLECULE
6mo2_ligand
   63    67     1     0     0
SMALL
GAST_HUCK


@<TRIPOS>ATOM
      1 N1        -56.1450   24.5070    9.2000 N.4       1 JVM         0.2312
      2 C2        -57.4140   23.9620    8.6600 C.3       1 JVM        -0.0007
      3 C3        -57.5040   24.2340    7.1490 C.ar      1 JVM         0.0032
      4 C8        -58.5030   23.5540    6.4040 C.ar      1 JVM        -0.0529
      5 C7        -58.5910   23.6910    5.0100 C.ar      1 JVM        -0.0577
      6 C6        -57.6930   24.6230    4.3980 C.ar      1 JVM        -0.0066
      7 C5        -56.7060   25.3920    5.1030 C.ar      1 JVM        -0.0577
      8 C4        -56.5980   25.2020    6.5630 C.ar      1 JVM        -0.0529
      9 C9        -57.8630   24.8420    2.9240 C.ar      1 JVM         0.0710
     10 N22       -58.0350   26.1550    2.5150 N.ar      1 JVM        -0.2806
     11 C21       -58.2010   26.5380    1.1610 C.ar      1 JVM         0.0663
     12 C12       -58.1850   25.5690    0.1880 C.ar      1 JVM         0.1905
     13 O13       -58.4180   25.9610   -1.1600 O.3       1 JVM        -0.2921
     14 C14       -58.6950   24.7540   -2.0500 C.3       1 JVM         0.0789
     15 C15       -57.4610   24.6890   -2.9790 C.3       1 JVM        -0.0029
     16 C20       -56.9500   23.2810   -3.4780 C.3       1 JVM        -0.0071
     17 C19       -55.9090   23.4070   -4.6150 C.3       1 JVM        -0.0333
     18 N18       -56.4450   24.4180   -5.6410 N.4       1 JVM         0.2270
     19 C17       -56.5850   25.7760   -5.0200 C.3       1 JVM        -0.0333
     20 C16       -57.8200   25.7060   -4.0780 C.3       1 JVM        -0.0071
     21 N11       -58.0150   24.2340    0.5610 N.ar      1 JVM        -0.2490
     22 C10       -57.9070   23.8030    1.9500 C.ar      1 JVM         0.0714
     23 C23       -57.6310   22.3050    2.3150 C.ar      1 JVM        -0.0015
     24 C28       -56.7910   21.9850    3.4210 C.ar      1 JVM        -0.0543
     25 C27       -56.4720   20.6060    3.6980 C.ar      1 JVM        -0.0587
     26 C26       -57.0080   19.5520    2.8400 C.ar      1 JVM        -0.0322
     27 C25       -57.7820   19.8520    1.6880 C.ar      1 JVM        -0.0587
     28 C24       -58.0790   21.2280    1.4280 C.ar      1 JVM        -0.0543
     29 C29       -56.5840   18.1320    3.2090 C.2       1 JVM         0.0037
     30 C33       -56.0080   17.2110    2.2650 C.2       1 JVM         0.0631
     31 N32       -55.7220   16.0160    3.0010 N.pl3     1 JVM        -0.2154
     32 N31       -56.0860   16.3040    4.4010 N.2       1 JVM        -0.2149
     33 C30       -56.6140   17.5890    4.5430 C.2       1 JVM         0.0071
     34 H1        -56.0951   24.3241   10.1900 H         1 JVM         0.2008
     35 H2        -56.1114   25.5016    9.0400 H         1 JVM         0.2008
     36 H3        -55.3659   24.0657    8.7371 H         1 JVM         0.2008
     37 H4        -58.2625   24.4439    9.1678 H         1 JVM         0.0985
     38 H5        -57.4488   22.8769    8.8372 H         1 JVM         0.0985
     39 H6        -59.2111   22.9170    6.9215 H         1 JVM         0.0565
     40 H7        -59.3033   23.1197    4.4259 H         1 JVM         0.0617
     41 H8        -56.0614   26.0892    4.5801 H         1 JVM         0.0617
     42 H9        -55.8829   25.7542    7.1619 H         1 JVM         0.0565
     43 H10       -58.3386   27.5803    0.8971 H         1 JVM         0.0836
     44 H11       -59.6166   24.9000   -2.6325 H         1 JVM         0.0625
     45 H12       -58.7821   23.8364   -1.4497 H         1 JVM         0.0625
     46 H13       -56.6129   25.1006   -2.4121 H         1 JVM         0.0331
     47 H14       -57.8097   22.7026   -3.8473 H         1 JVM         0.0320
     48 H15       -56.4880   22.7515   -2.6318 H         1 JVM         0.0320
     49 H16       -55.7622   22.4290   -5.0966 H         1 JVM         0.0814
     50 H17       -54.9514   23.7621   -4.2065 H         1 JVM         0.0814
     51 H18       -57.3465   24.1097   -5.9702 H         1 JVM         0.2013
     52 H19       -55.8046   24.4732   -6.4175 H         1 JVM         0.2013
     53 H20       -56.7443   26.5356   -5.7995 H         1 JVM         0.0814
     54 H21       -55.6816   26.0254   -4.4441 H         1 JVM         0.0814
     55 H22       -58.0186   26.6930   -3.6348 H         1 JVM         0.0320
     56 H23       -58.7066   25.3691   -4.6352 H         1 JVM         0.0320
     57 H24       -56.3942   22.7734    4.0503 H         1 JVM         0.0634
     58 H25       -55.8372   20.3526    4.5393 H         1 JVM         0.0582
     59 H26       -58.1353   19.0672    1.0290 H         1 JVM         0.0582
     60 H27       -58.6547   21.4818    0.5453 H         1 JVM         0.0634
     61 H28       -55.8264   17.3870    1.2058 H         1 JVM         0.1050
     62 H29       -55.3400   15.1350    2.6285 H         1 JVM         0.2604
     63 H30       -56.9675   18.0704    5.4536 H         1 JVM         0.0678
@<TRIPOS>BOND
     1    1    2 1  
     2    2    3 1  
     3    3    4 ar 
     4    3    8 ar 
     5    4    5 ar 
     6    5    6 ar 
     7    6    7 ar 
     8    6    9 1  
     9    7    8 ar 
    10    9   10 ar 
    11    9   22 ar 
    12   10   11 ar 
    13   11   12 ar 
    14   12   13 1  
    15   12   21 ar 
    16   13   14 1  
    17   14   15 1  
    18   15   16 1  
    19   15   20 1  
    20   16   17 1  
    21   17   18 1  
    22   18   19 1  
    23   19   20 1  
    24   21   22 ar 
    25   22   23 1  
    26   23   24 ar 
    27   23   28 ar 
    28   24   25 ar 
    29   25   26 ar 
    30   26   27 ar 
    31   26   29 1  
    32   27   28 ar 
    33   29   30 2  
    34   29   33 1  
    35   30   31 1  
    36   31   32 1  
    37   32   33 2  
    38    1   34 1  
    39    1   35 1  
    40    1   36 1  
    41    2   37 1  
    42    2   38 1  
    43    4   39 1  
    44    5   40 1  
    45    7   41 1  
    46    8   42 1  
    47   11   43 1  
    48   14   44 1  
    49   14   45 1  
    50   15   46 1  
    51   16   47 1  
    52   16   48 1  
    53   17   49 1  
    54   17   50 1  
    55   18   51 1  
    56   18   52 1  
    57   19   53 1  
    58   19   54 1  
    59   20   55 1  
    60   20   56 1  
    61   24   57 1  
    62   25   58 1  
    63   27   59 1  
    64   28   60 1  
    65   30   61 1  
    66   31   62 1  
    67   33   63 1  
@<TRIPOS>SUBSTRUCTURE
     1 JVM         1

