### 
### Created by X-TOOL on Mon Aug  2 16:14:58 2021
### 

@<TRIPOS>MOLECULE
6mo4_ligand
   50    50     1     0     0
SMALL
GAST_HUCK


@<TRIPOS>ATOM
      1 N         -11.8970  -16.1520  -24.6990 N.am      1 JWM        -0.2631
      2 C         -19.4360  -20.0220  -33.6290 C.3       1 JWM         0.0551
      3 O         -18.2010  -20.3080  -34.3120 O.3       1 JWM        -0.3941
      4 C1        -19.4020  -18.6160  -33.0360 C.3       1 JWM         0.0336
      5 C10       -14.0850  -17.0480  -26.3800 C.ar      1 JWM        -0.0413
      6 C11       -15.0800  -17.2850  -27.3170 C.ar      1 JWM        -0.0412
      7 C12       -11.6770  -17.0120  -25.6910 C.2       1 JWM         0.2067
      8 C13       -10.8170  -15.7080  -23.8320 C.3       1 JWM         0.1563
      9 C14       -10.4160  -14.2470  -24.0960 C.3       1 JWM         0.1215
     10 C15       -11.6410  -13.3540  -24.2670 C.3       1 JWM        -0.0359
     11 C16        -9.5750  -13.7210  -22.9340 C.3       1 JWM        -0.0359
     12 C17        -9.8850  -14.7180  -26.8530 C.3       1 JWM         0.0553
     13 C18       -11.2330  -15.9100  -22.3860 C.2       1 JWM         0.2266
     14 C2        -18.3490  -18.4680  -32.0130 C.1       1 JWM        -0.0852
     15 C3        -17.5600  -18.3790  -31.1390 C.1       1 JWM        -0.0130
     16 C4        -16.5930  -18.2520  -30.1640 C.1       1 JWM        -0.0074
     17 C5        -15.7110  -18.0110  -29.4090 C.1       1 JWM        -0.0492
     18 C6        -14.7420  -17.7410  -28.6010 C.ar      1 JWM         0.0297
     19 C7        -13.4190  -17.9560  -28.9260 C.ar      1 JWM        -0.0412
     20 C8        -12.4120  -17.7100  -27.9800 C.ar      1 JWM        -0.0413
     21 C9        -12.7500  -17.2590  -26.7060 C.ar      1 JWM         0.0494
     22 N1        -10.4370  -16.6540  -21.6080 N.am      1 JWM        -0.1623
     23 O1        -10.6120  -17.6110  -25.7930 O.2       1 JWM        -0.3849
     24 O2         -9.2240  -12.6490  -25.6250 O.2       1 JWM        -0.1739
     25 O3         -8.1210  -14.6650  -25.1220 O.2       1 JWM        -0.1739
     26 O4        -12.2840  -15.4260  -21.9800 O.2       1 JWM        -0.3943
     27 O5        -10.7230  -16.8030  -20.2370 O.3       1 JWM        -0.2717
     28 S          -9.3900  -14.0620  -25.4270 S.o2      1 JWM        -0.0244
     29 H1        -12.8224  -15.8047  -24.5471 H         1 JWM         0.1876
     30 H2        -19.5807  -20.7532  -32.8201 H         1 JWM         0.0566
     31 H3        -20.2701  -20.0945  -34.3424 H         1 JWM         0.0566
     32 H4        -18.2371  -21.1851  -34.6752 H         1 JWM         0.2094
     33 H5        -20.3772  -18.4027  -32.5740 H         1 JWM         0.0421
     34 H6        -19.2138  -17.8948  -33.8449 H         1 JWM         0.0421
     35 H7        -14.3495  -16.6967  -25.3892 H         1 JWM         0.0668
     36 H8        -16.1192  -17.1180  -27.0576 H         1 JWM         0.0639
     37 H9         -9.9371  -16.3374  -24.0311 H         1 JWM         0.0821
     38 H10       -12.3073  -13.4757  -23.4002 H         1 JWM         0.0253
     39 H11       -12.1771  -13.6387  -25.1843 H         1 JWM         0.0253
     40 H12       -11.3220  -12.3038  -24.3396 H         1 JWM         0.0253
     41 H13       -10.1525  -13.7945  -22.0007 H         1 JWM         0.0253
     42 H14        -9.3102  -12.6696  -23.1194 H         1 JWM         0.0253
     43 H15        -8.6568  -14.3202  -22.8452 H         1 JWM         0.0253
     44 H16        -9.1283  -14.5249  -27.6277 H         1 JWM         0.0464
     45 H17       -10.8410  -14.2642  -27.1531 H         1 JWM         0.0464
     46 H18       -10.0164  -15.8033  -26.7313 H         1 JWM         0.0464
     47 H19       -13.1564  -18.3158  -29.9143 H         1 JWM         0.0639
     48 H20       -11.3721  -17.8708  -28.2404 H         1 JWM         0.0668
     49 H21        -9.6364  -17.1056  -22.0018 H         1 JWM         0.2217
     50 H22       -10.0643  -17.3575  -19.8357 H         1 JWM         0.2490
@<TRIPOS>BOND
     1    7    1 am 
     2    1    8 1  
     3    2    3 1  
     4    4    2 1  
     5   14    4 1  
     6    6    5 ar 
     7    5   21 ar 
     8   18    6 ar 
     9   21    7 1  
    10    7   23 2  
    11    8    9 1  
    12    8   13 1  
    13    9   10 1  
    14    9   11 1  
    15    9   28 1  
    16   28   12 1  
    17   13   22 am 
    18   13   26 2  
    19   15   14 3  
    20   16   15 1  
    21   17   16 3  
    22   17   18 1  
    23   18   19 ar 
    24   19   20 ar 
    25   20   21 ar 
    26   22   27 1  
    27   28   24 2  
    28   28   25 2  
    29    1   29 1  
    30    2   30 1  
    31    2   31 1  
    32    3   32 1  
    33    4   33 1  
    34    4   34 1  
    35    5   35 1  
    36    6   36 1  
    37    8   37 1  
    38   10   38 1  
    39   10   39 1  
    40   10   40 1  
    41   11   41 1  
    42   11   42 1  
    43   11   43 1  
    44   12   44 1  
    45   12   45 1  
    46   12   46 1  
    47   19   47 1  
    48   20   48 1  
    49   22   49 1  
    50   27   50 1  
@<TRIPOS>SUBSTRUCTURE
     1 JWM         1

