### 
### Created by X-TOOL on Mon Aug  2 16:14:58 2021
### 

@<TRIPOS>MOLECULE
6mo5_ligand
   56    57     1     0     0
SMALL
GAST_HUCK


@<TRIPOS>ATOM
      1 C28       -10.7360  -14.1700  -27.0350 C.3       1 JWP         0.0736
      2 O31       -11.2500  -12.9770  -29.9640 O.3       1 JWP        -0.3790
      3 C30       -10.6610  -14.2480  -29.5410 C.3       1 JWP         0.0541
      4 C21       -11.2970  -15.6750  -22.2670 C.2       1 JWP         0.3146
      5 C18       -19.6940  -19.0980  -32.8890 C.3       1 JWP         0.0336
      6 C17       -18.6230  -18.8380  -31.8470 C.1       1 JWP        -0.0852
      7 C16       -17.7980  -18.6390  -31.0430 C.1       1 JWP        -0.0130
      8 C15       -16.7410  -18.4050  -29.9910 C.1       1 JWP        -0.0074
      9 C14       -15.8700  -18.1740  -29.2490 C.1       1 JWP        -0.0492
     10 C12       -13.4600  -18.2480  -28.6220 C.ar      1 JWP        -0.0412
     11 C11       -14.7410  -17.8580  -28.3040 C.ar      1 JWP         0.0297
     12 C01        -9.7810  -13.2770  -22.9200 C.3       1 JWP        -0.0358
     13 C02       -10.6910  -13.8090  -24.0300 C.3       1 JWP         0.1227
     14 C03       -11.9300  -12.8920  -24.1260 C.3       1 JWP        -0.0358
     15 C04       -11.0870  -15.2750  -23.7250 C.3       1 JWP         0.1689
     16 C06       -11.5610  -16.9650  -25.6200 C.2       1 JWP         0.2067
     17 C08       -12.6850  -17.3080  -26.5790 C.ar      1 JWP         0.0494
     18 C09       -13.9740  -16.9000  -26.2760 C.ar      1 JWP        -0.0413
     19 C10       -15.0100  -17.1770  -27.1350 C.ar      1 JWP        -0.0412
     20 C13       -12.4170  -17.9640  -27.7570 C.ar      1 JWP        -0.0413
     21 C19       -19.3590  -18.3110  -34.1530 C.3       1 JWP         0.0551
     22 C29       -10.1350  -13.6060  -28.3310 C.3       1 JWP         0.0252
     23 C32       -10.7190  -12.3350  -28.7590 C.3       1 JWP         0.0541
     24 N05       -11.9000  -15.9020  -24.7250 N.am      1 JWP        -0.2623
     25 N23       -10.3510  -16.4040  -21.4510 N.2       1 JWP         0.0375
     26 O07       -10.5090  -17.5020  -25.6370 O.2       1 JWP        -0.3849
     27 O20       -18.8140  -19.2260  -35.0620 O.3       1 JWP        -0.3941
     28 O22       -12.3390  -15.3340  -21.8110 O.2       1 JWP        -0.3256
     29 O24       -10.6710  -16.6230  -20.3150 O.2       1 JWP        -0.1732
     30 O26        -9.5220  -12.1330  -25.7740 O.2       1 JWP        -0.1736
     31 O27        -8.4470  -14.1160  -25.5130 O.2       1 JWP        -0.1736
     32 S25        -9.7970  -13.5580  -25.6050 S.o2      1 JWP        -0.0212
     33 H1        -10.6902  -15.2688  -27.0590 H         1 JWP         0.0504
     34 H2        -11.7844  -13.8485  -26.9483 H         1 JWP         0.0504
     35 H3         -9.8843  -14.6303  -30.2196 H         1 JWP         0.0564
     36 H4        -11.3981  -15.0404  -29.3440 H         1 JWP         0.0564
     37 H5        -20.6715  -18.7749  -32.5017 H         1 JWP         0.0421
     38 H6        -19.7288  -20.1725  -33.1220 H         1 JWP         0.0421
     39 H7        -13.2679  -18.7769  -29.5485 H         1 JWP         0.0639
     40 H8        -10.2765  -13.4059  -21.9464 H         1 JWP         0.0253
     41 H9         -9.5803  -12.2090  -23.0907 H         1 JWP         0.0253
     42 H10        -8.8324  -13.8338  -22.9251 H         1 JWP         0.0253
     43 H11       -12.5274  -12.9855  -23.2071 H         1 JWP         0.0253
     44 H12       -12.5400  -13.1892  -24.9918 H         1 JWP         0.0253
     45 H13       -11.6051  -11.8481  -24.2474 H         1 JWP         0.0253
     46 H14       -10.1271  -15.7777  -23.9143 H         1 JWP         0.0832
     47 H15       -14.1662  -16.3594  -25.3563 H         1 JWP         0.0668
     48 H16       -16.0210  -16.8658  -26.8982 H         1 JWP         0.0639
     49 H17       -11.4027  -18.2550  -28.0053 H         1 JWP         0.0668
     50 H18       -18.6281  -17.5210  -33.9256 H         1 JWP         0.0566
     51 H19       -20.2703  -17.8582  -34.5708 H         1 JWP         0.0566
     52 H20        -9.0374  -13.5979  -28.2595 H         1 JWP         0.0361
     53 H21       -11.4926  -11.9464  -28.0804 H         1 JWP         0.0564
     54 H22        -9.9784  -11.5470  -28.9605 H         1 JWP         0.0564
     55 H23       -12.8315  -15.5479  -24.8084 H         1 JWP         0.1877
     56 H24       -18.5901  -18.7751  -35.8677 H         1 JWP         0.2094
@<TRIPOS>BOND
     1    1   22 1  
     2   32    1 1  
     3    3    2 1  
     4    2   23 1  
     5   22    3 1  
     6   15    4 1  
     7    4   25 1  
     8    4   28 2  
     9    6    5 1  
    10    5   21 1  
    11    7    6 3  
    12    8    7 1  
    13    9    8 3  
    14   11    9 1  
    15   10   11 ar 
    16   20   10 ar 
    17   11   19 ar 
    18   13   12 1  
    19   13   14 1  
    20   15   13 1  
    21   13   32 1  
    22   24   15 1  
    23   17   16 1  
    24   16   24 am 
    25   16   26 2  
    26   17   18 ar 
    27   17   20 ar 
    28   18   19 ar 
    29   21   27 1  
    30   22   23 1  
    31   25   29 2  
    32   32   30 2  
    33   32   31 2  
    34    1   33 1  
    35    1   34 1  
    36    3   35 1  
    37    3   36 1  
    38    5   37 1  
    39    5   38 1  
    40   10   39 1  
    41   12   40 1  
    42   12   41 1  
    43   12   42 1  
    44   14   43 1  
    45   14   44 1  
    46   14   45 1  
    47   15   46 1  
    48   18   47 1  
    49   19   48 1  
    50   20   49 1  
    51   21   50 1  
    52   21   51 1  
    53   22   52 1  
    54   23   53 1  
    55   23   54 1  
    56   24   55 1  
    57   27   56 1  
@<TRIPOS>SUBSTRUCTURE
     1 JWP         1

