### 
### Created by X-TOOL on Mon Aug  2 16:14:58 2021
### 

@<TRIPOS>MOLECULE
6mo7_ligand
   52    54     1     0     0
SMALL
GAST_HUCK


@<TRIPOS>ATOM
      1 C01        31.8200   11.0630   78.9560 C.ar      1 JWA        -0.0445
      2 C02        32.3810   10.0800   78.1410 C.ar      1 JWA        -0.0437
      3 C03        33.7600    9.8530   78.1650 C.ar      1 JWA        -0.0710
      4 C04        34.5700   10.6260   79.0010 C.ar      1 JWA        -0.0652
      5 C05        34.0250   11.6180   79.8380 C.ar      1 JWA        -0.0256
      6 C06        32.6300   11.8270   79.8040 C.ar      1 JWA         0.1028
      7 C07        31.5060    9.3120   77.2860 C.2       1 JWA         0.0187
      8 S08        31.7870   13.0340   80.8210 S.o2      1 JWA         0.0646
      9 O09        32.1590   12.7340   82.1880 O.2       1 JWA        -0.1514
     10 O10        30.3880   13.0180   80.4290 O.2       1 JWA        -0.1514
     11 C11        34.9840   12.3890   80.7050 C.3       1 JWA        -0.0321
     12 N12        32.4650   14.4980   80.3110 N.am      1 JWA        -0.2453
     13 C13        31.9320   15.1900   79.1230 C.3       1 JWA         0.0377
     14 C14        31.1970   16.4420   79.5970 C.3       1 JWA        -0.0333
     15 C15        32.3530   17.3570   79.9870 C.3       1 JWA        -0.0513
     16 C16        33.4440   17.0830   78.9580 C.3       1 JWA        -0.0513
     17 C17        33.0910   15.7480   78.3060 C.3       1 JWA        -0.0333
     18 C18        31.6480    9.1860   75.9250 C.2       1 JWA         0.1693
     19 O19        30.6390    8.3980   75.4520 O.3       1 JWA        -0.1726
     20 N20        29.8200    8.0030   76.5200 N.2       1 JWA        -0.1680
     21 C21        30.3510    8.5600   77.6120 C.2       1 JWA         0.0222
     22 C22        29.7500    8.3760   78.9570 C.3       1 JWA        -0.0272
     23 C23        32.6360    9.6840   74.9360 C.3       1 JWA         0.1068
     24 N24        33.6170    8.6300   74.6650 N.am      1 JWA        -0.2696
     25 C25        33.3860    7.6410   73.7140 C.2       1 JWA         0.1753
     26 O26        32.3730    7.5540   73.0310 O.2       1 JWA        -0.3972
     27 C27        34.5070    6.6440   73.5520 C.3       1 JWA         0.0258
     28 H1         30.7502   11.2363   78.9325 H         1 JWA         0.0560
     29 H2         34.1977    9.0832   77.5398 H         1 JWA         0.0541
     30 H3         35.6409   10.4582   79.0051 H         1 JWA         0.0542
     31 H4         36.0074   12.0237   80.5344 H         1 JWA         0.0381
     32 H5         34.7162   12.2487   81.7626 H         1 JWA         0.0381
     33 H6         34.9293   13.4580   80.4515 H         1 JWA         0.0381
     34 H7         33.2303   14.8955   80.8173 H         1 JWA         0.1674
     35 H8         31.2880   14.5247   78.5292 H         1 JWA         0.0511
     36 H9         30.5508   16.2239   80.4600 H         1 JWA         0.0283
     37 H10        30.5938   16.8818   78.7891 H         1 JWA         0.0283
     38 H11        32.7093   17.1181   80.9999 H         1 JWA         0.0266
     39 H12        32.0411   18.4111   79.9471 H         1 JWA         0.0266
     40 H13        34.4253   17.0187   79.4509 H         1 JWA         0.0266
     41 H14        33.4648   17.8823   78.2026 H         1 JWA         0.0266
     42 H15        32.7862   15.8997   77.2600 H         1 JWA         0.0283
     43 H16        33.9513   15.0634   78.3416 H         1 JWA         0.0283
     44 H17        28.8584    7.7368   78.8759 H         1 JWA         0.0378
     45 H18        29.4629    9.3553   79.3674 H         1 JWA         0.0378
     46 H19        30.4833    7.8994   79.6242 H         1 JWA         0.0378
     47 H20        33.1487   10.5688   75.3412 H         1 JWA         0.0759
     48 H21        32.1192    9.9546   74.0034 H         1 JWA         0.0759
     49 H22        34.4757    8.6212   75.1774 H         1 JWA         0.1885
     50 H23        34.2334    5.9064   72.7831 H         1 JWA         0.0467
     51 H24        34.6810    6.1293   74.5084 H         1 JWA         0.0467
     52 H25        35.4237    7.1694   73.2463 H         1 JWA         0.0467
@<TRIPOS>BOND
     1    1    2 ar 
     2    1    6 ar 
     3    2    3 ar 
     4    2    7 1  
     5    3    4 ar 
     6    4    5 ar 
     7    5    6 ar 
     8    5   11 1  
     9    6    8 1  
    10    7   18 2  
    11    7   21 1  
    12    8    9 2  
    13    8   10 2  
    14    8   12 am 
    15   12   13 1  
    16   13   14 1  
    17   13   17 1  
    18   14   15 1  
    19   15   16 1  
    20   16   17 1  
    21   18   19 1  
    22   18   23 1  
    23   19   20 1  
    24   20   21 2  
    25   21   22 1  
    26   23   24 1  
    27   24   25 am 
    28   25   26 2  
    29   25   27 1  
    30    1   28 1  
    31    3   29 1  
    32    4   30 1  
    33   11   31 1  
    34   11   32 1  
    35   11   33 1  
    36   12   34 1  
    37   13   35 1  
    38   14   36 1  
    39   14   37 1  
    40   15   38 1  
    41   15   39 1  
    42   16   40 1  
    43   16   41 1  
    44   17   42 1  
    45   17   43 1  
    46   22   44 1  
    47   22   45 1  
    48   22   46 1  
    49   23   47 1  
    50   23   48 1  
    51   24   49 1  
    52   27   50 1  
    53   27   51 1  
    54   27   52 1  
@<TRIPOS>SUBSTRUCTURE
     1 JWA         1

