### 
### Created by X-TOOL on Mon Aug  2 16:14:58 2021
### 

@<TRIPOS>MOLECULE
6mo8_ligand
   41    44     1     0     0
SMALL
GAST_HUCK


@<TRIPOS>ATOM
      1 C01        78.0810   11.3180  -10.4430 C.ar      1 JWD        -0.0631
      2 C02        76.2040    9.8580   -9.9550 C.ar      1 JWD        -0.0559
      3 C03        75.3280   10.7040  -10.6350 C.ar      1 JWD         0.0289
      4 C04        75.8350   11.8780  -11.2310 C.ar      1 JWD         0.0018
      5 C05        77.2190   12.1800  -11.1350 C.ar      1 JWD        -0.0251
      6 C06        77.5740   10.1650   -9.8580 C.ar      1 JWD        -0.0451
      7 C07        78.4620    9.2700   -9.1530 C.2       1 JWD         0.0219
      8 C08        79.5650    8.6760   -9.7220 C.2       1 JWD         0.1489
      9 O09        80.1740    7.8840   -8.8000 O.3       1 JWD        -0.1718
     10 N10        79.4730    7.9530   -7.6070 N.2       1 JWD        -0.1662
     11 C11        78.4440    8.7870   -7.8280 C.2       1 JWD         0.0247
     12 C12        77.4730    9.0840   -6.7530 C.3       1 JWD        -0.0266
     13 C13        80.1840    8.7270  -11.0540 C.3       1 JWD         0.0142
     14 N14        74.0270   10.3640  -10.6940 N.ar      1 JWD        -0.3056
     15 C15        73.1780   11.1810  -11.3620 C.ar      1 JWD         0.0039
     16 C16        73.5610   12.3490  -11.9830 C.ar      1 JWD        -0.0368
     17 C17        74.9020   12.6980  -11.9150 C.ar      1 JWD        -0.0399
     18 C18        77.7790   13.3820  -11.7250 C.2       1 JWD         0.0268
     19 C19        78.5960   13.4230  -12.8340 C.2       1 JWD         0.1508
     20 O20        78.9260   14.7190  -13.0950 O.3       1 JWD        -0.1706
     21 N21        78.3310   15.5520  -12.1560 N.2       1 JWD        -0.1653
     22 C22        77.6410   14.7440  -11.3400 C.2       1 JWD         0.0261
     23 C23        76.8740   15.3020  -10.1980 C.3       1 JWD        -0.0263
     24 C24        79.1530   12.4060  -13.7480 C.3       1 JWD         0.0150
     25 H1         79.1370   11.5500  -10.3650 H         1 JWD         0.0505
     26 H2         75.8247    8.9525   -9.4954 H         1 JWD         0.0458
     27 H3         77.7571    8.5381   -5.8412 H         1 JWD         0.0380
     28 H4         76.4676    8.7701   -7.0700 H         1 JWD         0.0380
     29 H5         77.4721   10.1647   -6.5480 H         1 JWD         0.0380
     30 H6         81.0734    8.0799  -11.0700 H         1 JWD         0.0473
     31 H7         80.4793    9.7618  -11.2817 H         1 JWD         0.0473
     32 H8         79.4626    8.3773  -11.8072 H         1 JWD         0.0473
     33 H9         72.1327   10.8981  -11.4108 H         1 JWD         0.0848
     34 H10        72.8428   12.9713  -12.5045 H         1 JWD         0.0651
     35 H11        75.2414   13.6106  -12.3916 H         1 JWD         0.0760
     36 H12        76.9782   16.3970  -10.1865 H         1 JWD         0.0381
     37 H13        77.2635   14.8867   -9.2568 H         1 JWD         0.0381
     38 H14        75.8120   15.0358  -10.3045 H         1 JWD         0.0381
     39 H15        79.7689   12.8996  -14.5141 H         1 JWD         0.0477
     40 H16        78.3309   11.8603  -14.2341 H         1 JWD         0.0477
     41 H17        79.7742   11.7005  -13.1768 H         1 JWD         0.0477
@<TRIPOS>BOND
     1    1    5 ar 
     2    6    1 ar 
     3    2    3 ar 
     4    2    6 ar 
     5    3    4 ar 
     6    3   14 ar 
     7    4    5 ar 
     8    4   17 ar 
     9    5   18 1  
    10    6    7 1  
    11    7    8 2  
    12    7   11 1  
    13    8    9 1  
    14    8   13 1  
    15    9   10 1  
    16   10   11 2  
    17   11   12 1  
    18   14   15 ar 
    19   15   16 ar 
    20   16   17 ar 
    21   18   19 2  
    22   18   22 1  
    23   19   20 1  
    24   19   24 1  
    25   20   21 1  
    26   21   22 2  
    27   22   23 1  
    28    1   25 1  
    29    2   26 1  
    30   12   27 1  
    31   12   28 1  
    32   12   29 1  
    33   13   30 1  
    34   13   31 1  
    35   13   32 1  
    36   15   33 1  
    37   16   34 1  
    38   17   35 1  
    39   23   36 1  
    40   23   37 1  
    41   23   38 1  
    42   24   39 1  
    43   24   40 1  
    44   24   41 1  
@<TRIPOS>SUBSTRUCTURE
     1 JWD         1

