### 
### Created by X-TOOL on Mon Aug  2 16:14:58 2021
### 

@<TRIPOS>MOLECULE
6mo9_ligand
   47    50     1     0     0
SMALL
GAST_HUCK


@<TRIPOS>ATOM
      1 C01       112.0630    8.0580   14.9460 C.ar      1 JVY         0.0385
      2 C02       112.8700    8.4900   13.9000 C.ar      1 JVY        -0.0460
      3 C03       112.9800    7.7600   12.7150 C.ar      1 JVY        -0.0316
      4 C04       112.2740    6.5710   12.5570 C.ar      1 JVY        -0.0297
      5 C05       111.4540    6.1070   13.5950 C.ar      1 JVY         0.1206
      6 C06       111.3390    6.8420   14.8150 C.ar      1 JVY         0.0288
      7 C07       113.8210    8.2390   11.6430 C.2       1 JVY         0.0248
      8 S08       110.6060    4.5580   13.3160 S.o2      1 JVY         0.0704
      9 N09       108.9540    4.9050   13.4720 N.am      1 JVY        -0.2441
     10 O10       110.9770    3.7030   14.4170 O.2       1 JVY        -0.1499
     11 O11       110.8790    4.0990   11.9720 O.2       1 JVY        -0.1499
     12 C12       114.7390    7.4750   10.9540 C.2       1 JVY         0.1492
     13 O13       115.3400    8.2570   10.0080 O.3       1 JVY        -0.1717
     14 N14       114.8250    9.5440   10.0630 N.2       1 JVY        -0.1661
     15 C15       113.9130    9.5230   11.0500 C.2       1 JVY         0.0250
     16 C16       113.1540   10.7390   11.4080 C.3       1 JVY        -0.0266
     17 C17       115.1710    6.0680   11.0330 C.3       1 JVY         0.0143
     18 C18       108.2570    5.7870   12.5190 C.3       1 JVY         0.0379
     19 C19       106.8650    5.2140   12.2310 C.3       1 JVY        -0.0333
     20 C20       105.9070    6.4090   12.2930 C.3       1 JVY        -0.0513
     21 C21       106.7850    7.6480   12.4260 C.3       1 JVY        -0.0513
     22 C22       107.9900    7.1300   13.1950 C.3       1 JVY        -0.0333
     23 N23       112.0230    8.8360   16.0440 N.ar      1 JVY        -0.3012
     24 C24       111.2550    8.4510   17.0870 C.ar      1 JVY         0.0067
     25 C25       110.5050    7.2930   17.0830 C.ar      1 JVY        -0.0346
     26 C26       110.5460    6.4900   15.9420 C.ar      1 JVY        -0.0359
     27 H1        113.4263    9.4142   14.0067 H         1 JVY         0.0540
     28 H2        112.3578    6.0063   11.6355 H         1 JVY         0.0630
     29 H3        108.4400    4.5015   14.2290 H         1 JVY         0.1676
     30 H4        113.4618   11.5689   10.7549 H         1 JVY         0.0380
     31 H5        113.3573   11.0028   12.4564 H         1 JVY         0.0380
     32 H6        112.0779   10.5508   11.2792 H         1 JVY         0.0380
     33 H7        115.9461    5.8794   10.2756 H         1 JVY         0.0474
     34 H8        114.3098    5.4091   10.8483 H         1 JVY         0.0474
     35 H9        115.5796    5.8655   12.0340 H         1 JVY         0.0474
     36 H10       108.8445    5.9065   11.5967 H         1 JVY         0.0511
     37 H11       106.5937    4.4646   12.9892 H         1 JVY         0.0283
     38 H12       106.8387    4.7521   11.2330 H         1 JVY         0.0283
     39 H13       105.2398    6.3188   13.1629 H         1 JVY         0.0266
     40 H14       105.3055    6.4643   11.3737 H         1 JVY         0.0266
     41 H15       106.2684    8.4406   12.9871 H         1 JVY         0.0266
     42 H16       107.0809    8.0312   11.4383 H         1 JVY         0.0266
     43 H17       108.8506    7.8069   13.0894 H         1 JVY         0.0283
     44 H18       107.7552    6.9991   14.2616 H         1 JVY         0.0283
     45 H19       111.2268    9.0816   17.9683 H         1 JVY         0.0855
     46 H20       109.9021    7.0152   17.9400 H         1 JVY         0.0669
     47 H21       109.9606    5.5781   15.9142 H         1 JVY         0.0764
@<TRIPOS>BOND
     1    1    2 ar 
     2    1    6 ar 
     3    1   23 ar 
     4    2    3 ar 
     5    3    4 ar 
     6    3    7 1  
     7    4    5 ar 
     8    5    6 ar 
     9    5    8 1  
    10    6   26 ar 
    11    7   12 2  
    12    7   15 1  
    13    8    9 am 
    14    8   10 2  
    15    8   11 2  
    16    9   18 1  
    17   12   13 1  
    18   12   17 1  
    19   13   14 1  
    20   14   15 2  
    21   15   16 1  
    22   18   19 1  
    23   18   22 1  
    24   19   20 1  
    25   20   21 1  
    26   21   22 1  
    27   23   24 ar 
    28   24   25 ar 
    29   25   26 ar 
    30    2   27 1  
    31    4   28 1  
    32    9   29 1  
    33   16   30 1  
    34   16   31 1  
    35   16   32 1  
    36   17   33 1  
    37   17   34 1  
    38   17   35 1  
    39   18   36 1  
    40   19   37 1  
    41   19   38 1  
    42   20   39 1  
    43   20   40 1  
    44   21   41 1  
    45   21   42 1  
    46   22   43 1  
    47   22   44 1  
    48   24   45 1  
    49   25   46 1  
    50   26   47 1  
@<TRIPOS>SUBSTRUCTURE
     1 JVY         1

