### 
### Created by X-TOOL on Mon Aug  2 16:14:58 2021
### 

@<TRIPOS>MOLECULE
6moa_ligand
   52    57     1     0     0
SMALL
GAST_HUCK


@<TRIPOS>ATOM
      1 C01         8.5540   61.6360   -5.0160 C.ar      1 JW4        -0.0535
      2 C02         9.0750   60.6650   -4.1450 C.ar      1 JW4        -0.0461
      3 C03         8.2690   59.5830   -3.7770 C.ar      1 JW4         0.0719
      4 C04         6.9790   59.4850   -4.2750 C.ar      1 JW4         0.0234
      5 C05         6.4310   60.4340   -5.1400 C.ar      1 JW4        -0.0276
      6 C06         7.2470   61.5160   -5.4960 C.ar      1 JW4        -0.0733
      7 C07         5.0660   60.3020   -5.6350 C.ar      1 JW4        -0.0079
      8 C08         9.3460   62.7860   -5.4110 C.2       1 JW4         0.0138
      9 C09         9.9660   63.7920   -4.6270 C.2       1 JW4         0.0219
     10 N10        10.5830   64.7000   -5.3900 N.2       1 JW4        -0.1681
     11 O11        10.3800   64.2810   -6.6950 O.3       1 JW4        -0.1750
     12 C12         9.6310   63.1460   -6.7110 C.2       1 JW4         0.1439
     13 C13         9.3190   62.5680   -8.0360 C.3       1 JW4         0.0121
     14 C14         9.9920   63.9390   -3.1570 C.3       1 JW4        -0.0272
     15 N15         8.5580   58.5220   -2.9640 N.pl3     1 JW4        -0.2487
     16 C16         7.4660   57.7940   -2.9650 C.2       1 JW4         0.1221
     17 N17         6.4730   58.3250   -3.7340 N.2       1 JW4        -0.3196
     18 C18         7.3280   56.5210   -2.1800 C.3       1 JW4         0.0408
     19 C19         7.9510   56.4600   -0.8100 C.3       1 JW4        -0.0296
     20 C20         8.5460   55.6710   -1.9360 C.3       1 JW4        -0.0296
     21 C21         4.0100   60.8580   -4.8610 C.ar      1 JW4         0.0066
     22 C22         2.6800   60.7500   -5.3120 C.ar      1 JW4         0.0420
     23 C23         2.4370   60.0920   -6.5100 C.ar      1 JW4        -0.0432
     24 C24         3.4650   59.5450   -7.2750 C.ar      1 JW4        -0.0520
     25 C25         4.7930   59.6370   -6.8540 C.ar      1 JW4        -0.0326
     26 C26         4.2090   61.5380   -3.6330 C.ar      1 JW4        -0.0377
     27 C27         3.1360   62.0650   -2.9280 C.ar      1 JW4        -0.0344
     28 C28         1.8780   61.9000   -3.4630 C.ar      1 JW4         0.0079
     29 N29         1.6400   61.2600   -4.6290 N.ar      1 JW4        -0.2989
     30 C30         5.8790   59.0280   -7.7060 C.3       1 JW4        -0.0285
     31 H1         10.0860   60.7529   -3.7640 H         1 JW4         0.0470
     32 H2          6.8551   62.2783   -6.1596 H         1 JW4         0.0465
     33 H3          9.7555   63.1998   -8.8236 H         1 JW4         0.0465
     34 H4          8.2279   62.5197   -8.1673 H         1 JW4         0.0465
     35 H5          9.7416   61.5546   -8.1027 H         1 JW4         0.0465
     36 H6         10.5665   64.8378   -2.8885 H         1 JW4         0.0378
     37 H7         10.4657   63.0535   -2.7082 H         1 JW4         0.0378
     38 H8          8.9632   64.0353   -2.7798 H         1 JW4         0.0378
     39 H9          9.4379   58.3355   -2.4620 H         1 JW4         0.2314
     40 H10         6.3516   56.0548   -2.3779 H         1 JW4         0.0565
     41 H11         7.4294   55.9422    0.0084 H         1 JW4         0.0301
     42 H12         8.4847   57.3345   -0.4095 H         1 JW4         0.0301
     43 H13         9.5164   55.9666   -2.3613 H         1 JW4         0.0301
     44 H14         8.4611   54.5743   -1.9434 H         1 JW4         0.0301
     45 H15         1.4155   60.0009   -6.8612 H         1 JW4         0.0628
     46 H16         3.2313   59.0428   -8.2068 H         1 JW4         0.0615
     47 H17         5.2130   61.6478   -3.2393 H         1 JW4         0.0752
     48 H18         3.2830   62.5878   -1.9898 H         1 JW4         0.0684
     49 H19         1.0326   62.3056   -2.9192 H         1 JW4         0.0845
     50 H20         6.8558   59.1922   -7.2275 H         1 JW4         0.0401
     51 H21         5.8735   59.4999   -8.6996 H         1 JW4         0.0401
     52 H22         5.6996   57.9479   -7.8120 H         1 JW4         0.0401
@<TRIPOS>BOND
     1    1    2 ar 
     2    1    6 ar 
     3    1    8 1  
     4    2    3 ar 
     5    3    4 ar 
     6    3   15 1  
     7    4    5 ar 
     8    4   17 1  
     9    5    6 ar 
    10    5    7 1  
    11    7   21 ar 
    12    7   25 ar 
    13    8    9 1  
    14    8   12 2  
    15    9   10 2  
    16    9   14 1  
    17   10   11 1  
    18   11   12 1  
    19   12   13 1  
    20   15   16 1  
    21   16   17 2  
    22   16   18 1  
    23   18   19 1  
    24   18   20 1  
    25   19   20 1  
    26   21   22 ar 
    27   21   26 ar 
    28   22   23 ar 
    29   22   29 ar 
    30   23   24 ar 
    31   24   25 ar 
    32   25   30 1  
    33   26   27 ar 
    34   27   28 ar 
    35   28   29 ar 
    36    2   31 1  
    37    6   32 1  
    38   13   33 1  
    39   13   34 1  
    40   13   35 1  
    41   14   36 1  
    42   14   37 1  
    43   14   38 1  
    44   15   39 1  
    45   18   40 1  
    46   19   41 1  
    47   19   42 1  
    48   20   43 1  
    49   20   44 1  
    50   23   45 1  
    51   24   46 1  
    52   26   47 1  
    53   27   48 1  
    54   28   49 1  
    55   30   50 1  
    56   30   51 1  
    57   30   52 1  
@<TRIPOS>SUBSTRUCTURE
     1 JW4         1

