### 
### Created by X-TOOL on Mon Aug  2 16:14:58 2021
### 

@<TRIPOS>MOLECULE
6mob_ligand
   54    57     1     0     0
SMALL
GAST_HUCK


@<TRIPOS>ATOM
      1 C1         16.1710  -17.1460    4.7580 C.ar      1 JWY        -0.0390
      2 C2         15.8680  -18.5010    4.5210 C.ar      1 JWY        -0.0220
      3 C3         14.7570  -19.0690    5.1340 C.ar      1 JWY         0.0270
      4 C4         13.9210  -18.3670    5.9910 C.ar      1 JWY        -0.0289
      5 C5         15.3380  -16.4380    5.6320 C.ar      1 JWY         0.0991
      6 C6         14.2030  -17.0350    6.2210 C.ar      1 JWY         0.1505
      7 C8         16.7320  -19.3160    3.6290 C.2       1 JWY         0.0465
      8 C11        16.2910  -19.6420    2.3570 C.2       1 JWY        -0.0373
      9 C12        17.1380  -20.4350    1.5380 C.ar      1 JWY         0.0274
     10 C13        18.3950  -20.8420    1.9600 C.ar      1 JWY         0.0980
     11 C15        18.0720  -19.7540    4.0470 C.2       1 JWY         0.2221
     12 C16        19.1980  -21.6320    1.0870 C.ar      1 JWY         0.0087
     13 C17        18.6930  -21.9660   -0.1870 C.ar      1 JWY         0.0997
     14 C19        16.6740  -20.7830    0.2340 C.ar      1 JWY         0.0001
     15 C21        20.2180  -20.8740    3.6550 C.3       1 JWY         0.0596
     16 O20        18.4950  -19.4480    5.2090 O.2       1 JWY        -0.3958
     17 N14        18.8570  -20.4980    3.2060 N.am      1 JWY        -0.2094
     18 C22        20.4510  -22.2840    4.1620 C.3       1 JWY        -0.0375
     19 N18        17.4860  -21.5340   -0.5680 N.ar      1 JWY        -0.2952
     20 N32        19.4020  -22.7010   -1.0850 N.pl3     1 JWY        -0.3127
     21 C33        20.6070  -23.4630   -0.7180 C.3       1 JWY         0.0158
     22 CL9        14.3160  -20.7500    4.8430 Cl        1 JWY        -0.0863
     23 F10        13.3870  -16.2760    7.0260 F         1 JWY        -0.1944
     24 N7         15.4640  -15.0640    5.8460 N.am      1 JWY        -0.2140
     25 C23        16.0660  -14.1540    5.0290 C.2       1 JWY         0.3162
     26 O31        16.7480  -14.5120    4.0480 O.2       1 JWY        -0.3806
     27 N24        15.8970  -12.8620    5.3950 N.am      1 JWY        -0.2144
     28 C25        16.4990  -11.7130    4.8430 C.ar      1 JWY         0.0671
     29 C26        16.5410  -10.5740    5.6630 C.ar      1 JWY        -0.0415
     30 C27        17.1530   -9.3790    5.2020 C.ar      1 JWY        -0.0757
     31 C28        17.7430   -9.3140    3.9220 C.ar      1 JWY        -0.0773
     32 C29        17.6950  -10.4640    3.1070 C.ar      1 JWY        -0.0757
     33 C30        17.0980  -11.6580    3.5510 C.ar      1 JWY        -0.0415
     34 H1         17.0190  -16.6686    4.2805 H         1 JWY         0.0460
     35 H2         13.0735  -18.8491    6.4648 H         1 JWY         0.0567
     36 H3         15.3224  -19.3000    1.9953 H         1 JWY         0.0710
     37 H4         20.1801  -21.9704    1.3968 H         1 JWY         0.0487
     38 H5         15.6993  -20.4588   -0.1123 H         1 JWY         0.0793
     39 H6         20.4922  -20.1872    4.4693 H         1 JWY         0.0609
     40 H7         20.8951  -20.7202    2.8018 H         1 JWY         0.0609
     41 H8         21.5054  -22.3992    4.4536 H         1 JWY         0.0256
     42 H9         20.2098  -23.0043    3.3664 H         1 JWY         0.0256
     43 H10        19.8070  -22.4713    5.0338 H         1 JWY         0.0256
     44 H11        19.0823  -22.7256   -2.0638 H         1 JWY         0.1809
     45 H12        21.0031  -23.9736   -1.6081 H         1 JWY         0.0483
     46 H13        20.3499  -24.2089    0.0485 H         1 JWY         0.0483
     47 H14        21.3684  -22.7759   -0.3203 H         1 JWY         0.0483
     48 H15        15.0687  -14.7080    6.6927 H         1 JWY         0.2251
     49 H16        15.2649  -12.7022    6.1532 H         1 JWY         0.2262
     50 H17        16.1034  -10.6074    6.6542 H         1 JWY         0.0501
     51 H18        17.1672   -8.5044    5.8422 H         1 JWY         0.0577
     52 H19        18.2202   -8.4049    3.5745 H         1 JWY         0.0486
     53 H20        18.1287  -10.4270    2.1142 H         1 JWY         0.0577
     54 H21        17.0936  -12.5337    2.9122 H         1 JWY         0.0501
@<TRIPOS>BOND
     1    1    2 ar 
     2    1    5 ar 
     3    2    3 ar 
     4    2    7 1  
     5    3    4 ar 
     6    3   22 1  
     7    4    6 ar 
     8    5    6 ar 
     9    5   24 1  
    10    6   23 1  
    11    7    8 2  
    12    7   11 1  
    13    8    9 1  
    14    9   10 ar 
    15    9   14 ar 
    16   10   12 ar 
    17   10   17 1  
    18   11   16 2  
    19   11   17 am 
    20   12   13 ar 
    21   13   19 ar 
    22   13   20 1  
    23   14   19 ar 
    24   17   15 1  
    25   15   18 1  
    26   20   21 1  
    27   24   25 am 
    28   25   26 2  
    29   25   27 am 
    30   27   28 1  
    31   28   29 ar 
    32   28   33 ar 
    33   29   30 ar 
    34   30   31 ar 
    35   31   32 ar 
    36   32   33 ar 
    37    1   34 1  
    38    4   35 1  
    39    8   36 1  
    40   12   37 1  
    41   14   38 1  
    42   15   39 1  
    43   15   40 1  
    44   18   41 1  
    45   18   42 1  
    46   18   43 1  
    47   20   44 1  
    48   21   45 1  
    49   21   46 1  
    50   21   47 1  
    51   24   48 1  
    52   27   49 1  
    53   29   50 1  
    54   30   51 1  
    55   31   52 1  
    56   32   53 1  
    57   33   54 1  
@<TRIPOS>SUBSTRUCTURE
     1 JWY         1

