### 
### Created by X-TOOL on Mon Aug  2 16:14:58 2021
### 

@<TRIPOS>MOLECULE
6mod_ligand
   49    50     1     0     0
SMALL
GAST_HUCK


@<TRIPOS>ATOM
      1 C2        -19.3700  -18.8020  -32.9680 C.3       1 JWV         0.0336
      2 C1        -18.7520  -19.2890  -34.2340 C.3       1 JWV         0.0551
      3 O1        -18.3650  -20.6300  -34.0240 O.3       1 JWV        -0.3941
      4 C3        -18.3580  -18.5390  -31.9720 C.1       1 JWV        -0.0852
      5 C4        -17.5510  -18.2710  -31.1400 C.1       1 JWV        -0.0130
      6 C5        -16.5830  -18.0560  -30.1960 C.1       1 JWV        -0.0074
      7 C6        -15.7300  -17.8310  -29.3970 C.1       1 JWV        -0.0492
      8 C7        -14.7060  -17.5970  -28.4580 C.ar      1 JWV         0.0297
      9 C8        -13.4020  -17.8210  -28.7650 C.ar      1 JWV        -0.0412
     10 C9        -12.4140  -17.6040  -27.8360 C.ar      1 JWV        -0.0413
     11 C10       -12.7150  -17.1370  -26.5930 C.ar      1 JWV         0.0494
     12 C11       -14.0190  -16.8930  -26.2870 C.ar      1 JWV        -0.0413
     13 C12       -15.0030  -17.1350  -27.2160 C.ar      1 JWV        -0.0412
     14 C13       -11.6270  -16.9300  -25.6310 C.2       1 JWV         0.2067
     15 O2        -10.5260  -17.3130  -25.9310 O.2       1 JWV        -0.3849
     16 N1        -11.8730  -16.1560  -24.5490 N.am      1 JWV        -0.2624
     17 C14       -10.7890  -15.7520  -23.7150 C.3       1 JWV         0.1640
     18 C15       -10.3890  -14.3100  -23.9870 C.3       1 JWV         0.1470
     19 C16        -9.6850  -13.6700  -22.7950 C.3       1 JWV         0.1007
     20 S1        -10.4690  -12.1550  -23.0950 S.o2      1 JWV        -0.0251
     21 C17       -11.5180  -13.3160  -23.8630 C.3       1 JWV         0.1007
     22 O3         -9.7400  -11.3570  -23.9900 O.2       1 JWV        -0.1742
     23 O4        -11.0820  -11.5630  -21.9710 O.2       1 JWV        -0.1742
     24 O5         -9.7150  -14.1730  -25.2240 O.3       1 JWV        -0.3686
     25 C18        -8.4390  -14.7410  -25.2880 C.3       1 JWV         0.0376
     26 C19       -11.2730  -15.8990  -22.3070 C.2       1 JWV         0.2274
     27 O6        -12.2720  -15.3750  -21.8800 O.2       1 JWV        -0.3943
     28 N2        -10.4270  -16.6430  -21.5650 N.am      1 JWV        -0.1622
     29 O7        -10.7390  -16.7940  -20.2230 O.3       1 JWV        -0.2717
     30 H1        -20.0614  -19.5676  -32.5862 H         1 JWV         0.0421
     31 H2        -19.9257  -17.8747  -33.1712 H         1 JWV         0.0421
     32 H3        -17.8718  -18.6779  -34.4825 H         1 JWV         0.0566
     33 H4        -19.4817  -19.2321  -35.0552 H         1 JWV         0.0566
     34 H5        -17.7393  -20.6698  -33.3103 H         1 JWV         0.2094
     35 H6        -13.1380  -18.1752  -29.7549 H         1 JWV         0.0639
     36 H7        -11.3814  -17.8071  -28.0957 H         1 JWV         0.0668
     37 H8        -14.2819  -16.5071  -25.3087 H         1 JWV         0.0668
     38 H9        -16.0384  -16.9531  -26.9514 H         1 JWV         0.0639
     39 H10       -12.8071  -15.8696  -24.3358 H         1 JWV         0.1877
     40 H11        -9.9205  -16.4047  -23.8869 H         1 JWV         0.0829
     41 H12        -8.5902  -13.6307  -22.8947 H         1 JWV         0.0531
     42 H13        -9.9492  -14.1227  -21.8279 H         1 JWV         0.0531
     43 H14       -12.3433  -13.6599  -23.2223 H         1 JWV         0.0531
     44 H15       -11.9202  -12.9788  -24.8297 H         1 JWV         0.0531
     45 H16        -8.0134  -14.5747  -26.2886 H         1 JWV         0.0524
     46 H17        -8.5084  -15.8215  -25.0940 H         1 JWV         0.0524
     47 H18        -7.7912  -14.2736  -24.5318 H         1 JWV         0.0524
     48 H19        -9.6133  -17.0655  -21.9643 H         1 JWV         0.2217
     49 H20       -10.0782  -17.3328  -19.8041 H         1 JWV         0.2490
@<TRIPOS>BOND
     1    1    2 1  
     2    1    4 1  
     3    2    3 1  
     4    4    5 3  
     5    5    6 1  
     6    6    7 3  
     7    7    8 1  
     8    8    9 ar 
     9    8   13 ar 
    10    9   10 ar 
    11   10   11 ar 
    12   11   12 ar 
    13   11   14 1  
    14   12   13 ar 
    15   14   15 2  
    16   14   16 am 
    17   16   17 1  
    18   17   18 1  
    19   17   26 1  
    20   18   19 1  
    21   18   21 1  
    22   18   24 1  
    23   19   20 1  
    24   20   21 1  
    25   20   22 2  
    26   20   23 2  
    27   24   25 1  
    28   26   27 2  
    29   26   28 am 
    30   28   29 1  
    31    1   30 1  
    32    1   31 1  
    33    2   32 1  
    34    2   33 1  
    35    3   34 1  
    36    9   35 1  
    37   10   36 1  
    38   12   37 1  
    39   13   38 1  
    40   16   39 1  
    41   17   40 1  
    42   19   41 1  
    43   19   42 1  
    44   21   43 1  
    45   21   44 1  
    46   25   45 1  
    47   25   46 1  
    48   25   47 1  
    49   28   48 1  
    50   29   49 1  
@<TRIPOS>SUBSTRUCTURE
     1 JWV         1

