### 
### Created by X-TOOL on Mon Aug  2 16:14:58 2021
### 

@<TRIPOS>MOLECULE
6mom_ligand
   53    57     1     0     0
SMALL
GAST_HUCK


@<TRIPOS>ATOM
      1 C10        26.9160   10.1150   -9.2910 C.2       1 JX4         0.0857
      2 C13        25.0570   11.5500   -6.4060 C.2       1 JX4         0.0573
      3 C15        23.9570   13.6310   -5.3960 C.3       1 JX4         0.0602
      4 C17        25.1110   12.3490   -8.4630 C.2       1 JX4         0.0026
      5 C20        30.3280   10.7780  -13.5710 C.ar      1 JX4        -0.0626
      6 C21        29.9300   12.0680  -13.2950 C.ar      1 JX4        -0.0252
      7 C22        29.0310   12.2520  -12.2460 C.ar      1 JX4         0.0990
      8 C24        27.8360   13.8340  -10.7260 C.3       1 JX4         0.0823
      9 C26        28.2680   16.0900   -9.8050 C.3       1 JX4        -0.0313
     10 C28        28.7430   13.7610   -9.4870 C.3       1 JX4        -0.0102
     11 C01        24.9090    7.3350   -5.8840 C.3       1 JX4         0.0623
     12 C03        25.8830    8.6630   -7.6800 C.2       1 JX4         0.1037
     13 C04        26.4900    7.5970   -8.2350 C.2       1 JX4         0.0103
     14 C05        27.3380    7.7550   -9.3640 C.2       1 JX4         0.1271
     15 C07        28.6810    7.5570  -11.0350 C.2       1 JX4        -0.0196
     16 C08        28.3900    8.8940  -10.9800 C.2       1 JX4         0.1032
     17 C11        26.0920    9.9950   -8.2210 C.2       1 JX4         0.0434
     18 C12        25.4560   11.2080   -7.6780 C.2       1 JX4        -0.0005
     19 C18        28.9310    9.9550  -11.8340 C.ar      1 JX4         0.0440
     20 C19        29.8380    9.7030  -12.8410 C.ar      1 JX4        -0.0501
     21 C25        27.3020   15.3020  -10.7310 C.3       1 JX4         0.0151
     22 N06        28.0230    6.8590  -10.0520 N.2       1 JX4        -0.3422
     23 N09        27.5290    9.0280   -9.8730 N.pl3     1 JX4        -0.2044
     24 N14        24.5230   12.7990   -6.4590 N.pl3     1 JX4        -0.2098
     25 N16        24.5480   13.2960   -7.7440 N.2       1 JX4        -0.2162
     26 N23        28.5750   13.4930  -11.9090 N.pl3     1 JX4        -0.3018
     27 N27        29.3260   15.1080   -9.5060 N.4       1 JX4         0.2287
     28 N29        28.5510   11.2120  -11.5500 N.ar      1 JX4        -0.2945
     29 O02        25.0640    8.5800   -6.5930 O.3       1 JX4        -0.3153
     30 H1         27.0994   11.1056   -9.7046 H         1 JX4         0.1176
     31 H2         25.1521   10.9303   -5.5155 H         1 JX4         0.0984
     32 H3         23.6209   14.5888   -5.8198 H         1 JX4         0.0605
     33 H4         24.7234   13.8181   -4.6294 H         1 JX4         0.0605
     34 H5         23.1014   13.1114   -4.9400 H         1 JX4         0.0605
     35 H6         25.2929   12.4267   -9.5339 H         1 JX4         0.0660
     36 H7         31.0361   10.5991  -14.3721 H         1 JX4         0.0671
     37 H8         30.3018   12.9073  -13.8715 H         1 JX4         0.0543
     38 H9         26.9942   13.1332  -10.6252 H         1 JX4         0.0608
     39 H10        27.7576   16.4118   -8.8853 H         1 JX4         0.0814
     40 H11        28.6806   16.9688  -10.3221 H         1 JX4         0.0814
     41 H12        29.5135   12.9830   -9.5924 H         1 JX4         0.0837
     42 H13        28.1639   13.5816   -8.5692 H         1 JX4         0.0837
     43 H14        24.2117    7.4753   -5.0449 H         1 JX4         0.0584
     44 H15        25.8860    7.0086   -5.4981 H         1 JX4         0.0584
     45 H16        24.5109    6.5708   -6.5677 H         1 JX4         0.0584
     46 H17        26.3296    6.6052   -7.8149 H         1 JX4         0.0453
     47 H18        29.3496    7.1044  -11.7658 H         1 JX4         0.0568
     48 H19        30.1607    8.6911  -13.0576 H         1 JX4         0.0538
     49 H20        26.2750   15.3402  -10.3389 H         1 JX4         0.0341
     50 H21        27.3211   15.7159  -11.7500 H         1 JX4         0.0341
     51 H22        28.7806   14.2589  -12.5663 H         1 JX4         0.1806
     52 H23        29.7313   15.3126   -8.6061 H         1 JX4         0.2014
     53 H24        30.0407   15.1560  -10.2152 H         1 JX4         0.2014
@<TRIPOS>BOND
     1    1   17 2  
     2   23    1 1  
     3   18    2 2  
     4    2   24 1  
     5   24    3 1  
     6   18    4 1  
     7    4   25 2  
     8    5    6 ar 
     9   20    5 ar 
    10    6    7 ar 
    11    7   26 1  
    12    7   28 ar 
    13    8   10 1  
    14    8   21 1  
    15   26    8 1  
    16   21    9 1  
    17    9   27 1  
    18   10   27 1  
    19   29   11 1  
    20   13   12 2  
    21   17   12 1  
    22   12   29 1  
    23   14   13 1  
    24   14   22 2  
    25   23   14 1  
    26   16   15 2  
    27   15   22 1  
    28   19   16 1  
    29   16   23 1  
    30   17   18 1  
    31   19   20 ar 
    32   19   28 ar 
    33   24   25 1  
    34    1   30 1  
    35    2   31 1  
    36    3   32 1  
    37    3   33 1  
    38    3   34 1  
    39    4   35 1  
    40    5   36 1  
    41    6   37 1  
    42    8   38 1  
    43    9   39 1  
    44    9   40 1  
    45   10   41 1  
    46   10   42 1  
    47   11   43 1  
    48   11   44 1  
    49   11   45 1  
    50   13   46 1  
    51   15   47 1  
    52   20   48 1  
    53   21   49 1  
    54   21   50 1  
    55   26   51 1  
    56   27   52 1  
    57   27   53 1  
@<TRIPOS>SUBSTRUCTURE
     1 JX4         1

