### 
### Created by X-TOOL on Mon Aug  2 16:14:59 2021
### 

@<TRIPOS>MOLECULE
6moo_ligand
   51    52     1     0     0
SMALL
GAST_HUCK


@<TRIPOS>ATOM
      1 C10       -18.4710   13.0970  -34.3370 C.3       1 A5F        -0.0328
      2 C8        -19.8270   13.5110  -33.7300 C.3       1 A5F        -0.0029
      3 C9        -18.9020   12.5380  -32.9810 C.3       1 A5F         0.0272
      4 C11       -21.1310   12.9210  -34.3240 C.3       1 A5F         0.0482
      5 C12       -18.0000   13.0460  -31.9360 C.1       1 A5F        -0.0837
      6 C13       -10.4380   18.2330  -23.9930 C.3       1 A5F         0.0214
      7 C14       -10.7230   16.7190  -23.7910 C.3       1 A5F         0.1770
      8 C15       -17.2500   13.4110  -31.0980 C.1       1 A5F        -0.0128
      9 C16       -11.6840   19.1280  -24.1940 C.3       1 A5F        -0.0147
     10 C17        -9.5830   18.7720  -22.8470 C.3       1 A5F        -0.0147
     11 C18       -11.2320   16.4480  -22.4190 C.2       1 A5F         0.2303
     12 C19       -11.3930   15.4160  -25.7840 C.2       1 A5F         0.2068
     13 C20       -16.2840   13.7990  -30.1730 C.1       1 A5F        -0.0074
     14 C21       -12.4550   14.9960  -26.7890 C.ar      1 A5F         0.0494
     15 C22       -12.0910   14.4550  -28.0250 C.ar      1 A5F        -0.0413
     16 C23       -13.7970   15.2800  -26.5070 C.ar      1 A5F        -0.0413
     17 C24       -14.4600   14.3780  -28.6050 C.ar      1 A5F         0.0297
     18 C25       -15.4120   14.0800  -29.4200 C.1       1 A5F        -0.0492
     19 C26       -13.1170   14.1250  -28.9210 C.ar      1 A5F        -0.0412
     20 C27       -14.7970   14.9840  -27.4090 C.ar      1 A5F        -0.0412
     21 N5        -11.7220   16.1250  -24.6930 N.am      1 A5F        -0.2602
     22 N6         -9.6640   18.3830  -25.2140 N.4       1 A5F         0.2259
     23 N7        -10.4610   15.6220  -21.7170 N.am      1 A5F        -0.1621
     24 O1        -22.1020   12.6260  -33.2960 O.3       1 A5F        -0.3947
     25 O2        -12.2930   16.9430  -22.0380 O.2       1 A5F        -0.3942
     26 O3        -10.2310   15.1720  -26.0890 O.2       1 A5F        -0.3849
     27 O04       -10.7250   15.3890  -20.3760 O.3       1 A5F        -0.2717
     28 H1        -17.6492   13.8258  -34.3951 H         1 A5F         0.0281
     29 H2        -18.4410   12.4394  -35.2183 H         1 A5F         0.0281
     30 H3        -19.9924   14.5375  -33.3709 H         1 A5F         0.0335
     31 H4        -19.2024   11.4939  -32.8092 H         1 A5F         0.0438
     32 H5        -20.8892   11.9928  -34.8625 H         1 A5F         0.0560
     33 H6        -21.5646   13.6493  -35.0251 H         1 A5F         0.0560
     34 H7         -9.7702   16.1887  -23.9356 H         1 A5F         0.0860
     35 H8        -11.3672   20.1730  -24.3265 H         1 A5F         0.0289
     36 H9        -12.3365   19.0517  -23.3117 H         1 A5F         0.0289
     37 H10       -12.2341   18.7956  -25.0867 H         1 A5F         0.0289
     38 H11        -8.7010   18.1284  -22.7135 H         1 A5F         0.0289
     39 H12       -10.1750   18.7796  -21.9199 H         1 A5F         0.0289
     40 H13        -9.2574   19.7960  -23.0826 H         1 A5F         0.0289
     41 H14       -11.0500   14.2959  -28.2822 H         1 A5F         0.0668
     42 H15       -14.0548   15.7417  -25.5607 H         1 A5F         0.0668
     43 H16       -12.8691   13.6676  -29.8720 H         1 A5F         0.0639
     44 H17       -15.8302   15.2225  -27.1841 H         1 A5F         0.0639
     45 H18       -12.6911   16.2556  -24.4835 H         1 A5F         0.1878
     46 H19       -10.1984   18.0364  -25.9953 H         1 A5F         0.2002
     47 H20        -8.8064   17.8592  -25.1347 H         1 A5F         0.2002
     48 H21        -9.4504   19.3574  -25.3589 H         1 A5F         0.2002
     49 H22        -9.6876   15.1671  -22.1584 H         1 A5F         0.2217
     50 H23       -22.8856   12.2673  -33.6957 H         1 A5F         0.2094
     51 H24       -10.0839   14.7795  -20.0294 H         1 A5F         0.2490
@<TRIPOS>BOND
     1    2    1 1  
     2    3    1 1  
     3    3    2 1  
     4    2    4 1  
     5    5    3 1  
     6    4   24 1  
     7    8    5 3  
     8    7    6 1  
     9    6    9 1  
    10    6   10 1  
    11    6   22 1  
    12    7   11 1  
    13   21    7 1  
    14   13    8 1  
    15   11   23 am 
    16   11   25 2  
    17   14   12 1  
    18   12   21 am 
    19   12   26 2  
    20   18   13 3  
    21   15   14 ar 
    22   14   16 ar 
    23   19   15 ar 
    24   16   20 ar 
    25   17   18 1  
    26   17   19 ar 
    27   17   20 ar 
    28   23   27 1  
    29    1   28 1  
    30    1   29 1  
    31    2   30 1  
    32    3   31 1  
    33    4   32 1  
    34    4   33 1  
    35    7   34 1  
    36    9   35 1  
    37    9   36 1  
    38    9   37 1  
    39   10   38 1  
    40   10   39 1  
    41   10   40 1  
    42   15   41 1  
    43   16   42 1  
    44   19   43 1  
    45   20   44 1  
    46   21   45 1  
    47   22   46 1  
    48   22   47 1  
    49   22   48 1  
    50   23   49 1  
    51   24   50 1  
    52   27   51 1  
@<TRIPOS>SUBSTRUCTURE
     1 A5F         1

