### 
### Created by X-TOOL on Mon Aug  2 16:15:00 2021
### 

@<TRIPOS>MOLECULE
6mq3_ligand
   70    74     1     0     0
SMALL
GAST_HUCK


@<TRIPOS>ATOM
      1 C03       109.8470  -52.0180   14.0860 C.2       1 J22         0.2749
      2 C05       111.5980  -51.1420   12.9790 C.2       1 J22        -0.0217
      3 C06       112.0570  -52.2770   13.6980 C.2       1 J22         0.0378
      4 C08       110.9510  -53.9690   15.2440 C.3       1 J22         0.0492
      5 C10       106.9330  -49.9460   14.1470 C.3       1 J22         0.0752
      6 C11       105.9440  -49.5980   15.3000 C.3       1 J22         0.0148
      7 C12       105.8750  -52.0210   13.1820 C.3       1 J22         0.0304
      8 C13       104.6110  -52.1860   14.1140 C.3       1 J22        -0.0311
      9 C14       103.4780  -51.0970   13.9380 C.3       1 J22        -0.0110
     10 C15       104.0430  -49.6620   13.6250 C.3       1 J22        -0.0309
     11 C17       105.0040  -47.6470   15.3290 C.3       1 J22         0.0210
     12 C18       105.3570  -46.6260   14.2180 C.3       1 J22         0.0893
     13 C20       106.2490  -48.2710   16.0360 C.3       1 J22         0.0820
     14 C21       106.1460  -48.2550   17.5800 C.ar      1 J22        -0.0292
     15 C22       107.2230  -47.7770   18.3610 C.ar      1 J22        -0.0594
     16 C23       107.1270  -47.7380   19.7760 C.ar      1 J22        -0.0619
     17 C24       105.9590  -48.1780   20.4610 C.ar      1 J22        -0.0295
     18 C25       105.8630  -48.1020   21.9060 C.ar      1 J22        -0.0262
     19 C26       104.9030  -47.2430   22.5380 C.ar      1 J22        -0.0368
     20 C27       103.9460  -46.4250   21.6520 C.3       1 J22        -0.0328
     21 C28       104.8220  -47.1590   23.9510 C.ar      1 J22        -0.0441
     22 C29       103.7860  -46.2480   24.6110 C.3       1 J22        -0.0338
     23 C30       105.7150  -47.9240   24.7460 C.ar      1 J22        -0.0676
     24 C31       106.6880  -48.7770   24.1450 C.ar      1 J22        -0.0754
     25 C32       106.7600  -48.8570   22.7300 C.ar      1 J22        -0.0685
     26 C33       104.8710  -48.6370   19.6510 C.ar      1 J22        -0.0619
     27 C34       104.9650  -48.6740   18.2350 C.ar      1 J22        -0.0594
     28 N04       110.2190  -51.0120   13.2470 N.2       1 J22        -0.3060
     29 N07       110.9520  -52.7730   14.3590 N.pl3     1 J22        -0.2328
     30 N09       107.0650  -51.3990   13.8950 N.am      1 J22        -0.2234
     31 N16       104.5920  -49.0150   14.8670 N.4       1 J22         0.2459
     32 O01       108.1290  -51.9930   16.1670 O.2       1 J22        -0.1441
     33 O19       106.5650  -45.9180   14.6740 O.3       1 J22        -0.3893
     34 O35       107.8760  -53.7170   14.6870 O.2       1 J22        -0.1441
     35 S02       108.1610  -52.3040   14.7400 S.o2      1 J22         0.1137
     36 H1        112.1973  -50.4941   12.3411 H         1 J22         0.0444
     37 H2        113.0708  -52.6738   13.7227 H         1 J22         0.0861
     38 H3        109.9366  -54.1341   15.6361 H         1 J22         0.0589
     39 H4        111.6457  -53.8063   16.0812 H         1 J22         0.0589
     40 H5        111.2699  -54.8509   14.6690 H         1 J22         0.0589
     41 H6        107.9245  -49.5472   14.4075 H         1 J22         0.0536
     42 H7        106.5749  -49.4647   13.2250 H         1 J22         0.0536
     43 H8        105.8565  -50.4683   15.9670 H         1 J22         0.0896
     44 H9        105.6016  -51.3788   12.3318 H         1 J22         0.0478
     45 H10       106.1689  -53.0142   12.8117 H         1 J22         0.0478
     46 H11       104.9548  -52.1493   15.1582 H         1 J22         0.0283
     47 H12       104.1667  -53.1711   13.9086 H         1 J22         0.0283
     48 H13       102.8928  -51.0474   14.8681 H         1 J22         0.0317
     49 H14       102.8235  -51.4038   13.1089 H         1 J22         0.0317
     50 H15       103.2328  -49.0366   13.2220 H         1 J22         0.0815
     51 H16       104.8466  -49.7469   12.8787 H         1 J22         0.0815
     52 H17       104.2840  -47.1843   16.0200 H         1 J22         0.0903
     53 H18       104.5295  -45.9151   14.0775 H         1 J22         0.0616
     54 H19       105.5567  -47.1482   13.2707 H         1 J22         0.0616
     55 H20       107.2099  -47.8228   15.7433 H         1 J22         0.0576
     56 H21       108.1302  -47.4373   17.8745 H         1 J22         0.0558
     57 H22       107.9658  -47.3630   20.3512 H         1 J22         0.0599
     58 H23       104.1656  -46.6252   20.5929 H         1 J22         0.0380
     59 H24       104.0815  -45.3530   21.8582 H         1 J22         0.0380
     60 H25       102.9072  -46.7123   21.8717 H         1 J22         0.0380
     61 H26       103.8791  -46.3190   25.7047 H         1 J22         0.0375
     62 H27       102.7761  -46.5613   24.3079 H         1 J22         0.0375
     63 H28       103.9577  -45.2084   24.2952 H         1 J22         0.0375
     64 H29       105.6568  -47.8591   25.8265 H         1 J22         0.0533
     65 H30       107.3644  -49.3573   24.7621 H         1 J22         0.0542
     66 H31       107.5024  -49.4969   22.2669 H         1 J22         0.0540
     67 H32       103.9550  -48.9636   20.1299 H         1 J22         0.0599
     68 H33       104.1232  -49.0269   17.6502 H         1 J22         0.0558
     69 H34       103.8854  -49.2869   15.5324 H         1 J22         0.2044
     70 H35       106.8208  -45.2774   14.0207 H         1 J22         0.2097
@<TRIPOS>BOND
     1    1   28 2  
     2    1   29 1  
     3   35    1 1  
     4    3    2 2  
     5   28    2 1  
     6   29    3 1  
     7   29    4 1  
     8    5    6 1  
     9   30    5 1  
    10    6   13 1  
    11    6   31 1  
    12    7    8 1  
    13   30    7 1  
    14    8    9 1  
    15    9   10 1  
    16   31   10 1  
    17   11   12 1  
    18   13   11 1  
    19   31   11 1  
    20   12   33 1  
    21   13   14 1  
    22   14   15 ar 
    23   14   27 ar 
    24   15   16 ar 
    25   16   17 ar 
    26   17   18 1  
    27   26   17 ar 
    28   18   19 ar 
    29   18   25 ar 
    30   19   20 1  
    31   19   21 ar 
    32   21   22 1  
    33   21   23 ar 
    34   24   23 ar 
    35   25   24 ar 
    36   27   26 ar 
    37   30   35 am 
    38   35   32 2  
    39   35   34 2  
    40    2   36 1  
    41    3   37 1  
    42    4   38 1  
    43    4   39 1  
    44    4   40 1  
    45    5   41 1  
    46    5   42 1  
    47    6   43 1  
    48    7   44 1  
    49    7   45 1  
    50    8   46 1  
    51    8   47 1  
    52    9   48 1  
    53    9   49 1  
    54   10   50 1  
    55   10   51 1  
    56   11   52 1  
    57   12   53 1  
    58   12   54 1  
    59   13   55 1  
    60   15   56 1  
    61   16   57 1  
    62   20   58 1  
    63   20   59 1  
    64   20   60 1  
    65   22   61 1  
    66   22   62 1  
    67   22   63 1  
    68   23   64 1  
    69   24   65 1  
    70   25   66 1  
    71   26   67 1  
    72   27   68 1  
    73   31   69 1  
    74   33   70 1  
@<TRIPOS>SUBSTRUCTURE
     1 J22         1

