### 
### Created by X-TOOL on Mon Aug  2 16:15:00 2021
### 

@<TRIPOS>MOLECULE
6mqc_ligand
  108   108     1     0     0
SMALL
GAST_HUCK


@<TRIPOS>ATOM
      1 N          85.9480 -118.2990 -145.1360 N.4       1 ALA         0.2377
      2 CA         84.5750 -118.3150 -145.6280 C.3       1 ALA         0.0621
      3 C          83.7930 -119.4650 -145.0060 C.2       1 ALA         0.2264
      4 O          84.3630 -120.4970 -144.6600 O.2       1 ALA        -0.3907
      5 CB         84.5590 -118.4220 -147.1430 C.3       1 ALA        -0.0040
      6 N          82.4810 -119.2800 -144.8570 N.am      1 ALA        -0.2608
      7 CA         81.6130 -120.2980 -144.2850 C.3       1 ALA         0.1334
      8 C          80.4490 -120.5420 -145.2370 C.2       1 ALA         0.2040
      9 O          80.1730 -119.7460 -146.1390 O.2       1 ALA        -0.3944
     10 CB         81.0970 -119.9150 -142.8780 C.3       1 ALA        -0.0063
     11 CG1        82.2670 -119.6830 -141.9290 C.3       1 ALA        -0.0584
     12 CG2        80.2040 -118.6800 -142.9450 C.3       1 ALA        -0.0584
     13 N          79.7960 -121.6880 -145.0510 N.am      1 ALA        -0.2664
     14 CA         78.6000 -122.0020 -145.8100 C.3       1 ALA         0.1201
     15 C          78.8190 -122.2420 -147.2860 C.2       1 ALA         0.2008
     16 O          77.8970 -122.0410 -148.0830 O.2       1 ALA        -0.3947
     17 N          80.0140 -122.6720 -147.6740 N.am      1 ALA        -0.2637
     18 CA         80.3350 -122.9070 -149.0760 C.3       1 ALA         0.1335
     19 C          81.3270 -124.0600 -149.1460 C.2       1 ALA         0.2040
     20 O          82.2640 -124.1430 -148.3450 O.2       1 ALA        -0.3944
     21 CB         80.8890 -121.6270 -149.7440 C.3       1 ALA        -0.0037
     22 CG1        81.3130 -121.8970 -151.1930 C.3       1 ALA        -0.0491
     23 CG2        82.0460 -121.0510 -148.9410 C.3       1 ALA        -0.0582
     24 CD1        81.2410 -120.6690 -152.0900 C.3       1 ALA        -0.0648
     25 N          81.1160 -124.9560 -150.1070 N.am      1 ALA        -0.2664
     26 CA         81.9570 -126.1210 -150.2690 C.3       1 ALA         0.1201
     27 C          83.1710 -125.8360 -151.1290 C.2       1 ALA         0.2007
     28 O          83.5110 -124.6890 -151.4260 O.2       1 ALA        -0.3947
     29 N          83.8400 -126.9200 -151.5260 N.am      1 ALA        -0.2642
     30 CA         85.0380 -126.8490 -152.3600 C.3       1 ALA         0.1282
     31 C          85.1540 -128.1470 -153.1430 C.2       1 ALA         0.2036
     32 O          85.2110 -129.2250 -152.5410 O.2       1 ALA        -0.3944
     33 CB         86.2920 -126.6190 -151.5130 C.3       1 ALA        -0.0244
     34 N          85.2020 -128.0500 -154.4730 N.am      1 ALA        -0.2635
     35 CA         85.3270 -129.2120 -155.3460 C.3       1 ALA         0.1332
     36 C          86.5950 -129.0690 -156.1780 C.2       1 ALA         0.2037
     37 O          86.9350 -127.9690 -156.6300 O.2       1 ALA        -0.3944
     38 CB         84.0860 -129.4110 -156.2450 C.3       1 ALA        -0.0063
     39 CG1        82.8210 -129.4360 -155.3980 C.3       1 ALA        -0.0584
     40 CG2        83.9950 -128.3330 -157.3070 C.3       1 ALA        -0.0584
     41 N          87.2960 -130.1850 -156.3720 N.am      1 ALA        -0.2677
     42 CA         88.5830 -130.1850 -157.0710 C.3       1 ALA         0.1039
     43 C          88.6370 -131.2690 -158.1450 C.2       1 ALA         0.0621
     44 O          87.8390 -132.2100 -158.1360 O.co2     1 ALA        -0.5664
     45 CB         89.7430 -130.4090 -156.0890 C.3       1 ALA         0.0159
     46 CG         89.7040 -129.5350 -154.8610 C.ar      1 ALA        -0.0392
     47 CD1        90.4890 -128.3970 -154.7840 C.ar      1 ALA        -0.0602
     48 CD2        88.9170 -129.8750 -153.7710 C.ar      1 ALA        -0.0602
     49 CE1        90.4730 -127.5990 -153.6500 C.ar      1 ALA        -0.0686
     50 CE2        88.8940 -129.0800 -152.6360 C.ar      1 ALA        -0.0686
     51 CZ         89.6700 -127.9410 -152.5770 C.ar      1 ALA        -0.0687
     52 OXT        89.4800 -131.2270 -159.0450 O.co2     1 ALA        -0.5664
     53 H1         86.4475 -117.5323 -145.5588 H         1 ALA         0.2015
     54 H2         86.4007 -119.1673 -145.3749 H         1 ALA         0.2015
     55 H3         85.9447 -118.1863 -144.1343 H         1 ALA         0.2015
     56 H4         84.0913 -117.3700 -145.3399 H         1 ALA         0.1095
     57 H5         83.5182 -118.4329 -147.4988 H         1 ALA         0.0310
     58 H6         85.0613 -119.3511 -147.4503 H         1 ALA         0.0310
     59 H7         85.0858 -117.5595 -147.5771 H         1 ALA         0.0310
     60 H8         82.0797 -118.4116 -145.1484 H         1 ALA         0.1885
     61 H9         82.1905 -121.2294 -144.1906 H         1 ALA         0.0802
     62 H10        80.4979 -120.7521 -142.4902 H         1 ALA         0.0343
     63 H11        81.8839 -119.4119 -140.9341 H         1 ALA         0.0234
     64 H12        82.8957 -118.8670 -142.3147 H         1 ALA         0.0234
     65 H13        82.8656 -120.6027 -141.8532 H         1 ALA         0.0234
     66 H14        79.3678 -118.8692 -143.6341 H         1 ALA         0.0234
     67 H15        80.7905 -117.8226 -143.3068 H         1 ALA         0.0234
     68 H16        79.8098 -118.4577 -141.9424 H         1 ALA         0.0234
     69 H17        80.1360 -122.3433 -144.3765 H         1 ALA         0.1881
     70 H18        77.8983 -121.1618 -145.7024 H         1 ALA         0.0763
     71 H19        78.1529 -122.9105 -145.3802 H         1 ALA         0.0763
     72 H20        80.7161 -122.8399 -146.9820 H         1 ALA         0.1883
     73 H21        79.4169 -123.1991 -149.6068 H         1 ALA         0.0803
     74 H22        80.0827 -120.8790 -149.7612 H         1 ALA         0.0345
     75 H23        80.6519 -122.6710 -151.6100 H         1 ALA         0.0267
     76 H24        82.3500 -122.2638 -151.1889 H         1 ALA         0.0267
     77 H25        81.7186 -120.8660 -147.9073 H         1 ALA         0.0235
     78 H26        82.3735 -120.1049 -149.3967 H         1 ALA         0.0235
     79 H27        82.8822 -121.7656 -148.9384 H         1 ALA         0.0235
     80 H28        81.5582 -120.9394 -153.1080 H         1 ALA         0.0230
     81 H29        81.9055 -119.8866 -151.6946 H         1 ALA         0.0230
     82 H30        80.2073 -120.2937 -152.1157 H         1 ALA         0.0230
     83 H31        80.3516 -124.8193 -150.7371 H         1 ALA         0.1881
     84 H32        81.3676 -126.9202 -150.7422 H         1 ALA         0.0763
     85 H33        82.2961 -126.4537 -149.2769 H         1 ALA         0.0763
     86 H34        83.5076 -127.8190 -151.2408 H         1 ALA         0.1883
     87 H35        84.9337 -126.0111 -153.0650 H         1 ALA         0.0797
     88 H36        87.1737 -126.5706 -152.1690 H         1 ALA         0.0277
     89 H37        86.4104 -127.4485 -150.8003 H         1 ALA         0.0277
     90 H38        86.1932 -125.6726 -150.9611 H         1 ALA         0.0277
     91 H39        85.1501 -127.1421 -154.8890 H         1 ALA         0.1883
     92 H40        85.4270 -130.1061 -154.7131 H         1 ALA         0.0802
     93 H41        84.1820 -130.3825 -156.7518 H         1 ALA         0.0343
     94 H42        81.9462 -129.5781 -156.0496 H         1 ALA         0.0234
     95 H43        82.7237 -128.4837 -154.8561 H         1 ALA         0.0234
     96 H44        82.8791 -130.2643 -154.6765 H         1 ALA         0.0234
     97 H45        84.9167 -128.3310 -157.9073 H         1 ALA         0.0234
     98 H46        83.8696 -127.3525 -156.8244 H         1 ALA         0.0234
     99 H47        83.1327 -128.5333 -157.9599 H         1 ALA         0.0234
    100 H48        86.9317 -131.0509 -156.0292 H         1 ALA         0.1877
    101 H49        88.7120 -129.2048 -157.5533 H         1 ALA         0.0749
    102 H50        90.6855 -130.2116 -156.6207 H         1 ALA         0.0467
    103 H51        89.7188 -131.4594 -155.7633 H         1 ALA         0.0467
    104 H52        91.1237 -128.1266 -155.6202 H         1 ALA         0.0557
    105 H53        88.3122 -130.7739 -153.8072 H         1 ALA         0.0557
    106 H54        91.0891 -126.7082 -153.6045 H         1 ALA         0.0599
    107 H55        88.2667 -129.3530 -151.7952 H         1 ALA         0.0599
    108 H56        89.6505 -127.3155 -151.6919 H         1 ALA         0.0559
@<TRIPOS>BOND
     1    1    2 1  
     2    2    3 1  
     3    2    5 1  
     4    3    4 2  
     5    3    6 am 
     6    6    7 1  
     7    7    8 1  
     8    7   10 1  
     9    8    9 2  
    10    8   13 am 
    11   10   11 1  
    12   10   12 1  
    13   13   14 1  
    14   14   15 1  
    15   15   16 2  
    16   15   17 am 
    17   17   18 1  
    18   18   19 1  
    19   18   21 1  
    20   19   20 2  
    21   19   25 am 
    22   21   22 1  
    23   21   23 1  
    24   22   24 1  
    25   25   26 1  
    26   26   27 1  
    27   27   28 2  
    28   27   29 am 
    29   29   30 1  
    30   30   31 1  
    31   30   33 1  
    32   31   32 2  
    33   31   34 am 
    34   34   35 1  
    35   35   36 1  
    36   35   38 1  
    37   36   37 2  
    38   36   41 am 
    39   38   39 1  
    40   38   40 1  
    41   41   42 1  
    42   42   43 1  
    43   42   45 1  
    44   43   44 ar 
    45   43   52 ar 
    46   45   46 1  
    47   46   47 ar 
    48   46   48 ar 
    49   47   49 ar 
    50   48   50 ar 
    51   49   51 ar 
    52   50   51 ar 
    53    1   53 1  
    54    1   54 1  
    55    1   55 1  
    56    2   56 1  
    57    5   57 1  
    58    5   58 1  
    59    5   59 1  
    60    6   60 1  
    61    7   61 1  
    62   10   62 1  
    63   11   63 1  
    64   11   64 1  
    65   11   65 1  
    66   12   66 1  
    67   12   67 1  
    68   12   68 1  
    69   13   69 1  
    70   14   70 1  
    71   14   71 1  
    72   17   72 1  
    73   18   73 1  
    74   21   74 1  
    75   22   75 1  
    76   22   76 1  
    77   23   77 1  
    78   23   78 1  
    79   23   79 1  
    80   24   80 1  
    81   24   81 1  
    82   24   82 1  
    83   25   83 1  
    84   26   84 1  
    85   26   85 1  
    86   29   86 1  
    87   30   87 1  
    88   33   88 1  
    89   33   89 1  
    90   33   90 1  
    91   34   91 1  
    92   35   92 1  
    93   38   93 1  
    94   39   94 1  
    95   39   95 1  
    96   39   96 1  
    97   40   97 1  
    98   40   98 1  
    99   40   99 1  
   100   41  100 1  
   101   42  101 1  
   102   45  102 1  
   103   45  103 1  
   104   47  104 1  
   105   48  105 1  
   106   49  106 1  
   107   50  107 1  
   108   51  108 1  
@<TRIPOS>SUBSTRUCTURE
     1 ALA         1

