### 
### Created by X-TOOL on Mon Aug  2 16:15:00 2021
### 

@<TRIPOS>MOLECULE
6mqe_ligand
  108   108     1     0     0
SMALL
GAST_HUCK


@<TRIPOS>ATOM
      1 N          49.2040  153.2710  203.8330 N.4       1 ALA         0.2377
      2 CA         49.0990  154.2520  202.7530 C.3       1 ALA         0.0621
      3 C          49.1430  153.6030  201.3810 C.2       1 ALA         0.2264
      4 O          49.8920  152.6610  201.1570 O.2       1 ALA        -0.3907
      5 CB         50.2050  155.2650  202.8620 C.3       1 ALA        -0.0040
      6 N          48.3350  154.1070  200.4610 N.am      1 ALA        -0.2608
      7 CA         48.2850  153.5730  199.1080 C.3       1 ALA         0.1334
      8 C          48.8500  154.6220  198.1540 C.2       1 ALA         0.2040
      9 O          48.8330  155.8260  198.4400 O.2       1 ALA        -0.3944
     10 CB         46.8440  153.1810  198.7230 C.3       1 ALA        -0.0063
     11 CG1        46.0610  154.3800  198.1870 C.3       1 ALA        -0.0584
     12 CG2        46.8420  152.0200  197.7940 C.3       1 ALA        -0.0584
     13 N          49.3570  154.1630  197.0130 N.am      1 ALA        -0.2664
     14 CA         49.8140  155.0830  195.9840 C.3       1 ALA         0.1201
     15 C          50.9040  156.0450  196.4160 C.2       1 ALA         0.2008
     16 O          50.7700  157.2660  196.2630 O.2       1 ALA        -0.3947
     17 N          51.9820  155.5150  196.9790 N.am      1 ALA        -0.2637
     18 CA         53.0670  156.3570  197.4640 C.3       1 ALA         0.1335
     19 C          54.3770  155.6050  197.2840 C.2       1 ALA         0.2040
     20 O          54.4770  154.4260  197.6300 O.2       1 ALA        -0.3944
     21 CB         52.8190  156.7770  198.9310 C.3       1 ALA        -0.0037
     22 CG1        53.9520  157.6420  199.4730 C.3       1 ALA        -0.0491
     23 CG2        52.5380  155.5780  199.8320 C.3       1 ALA        -0.0582
     24 CD1        53.5130  158.4640  200.6760 C.3       1 ALA        -0.0648
     25 N          55.3840  156.2790  196.7380 N.am      1 ALA        -0.2664
     26 CA         56.6620  155.6610  196.4580 C.3       1 ALA         0.1201
     27 C          57.6150  155.7270  197.6340 C.2       1 ALA         0.2007
     28 O          57.2140  155.8620  198.7920 O.2       1 ALA        -0.3947
     29 N          58.9060  155.6410  197.3220 N.am      1 ALA        -0.2642
     30 CA         59.9440  155.6970  198.3420 C.3       1 ALA         0.1282
     31 C          61.1760  156.3440  197.7370 C.2       1 ALA         0.2036
     32 O          61.5700  155.9920  196.6240 O.2       1 ALA        -0.3944
     33 CB         60.2960  154.3060  198.8830 C.3       1 ALA        -0.0244
     34 N          61.7720  157.2870  198.4640 N.am      1 ALA        -0.2635
     35 CA         63.0280  157.8960  198.0590 C.3       1 ALA         0.1332
     36 C          64.0750  157.5950  199.1130 C.2       1 ALA         0.2037
     37 O          63.7740  157.5100  200.3100 O.2       1 ALA        -0.3944
     38 CB         62.9040  159.4170  197.8420 C.3       1 ALA        -0.0063
     39 CG1        61.9840  159.6980  196.6940 C.3       1 ALA        -0.0584
     40 CG2        62.4000  160.0890  199.1010 C.3       1 ALA        -0.0584
     41 N          65.3050  157.4200  198.6540 N.am      1 ALA        -0.2677
     42 CA         66.4160  157.0630  199.5110 C.3       1 ALA         0.1039
     43 C          67.5590  158.0410  199.2860 C.2       1 ALA         0.0621
     44 O          68.2430  158.4390  200.2270 O.co2     1 ALA        -0.5664
     45 CB         66.8700  155.6310  199.2360 C.3       1 ALA         0.0159
     46 CG         65.7610  154.6200  199.2850 C.ar      1 ALA        -0.0392
     47 CD1        65.5470  153.8720  200.4300 C.ar      1 ALA        -0.0602
     48 CD2        64.9380  154.4090  198.1900 C.ar      1 ALA        -0.0602
     49 CE1        64.5400  152.9380  200.4820 C.ar      1 ALA        -0.0686
     50 CE2        63.9180  153.4720  198.2410 C.ar      1 ALA        -0.0686
     51 CZ         63.7180  152.7410  199.3930 C.ar      1 ALA        -0.0687
     52 OXT        67.8230  158.4540  198.1580 O.co2     1 ALA        -0.5664
     53 H1         49.1705  153.7451  204.7219 H         1 ALA         0.2015
     54 H2         50.0763  152.7727  203.7507 H         1 ALA         0.2015
     55 H3         48.4375  152.6193  203.7707 H         1 ALA         0.2015
     56 H4         48.1351  154.7718  202.8569 H         1 ALA         0.1095
     57 H5         50.1145  155.9959  202.0450 H         1 ALA         0.0310
     58 H6         51.1773  154.7553  202.7920 H         1 ALA         0.0310
     59 H7         50.1322  155.7848  203.8287 H         1 ALA         0.0310
     60 H8         47.7428  154.8758  200.7025 H         1 ALA         0.1885
     61 H9         48.9137  152.6718  199.0571 H         1 ALA         0.0802
     62 H10        46.3372  152.8558  199.6435 H         1 ALA         0.0343
     63 H11        45.0410  154.0636  197.9235 H         1 ALA         0.0234
     64 H12        46.5643  154.7767  197.2930 H         1 ALA         0.0234
     65 H13        46.0143  155.1622  198.9589 H         1 ALA         0.0234
     66 H14        47.4195  151.1951  198.2368 H         1 ALA         0.0234
     67 H15        47.2982  152.3149  196.8375 H         1 ALA         0.0234
     68 H16        45.8068  151.6910  197.6205 H         1 ALA         0.0234
     69 H17        49.4244  153.1768  196.8617 H         1 ALA         0.1881
     70 H18        48.9500  155.6758  195.6494 H         1 ALA         0.0763
     71 H19        50.1989  154.4884  195.1424 H         1 ALA         0.0763
     72 H20        52.0507  154.5217  197.0719 H         1 ALA         0.1883
     73 H21        53.1055  157.2707  196.8527 H         1 ALA         0.0803
     74 H22        51.9116  157.3988  198.9357 H         1 ALA         0.0345
     75 H23        54.2887  158.3252  198.6794 H         1 ALA         0.0267
     76 H24        54.7852  156.9895  199.7731 H         1 ALA         0.0267
     77 H25        51.7169  154.9833  199.4054 H         1 ALA         0.0235
     78 H26        52.2528  155.9311  200.8340 H         1 ALA         0.0235
     79 H27        53.4417  154.9552  199.9061 H         1 ALA         0.0235
     80 H28        54.3580  159.0708  201.0335 H         1 ALA         0.0230
     81 H29        53.1801  157.7899  201.4790 H         1 ALA         0.0230
     82 H30        52.6837  159.1255  200.3852 H         1 ALA         0.0230
     83 H31        55.2542  157.2448  196.5134 H         1 ALA         0.1881
     84 H32        57.1225  156.1773  195.6028 H         1 ALA         0.0763
     85 H33        56.4932  154.6048  196.2011 H         1 ALA         0.0763
     86 H34        59.1698  155.5353  196.3632 H         1 ALA         0.1883
     87 H35        59.5850  156.3150  199.1782 H         1 ALA         0.0797
     88 H36        61.0813  154.3980  199.6478 H         1 ALA         0.0277
     89 H37        60.6586  153.6732  198.0595 H         1 ALA         0.0277
     90 H38        59.4008  153.8490  199.3299 H         1 ALA         0.0277
     91 H39        61.3417  157.5857  199.3158 H         1 ALA         0.1883
     92 H40        63.3424  157.4415  197.1079 H         1 ALA         0.0802
     93 H41        63.8987  159.8211  197.6029 H         1 ALA         0.0343
     94 H42        61.9022  160.7851  196.5473 H         1 ALA         0.0234
     95 H43        60.9893  159.2814  196.9108 H         1 ALA         0.0234
     96 H44        62.3848  159.2340  195.7808 H         1 ALA         0.0234
     97 H45        63.0868  159.8722  199.9324 H         1 ALA         0.0234
     98 H46        61.3976  159.7070  199.3444 H         1 ALA         0.0234
     99 H47        62.3494  161.1762  198.9413 H         1 ALA         0.0234
    100 H48        65.4732  157.5393  197.6755 H         1 ALA         0.1877
    101 H49        66.0915  157.1318  200.5598 H         1 ALA         0.0749
    102 H50        67.6227  155.3558  199.9894 H         1 ALA         0.0467
    103 H51        67.3243  155.5981  198.2347 H         1 ALA         0.0467
    104 H52        66.1811  154.0247  201.2958 H         1 ALA         0.0557
    105 H53        65.0938  154.9831  197.2838 H         1 ALA         0.0557
    106 H54        64.3916  152.3539  201.3830 H         1 ALA         0.0599
    107 H55        63.2801  153.3145  197.3788 H         1 ALA         0.0599
    108 H56        62.9162  152.0131  199.4422 H         1 ALA         0.0559
@<TRIPOS>BOND
     1    1    2 1  
     2    2    3 1  
     3    2    5 1  
     4    3    4 2  
     5    3    6 am 
     6    6    7 1  
     7    7    8 1  
     8    7   10 1  
     9    8    9 2  
    10    8   13 am 
    11   10   11 1  
    12   10   12 1  
    13   13   14 1  
    14   14   15 1  
    15   15   16 2  
    16   15   17 am 
    17   17   18 1  
    18   18   19 1  
    19   18   21 1  
    20   19   20 2  
    21   19   25 am 
    22   21   22 1  
    23   21   23 1  
    24   22   24 1  
    25   25   26 1  
    26   26   27 1  
    27   27   28 2  
    28   27   29 am 
    29   29   30 1  
    30   30   31 1  
    31   30   33 1  
    32   31   32 2  
    33   31   34 am 
    34   34   35 1  
    35   35   36 1  
    36   35   38 1  
    37   36   37 2  
    38   36   41 am 
    39   38   39 1  
    40   38   40 1  
    41   41   42 1  
    42   42   43 1  
    43   42   45 1  
    44   43   44 ar 
    45   43   52 ar 
    46   45   46 1  
    47   46   47 ar 
    48   46   48 ar 
    49   47   49 ar 
    50   48   50 ar 
    51   49   51 ar 
    52   50   51 ar 
    53    1   53 1  
    54    1   54 1  
    55    1   55 1  
    56    2   56 1  
    57    5   57 1  
    58    5   58 1  
    59    5   59 1  
    60    6   60 1  
    61    7   61 1  
    62   10   62 1  
    63   11   63 1  
    64   11   64 1  
    65   11   65 1  
    66   12   66 1  
    67   12   67 1  
    68   12   68 1  
    69   13   69 1  
    70   14   70 1  
    71   14   71 1  
    72   17   72 1  
    73   18   73 1  
    74   21   74 1  
    75   22   75 1  
    76   22   76 1  
    77   23   77 1  
    78   23   78 1  
    79   23   79 1  
    80   24   80 1  
    81   24   81 1  
    82   24   82 1  
    83   25   83 1  
    84   26   84 1  
    85   26   85 1  
    86   29   86 1  
    87   30   87 1  
    88   33   88 1  
    89   33   89 1  
    90   33   90 1  
    91   34   91 1  
    92   35   92 1  
    93   38   93 1  
    94   39   94 1  
    95   39   95 1  
    96   39   96 1  
    97   40   97 1  
    98   40   98 1  
    99   40   99 1  
   100   41  100 1  
   101   42  101 1  
   102   45  102 1  
   103   45  103 1  
   104   47  104 1  
   105   48  105 1  
   106   49  106 1  
   107   50  107 1  
   108   51  108 1  
@<TRIPOS>SUBSTRUCTURE
     1 ALA         1

