### 
### Created by X-TOOL on Mon Aug  2 16:15:00 2021
### 

@<TRIPOS>MOLECULE
6mqm_ligand
   88    87     1     0     0
SMALL
GAST_HUCK


@<TRIPOS>ATOM
      1 N         -11.4750   31.4540  -11.9530 N.4       1 ALA         0.2377
      2 CA        -11.1980   30.2780  -11.1340 C.3       1 ALA         0.0621
      3 C         -11.8730   30.3950   -9.7720 C.2       1 ALA         0.2264
      4 O         -11.9670   31.4880   -9.2090 O.2       1 ALA        -0.3907
      5 CB         -9.7060   30.1020  -10.9640 C.3       1 ALA        -0.0040
      6 N         -12.3500   29.2640   -9.2520 N.am      1 ALA        -0.2608
      7 CA        -13.0770   29.2720   -7.9890 C.3       1 ALA         0.1334
      8 C         -12.1320   29.6280   -6.8460 C.2       1 ALA         0.2040
      9 O         -11.0410   29.0510   -6.7080 O.2       1 ALA        -0.3944
     10 CB        -13.7720   27.9200   -7.7560 C.3       1 ALA        -0.0063
     11 CG1       -12.7670   26.7780   -7.7650 C.3       1 ALA        -0.0584
     12 CG2       -14.5460   27.9400   -6.4510 C.3       1 ALA        -0.0584
     13 N         -12.5410   30.5940   -6.0250 N.am      1 ALA        -0.2664
     14 CA        -11.7830   30.9470   -4.8450 C.3       1 ALA         0.1201
     15 C         -10.6340   31.9030   -5.0710 C.2       1 ALA         0.2008
     16 O          -9.8910   32.1850   -4.1200 O.2       1 ALA        -0.3947
     17 N         -10.4590   32.4120   -6.2840 N.am      1 ALA        -0.2637
     18 CA         -9.3430   33.2870   -6.6160 C.3       1 ALA         0.1335
     19 C          -9.8970   34.6850   -6.8500 C.2       1 ALA         0.2040
     20 O         -10.5730   34.9350   -7.8570 O.2       1 ALA        -0.3944
     21 CB         -8.5770   32.7840   -7.8460 C.3       1 ALA        -0.0037
     22 CG1        -8.2140   31.3050   -7.6810 C.3       1 ALA        -0.0491
     23 CG2        -7.3300   33.6060   -8.0560 C.3       1 ALA        -0.0582
     24 CD1        -7.1940   31.0460   -6.5980 C.3       1 ALA        -0.0648
     25 N          -9.6130   35.5980   -5.9210 N.am      1 ALA        -0.2664
     26 CA        -10.0480   36.9750   -6.0600 C.3       1 ALA         0.1201
     27 C         -10.7640   37.5250   -4.8450 C.2       1 ALA         0.2007
     28 O         -10.7390   38.7360   -4.5970 O.2       1 ALA        -0.3947
     29 N         -11.4270   36.6500   -4.0920 N.am      1 ALA        -0.2642
     30 CA        -11.9410   37.0120   -2.7800 C.3       1 ALA         0.1281
     31 C         -10.9250   36.7720   -1.6740 C.2       1 ALA         0.2031
     32 O         -11.1410   37.2260   -0.5440 O.2       1 ALA        -0.3944
     33 CB        -13.2250   36.2330   -2.4740 C.3       1 ALA        -0.0244
     34 N          -9.8410   36.0590   -1.9760 N.am      1 ALA        -0.2692
     35 CA         -8.7390   35.8200   -1.0500 C.3       1 ALA         0.0967
     36 C          -8.2620   37.1090   -0.3790 C.2       1 ALA         0.0603
     37 O          -7.4490   37.8540   -0.9290 O.co2     1 ALA        -0.5666
     38 CB         -7.5690   35.1140   -1.7720 C.3       1 ALA        -0.0118
     39 CG1        -7.8250   33.6190   -1.8650 C.3       1 ALA        -0.0590
     40 CG2        -7.3800   35.6940   -3.1680 C.3       1 ALA        -0.0590
     41 OXT        -8.6760   37.4430    0.7330 O.co2     1 ALA        -0.5666
     42 H1        -11.0200   31.3555  -12.8471 H         1 ALA         0.2015
     43 H2        -11.1264   32.2773  -11.4875 H         1 ALA         0.2015
     44 H3        -12.4698   31.5413  -12.0901 H         1 ALA         0.2015
     45 H4        -11.6000   29.3922  -11.6476 H         1 ALA         0.1095
     46 H5         -9.5097   29.2136  -10.3457 H         1 ALA         0.0310
     47 H6         -9.2856   30.9914  -10.4718 H         1 ALA         0.0310
     48 H7         -9.2372   29.9729  -11.9507 H         1 ALA         0.0310
     49 H8        -12.2072   28.3997   -9.7344 H         1 ALA         0.1885
     50 H9        -13.8548   30.0480   -8.0429 H         1 ALA         0.0802
     51 H10       -14.4850   27.7549   -8.5772 H         1 ALA         0.0343
     52 H11       -13.2920   25.8262   -7.5963 H         1 ALA         0.0234
     53 H12       -12.0266   26.9348   -6.9667 H         1 ALA         0.0234
     54 H13       -12.2557   26.7472   -8.7384 H         1 ALA         0.0234
     55 H14       -15.2661   28.7715   -6.4645 H         1 ALA         0.0234
     56 H15       -13.8471   28.0738   -5.6122 H         1 ALA         0.0234
     57 H16       -15.0860   26.9893   -6.3303 H         1 ALA         0.0234
     58 H17       -13.3884   31.0845   -6.2285 H         1 ALA         0.1881
     59 H18       -11.3736   30.0207   -4.4156 H         1 ALA         0.0763
     60 H19       -12.4732   31.4111   -4.1251 H         1 ALA         0.0763
     61 H20       -11.1203   32.1856   -6.9992 H         1 ALA         0.1883
     62 H21        -8.6473   33.3155   -5.7645 H         1 ALA         0.0803
     63 H22        -9.2225   32.8911   -8.7302 H         1 ALA         0.0345
     64 H23        -7.8074   30.9389   -8.6353 H         1 ALA         0.0267
     65 H24        -9.1302   30.7482   -7.4351 H         1 ALA         0.0267
     66 H25        -7.6042   34.6648   -8.1730 H         1 ALA         0.0235
     67 H26        -6.8107   33.2596   -8.9617 H         1 ALA         0.0235
     68 H27        -6.6657   33.4932   -7.1865 H         1 ALA         0.0235
     69 H28        -6.9862   29.9673   -6.5404 H         1 ALA         0.0230
     70 H29        -7.5878   31.3956   -5.6322 H         1 ALA         0.0230
     71 H30        -6.2650   31.5863   -6.8324 H         1 ALA         0.0230
     72 H31        -9.0899   35.3284   -5.1125 H         1 ALA         0.1881
     73 H32       -10.7312   37.0359   -6.9199 H         1 ALA         0.0763
     74 H33        -9.1624   37.5991   -6.2504 H         1 ALA         0.0763
     75 H34       -11.5751   35.7228   -4.4360 H         1 ALA         0.1883
     76 H35       -12.1808   38.0854   -2.7957 H         1 ALA         0.0797
     77 H36       -13.5991   36.5187   -1.4798 H         1 ALA         0.0277
     78 H37       -13.0117   35.1540   -2.4893 H         1 ALA         0.0277
     79 H38       -13.9857   36.4672   -3.2332 H         1 ALA         0.0277
     80 H39        -9.7788   35.6638   -2.8925 H         1 ALA         0.1875
     81 H40        -9.1054   35.1481   -0.2599 H         1 ALA         0.0729
     82 H41        -6.6484   35.2791   -1.1931 H         1 ALA         0.0336
     83 H42        -6.9831   33.1343   -2.3810 H         1 ALA         0.0234
     84 H43        -8.7525   33.4402   -2.4287 H         1 ALA         0.0234
     85 H44        -7.9246   33.2004   -0.8527 H         1 ALA         0.0234
     86 H45        -7.1952   36.7758   -3.0936 H         1 ALA         0.0234
     87 H46        -8.2872   35.5172   -3.7645 H         1 ALA         0.0234
     88 H47        -6.5212   35.2079   -3.6539 H         1 ALA         0.0234
@<TRIPOS>BOND
     1    1    2 1  
     2    2    3 1  
     3    2    5 1  
     4    3    4 2  
     5    3    6 am 
     6    6    7 1  
     7    7    8 1  
     8    7   10 1  
     9    8    9 2  
    10    8   13 am 
    11   10   11 1  
    12   10   12 1  
    13   13   14 1  
    14   14   15 1  
    15   15   16 2  
    16   15   17 am 
    17   17   18 1  
    18   18   19 1  
    19   18   21 1  
    20   19   20 2  
    21   19   25 am 
    22   21   22 1  
    23   21   23 1  
    24   22   24 1  
    25   25   26 1  
    26   26   27 1  
    27   27   28 2  
    28   27   29 am 
    29   29   30 1  
    30   30   31 1  
    31   30   33 1  
    32   31   32 2  
    33   31   34 am 
    34   34   35 1  
    35   35   36 1  
    36   35   38 1  
    37   36   37 ar 
    38   36   41 ar 
    39   38   39 1  
    40   38   40 1  
    41    1   42 1  
    42    1   43 1  
    43    1   44 1  
    44    2   45 1  
    45    5   46 1  
    46    5   47 1  
    47    5   48 1  
    48    6   49 1  
    49    7   50 1  
    50   10   51 1  
    51   11   52 1  
    52   11   53 1  
    53   11   54 1  
    54   12   55 1  
    55   12   56 1  
    56   12   57 1  
    57   13   58 1  
    58   14   59 1  
    59   14   60 1  
    60   17   61 1  
    61   18   62 1  
    62   21   63 1  
    63   22   64 1  
    64   22   65 1  
    65   23   66 1  
    66   23   67 1  
    67   23   68 1  
    68   24   69 1  
    69   24   70 1  
    70   24   71 1  
    71   25   72 1  
    72   26   73 1  
    73   26   74 1  
    74   29   75 1  
    75   30   76 1  
    76   33   77 1  
    77   33   78 1  
    78   33   79 1  
    79   34   80 1  
    80   35   81 1  
    81   38   82 1  
    82   39   83 1  
    83   39   84 1  
    84   39   85 1  
    85   40   86 1  
    86   40   87 1  
    87   40   88 1  
@<TRIPOS>SUBSTRUCTURE
     1 ALA         1

