### 
### Created by X-TOOL on Wed Jan  1 15:39:36 2020
### 

@<TRIPOS>MOLECULE
6mr5_ligand
   39    40     1     0     0
SMALL
GAST_HUCK


@<TRIPOS>ATOM
      1 C02       175.9880   -5.7180   21.5270 C.2       1 W45         0.1857
      2 C03       177.3010   -6.1460   20.9070 C.3       1 W45         0.0802
      3 C06       174.1210   -6.3320   23.0530 C.3       1 W45         0.0309
      4 C07       173.1130   -7.4430   22.6680 C.3       1 W45        -0.0327
      5 C08       171.6600   -7.0460   22.7570 C.3       1 W45        -0.0488
      6 C09       170.6890   -8.2390   22.7650 C.3       1 W45        -0.0263
      7 C10       169.3500   -7.9140   23.4370 C.3       1 W45         0.0518
      8 C12       169.1560   -5.4970   24.1500 C.2       1 W45         0.0245
      9 C13       168.6680   -4.3150   23.6240 C.2       1 W45        -0.0634
     10 C14       168.1310   -4.6150   22.3330 C.ar      1 W45        -0.0268
     11 C15       167.5160   -3.8190   21.3730 C.ar      1 W45        -0.0607
     12 C16       167.1120   -4.4350   20.2110 C.ar      1 W45         0.0364
     13 C18       167.3050   -5.8070   19.9950 C.ar      1 W45         0.0394
     14 C20       167.9070   -6.6150   20.9210 C.ar      1 W45        -0.0287
     15 C21       168.3230   -6.0050   22.1050 C.ar      1 W45         0.0668
     16 N05       175.3930   -6.6210   22.4040 N.am      1 W45        -0.2863
     17 N11       168.9450   -6.5370   23.2190 N.pl3     1 W45        -0.2653
     18 O01       175.4660   -4.6380   21.2950 O.2       1 W45        -0.3962
     19 S04       178.5690   -4.9370   21.3250 S.3       1 W45        -0.1565
     20 CL2       166.3540   -3.5050   19.0090 Cl        1 W45        -0.0812
     21 CL1       166.7740   -6.5080   18.5230 Cl        1 W45        -0.0793
     22 H1        177.1916   -6.2026   19.8139 H         1 W45         0.0613
     23 H2        177.5892   -7.1328   21.2982 H         1 W45         0.0613
     24 H3        174.2562   -6.3149   24.1445 H         1 W45         0.0520
     25 H4        173.7447   -5.3553   22.7147 H         1 W45         0.0520
     26 H5        173.2746   -8.2982   23.3407 H         1 W45         0.0285
     27 H6        173.3204   -7.7474   21.6315 H         1 W45         0.0285
     28 H7        171.4207   -6.4101   21.8919 H         1 W45         0.0267
     29 H8        171.5133   -6.4734   23.6847 H         1 W45         0.0267
     30 H9        171.1607   -9.0718   23.3071 H         1 W45         0.0291
     31 H10       170.4956   -8.5411   21.7251 H         1 W45         0.0291
     32 H11       169.4456   -8.0877   24.5190 H         1 W45         0.0602
     33 H12       168.5768   -8.5796   23.0257 H         1 W45         0.0602
     34 H13       169.6273   -5.6078   25.1255 H         1 W45         0.0936
     35 H14       168.6887   -3.3375   24.1036 H         1 W45         0.0287
     36 H15       167.3614   -2.7581   21.5333 H         1 W45         0.0543
     37 H16       168.0532   -7.6744   20.7438 H         1 W45         0.0551
     38 H17       175.8503   -7.4899   22.5932 H         1 W45         0.1851
     39 H18       179.4463   -5.2165   20.9148 H         1 W45         0.1043
@<TRIPOS>BOND
     1    1    2 1  
     2   16    1 am 
     3    1   18 2  
     4    2   19 1  
     5    4    3 1  
     6    3   16 1  
     7    5    4 1  
     8    6    5 1  
     9    7    6 1  
    10   17    7 1  
    11    8    9 2  
    12    8   17 1  
    13    9   10 1  
    14   10   11 ar 
    15   10   15 ar 
    16   11   12 ar 
    17   12   13 ar 
    18   12   20 1  
    19   13   14 ar 
    20   13   21 1  
    21   14   15 ar 
    22   15   17 1  
    23    2   22 1  
    24    2   23 1  
    25    3   24 1  
    26    3   25 1  
    27    4   26 1  
    28    4   27 1  
    29    5   28 1  
    30    5   29 1  
    31    6   30 1  
    32    6   31 1  
    33    7   32 1  
    34    7   33 1  
    35    8   34 1  
    36    9   35 1  
    37   11   36 1  
    38   14   37 1  
    39   16   38 1  
    40   19   39 1  
@<TRIPOS>SUBSTRUCTURE
     1 W45         1

