### 
### Created by X-TOOL on Wed Jan  1 15:39:36 2020
### 

@<TRIPOS>MOLECULE
6mrg_ligand
   45    48     1     0     0
SMALL
GAST_HUCK


@<TRIPOS>ATOM
      1 C1        -27.9150   10.7980   30.5240 C.ar      1 JXV        -0.0164
      2 C2        -28.3540   11.3720   31.7170 C.ar      1 JXV        -0.0277
      3 C3        -27.2470    9.5810   30.5460 C.ar      1 JXV        -0.0670
      4 C4        -28.0930   10.6990   32.9290 C.ar      1 JXV         0.1249
      5 C5        -27.0000    8.9280   31.7510 C.ar      1 JXV        -0.0353
      6 C6        -27.4360    9.5150   32.9490 C.ar      1 JXV         0.1256
      7 C11       -28.1610   11.4150   29.1770 C.ar      1 JXV         0.0438
      8 C15       -29.2560   12.2290   28.9250 C.ar      1 JXV         0.0092
      9 C18       -30.7580   14.2780   26.1110 C.3       1 JXV         0.0647
     10 C19       -29.9760   15.6060   26.0570 C.3       1 JXV         0.1092
     11 C21       -30.6240   18.1110   23.2390 C.ar      1 JXV        -0.0685
     12 C23       -30.5840   17.5110   24.4950 C.ar      1 JXV        -0.0578
     13 C24       -29.4090   15.6400   23.5630 C.ar      1 JXV        -0.0578
     14 O26       -30.2900   16.4510   27.0460 O.3       1 JXV        -0.3772
     15 C10       -27.6900   10.9350   35.2620 C.3       1 JXV         0.0955
     16 C13       -29.4310   12.7310   27.6530 C.ar      1 JXV         0.1252
     17 C14       -27.4660   11.6120   26.9090 C.ar      1 JXV         0.0675
     18 C20       -30.0640   17.4700   22.1410 C.ar      1 JXV        -0.0687
     19 C22       -29.4540   16.2430   22.3100 C.ar      1 JXV        -0.0685
     20 C25       -29.9690   16.2590   24.6680 C.ar      1 JXV        -0.0128
     21 C9        -27.4720    9.4410   35.4070 C.3       1 JXV         0.0966
     22 N12       -28.5500   12.4230   26.6630 N.ar      1 JXV        -0.2559
     23 N16       -27.2840   11.1100   28.1640 N.ar      1 JXV        -0.2828
     24 N17       -30.5540   13.6040   27.3860 N.pl3     1 JXV        -0.2973
     25 O7        -27.1780    8.8540   34.1520 O.3       1 JXV        -0.3153
     26 O8        -28.4950   11.2250   34.1240 O.3       1 JXV        -0.3180
     27 H1        -28.8854   12.3168   31.7129 H         1 JXV         0.0542
     28 H2        -26.9144    9.1346   29.6158 H         1 JXV         0.0540
     29 H3        -26.4776    7.9783   31.7635 H         1 JXV         0.0526
     30 H4        -29.9609   12.4659   29.7137 H         1 JXV         0.0653
     31 H5        -30.4112   13.6229   25.2983 H         1 JXV         0.0571
     32 H6        -31.8303   14.4864   25.9818 H         1 JXV         0.0571
     33 H7        -28.9287   15.3267   26.2441 H         1 JXV         0.0778
     34 H8        -31.0932   19.0806   23.1177 H         1 JXV         0.0599
     35 H9        -31.0305   18.0132   25.3456 H         1 JXV         0.0557
     36 H10       -28.9299   14.6742   23.6757 H         1 JXV         0.0557
     37 H11       -30.1002   16.0423   27.8824 H         1 JXV         0.2131
     38 H12       -26.7150   11.4315   35.1488 H         1 JXV         0.0636
     39 H13       -28.1923   11.3145   36.1640 H         1 JXV         0.0636
     40 H14       -26.7660   11.3752   26.1159 H         1 JXV         0.1073
     41 H15       -30.1056   17.9293   21.1600 H         1 JXV         0.0559
     42 H16       -29.0057   15.7446   21.4581 H         1 JXV         0.0599
     43 H17       -28.3836    8.9810   35.8161 H         1 JXV         0.0639
     44 H18       -26.6317    9.2637   36.0943 H         1 JXV         0.0639
     45 H19       -31.2439   13.7564   28.1355 H         1 JXV         0.1843
@<TRIPOS>BOND
     1    1    2 ar 
     2    1    3 ar 
     3    7    1 1  
     4    2    4 ar 
     5    3    5 ar 
     6    4    6 ar 
     7    4   26 1  
     8    5    6 ar 
     9    6   25 1  
    10    8    7 ar 
    11    7   23 ar 
    12   16    8 ar 
    13    9   10 1  
    14   24    9 1  
    15   10   14 1  
    16   10   20 1  
    17   12   11 ar 
    18   11   18 ar 
    19   20   12 ar 
    20   13   19 ar 
    21   20   13 ar 
    22   15   21 1  
    23   26   15 1  
    24   16   22 ar 
    25   16   24 1  
    26   22   17 ar 
    27   17   23 ar 
    28   18   19 ar 
    29   21   25 1  
    30    2   27 1  
    31    3   28 1  
    32    5   29 1  
    33    8   30 1  
    34    9   31 1  
    35    9   32 1  
    36   10   33 1  
    37   11   34 1  
    38   12   35 1  
    39   13   36 1  
    40   14   37 1  
    41   15   38 1  
    42   15   39 1  
    43   17   40 1  
    44   18   41 1  
    45   19   42 1  
    46   21   43 1  
    47   21   44 1  
    48   24   45 1  
@<TRIPOS>SUBSTRUCTURE
     1 JXV         1

