### 
### Created by X-TOOL on Mon Aug  2 16:15:01 2021
### 

@<TRIPOS>MOLECULE
6msa_ligand
   30    32     1     0     0
SMALL
GAST_HUCK


@<TRIPOS>ATOM
      1 C4        -19.4850   11.3680  -35.4250 C.ar      1 JY4         0.1024
      2 C5        -20.3710   12.7970  -33.7840 C.ar      1 JY4         0.0429
      3 C6        -21.3410   14.5320  -35.7450 C.ar      1 JY4         0.1515
      4 C7        -21.5410   14.7980  -34.4030 C.ar      1 JY4         0.1510
      5 C8        -19.0110   10.5990  -36.5250 C.2       1 JY4         0.1548
      6 C10       -19.1200   10.8420  -37.9630 C.3       1 JY4         0.0370
      7 C1        -20.6460   13.3920  -36.1100 C.ar      1 JY4        -0.0041
      8 C11       -21.6060   15.0090  -38.0080 C.3       1 JY4         0.0632
      9 C12       -22.0900   16.3080  -32.7120 C.3       1 JY4         0.0642
     10 C2        -21.0660   13.9320  -33.4360 C.ar      1 JY4        -0.0023
     11 C3        -20.1710   12.5390  -35.1320 C.ar      1 JY4         0.0340
     12 C9        -19.0720   10.6300  -34.3310 C.ar      1 JY4         0.0601
     13 N13       -19.9350   11.9800  -32.8180 N.ar      1 JY4        -0.2706
     14 N14       -18.3570    9.4970  -36.1510 N.pl3     1 JY4        -0.2513
     15 N15       -19.2980   10.9250  -33.0510 N.ar      1 JY4        -0.2577
     16 N16       -18.4170    9.5370  -34.8130 N.2       1 JY4        -0.3684
     17 O17       -21.8630   15.4440  -36.6720 O.3       1 JY4        -0.3068
     18 O18       -22.2520   15.9390  -34.0830 O.3       1 JY4        -0.3047
     19 H1        -18.6299   10.0239  -38.5113 H         1 JY4         0.0593
     20 H2        -18.6305   11.7951  -38.2120 H         1 JY4         0.0593
     21 H3        -20.1815   10.8897  -38.2474 H         1 JY4         0.0593
     22 H4        -20.4753   13.1696  -37.1571 H         1 JY4         0.0538
     23 H5        -22.0236   15.7383  -38.7178 H         1 JY4         0.0586
     24 H6        -22.0762   14.0281  -38.1711 H         1 JY4         0.0586
     25 H7        -20.5203   14.9257  -38.1641 H         1 JY4         0.0586
     26 H8        -22.6724   17.2182  -32.5060 H         1 JY4         0.0588
     27 H9        -21.0263   16.4991  -32.5069 H         1 JY4         0.0588
     28 H10       -22.4466   15.4909  -32.0677 H         1 JY4         0.0588
     29 H11       -21.2436   14.1502  -32.3891 H         1 JY4         0.0485
     30 H12       -17.9123    8.7856  -36.7485 H         1 JY4         0.2725
@<TRIPOS>BOND
     1    1    5 2  
     2   11    1 ar 
     3    1   12 ar 
     4   10    2 ar 
     5    2   11 ar 
     6    2   13 ar 
     7    4    3 ar 
     8    3    7 ar 
     9    3   17 1  
    10    4   10 ar 
    11    4   18 1  
    12    5    6 1  
    13    5   14 1  
    14    7   11 ar 
    15   17    8 1  
    16   18    9 1  
    17   12   15 ar 
    18   12   16 2  
    19   13   15 ar 
    20   14   16 1  
    21    6   19 1  
    22    6   20 1  
    23    6   21 1  
    24    7   22 1  
    25    8   23 1  
    26    8   24 1  
    27    8   25 1  
    28    9   26 1  
    29    9   27 1  
    30    9   28 1  
    31   10   29 1  
    32   14   30 1  
@<TRIPOS>SUBSTRUCTURE
     1 JY4         1

