### 
### Created by X-TOOL on Mon Aug  2 16:15:01 2021
### 

@<TRIPOS>MOLECULE
6msc_ligand
   38    41     1     0     0
SMALL
GAST_HUCK


@<TRIPOS>ATOM
      1 N1        -21.5850   14.4990  -35.4700 N.ar      1 JY7        -0.2455
      2 N3        -20.6520   12.7240  -32.4740 N.pl3     1 JY7        -0.1746
      3 C4        -20.0440   11.4630  -36.9820 C.ar      1 JY7        -0.0183
      4 C5        -20.4260   12.4040  -35.9960 C.ar      1 JY7         0.0254
      5 C6        -21.0680   13.6070  -36.3920 C.ar      1 JY7         0.1098
      6 C7        -20.2270   12.1870  -34.5970 C.ar      1 JY7         0.0690
      7 C8        -20.8720   13.1220  -33.7680 C.ar      1 JY7         0.1680
      8 C10       -21.1140   13.2950  -31.2130 C.3       1 JY7         0.0602
      9 C13       -16.9190    8.8770  -34.8260 C.ar      1 JY7         0.0104
     10 C15       -19.3100    8.8040  -33.5340 C.ar      1 JY7        -0.0338
     11 C17       -22.2710   15.2300  -39.4620 C.3       1 JY7         0.0645
     12 C1        -20.2850   11.7390  -38.2820 C.ar      1 JY7         0.1355
     13 C11       -18.8000   10.0370  -33.9400 C.ar      1 JY7         0.0168
     14 C12       -17.5620   10.0910  -34.6120 C.ar      1 JY7        -0.0105
     15 C14       -18.5670    7.6710  -33.8140 C.ar      1 JY7         0.0018
     16 C16       -16.9240   11.3700  -35.0890 C.3       1 JY7        -0.0242
     17 C2        -20.8650   12.9050  -38.7270 C.ar      1 JY7         0.0178
     18 C3        -21.2660   13.8370  -37.7880 C.ar      1 JY7         0.1399
     19 C9        -19.6100   11.2690  -33.6980 C.2       1 JY7         0.0946
     20 F1        -19.9880   10.7830  -39.2110 F         1 JY7        -0.1754
     21 N2        -21.5140   14.2230  -34.1630 N.ar      1 JY7        -0.2431
     22 N4        -19.8820   11.5920  -32.4420 N.2       1 JY7        -0.1726
     23 N5        -17.3880    7.6870  -34.4470 N.ar      1 JY7        -0.3080
     24 O1        -21.8930   15.0110  -38.1010 O.3       1 JY7        -0.3058
     25 H1        -19.5645   10.5334  -36.6976 H         1 JY7         0.0489
     26 H2        -20.7294   12.6941  -30.3757 H         1 JY7         0.0580
     27 H3        -22.2138   13.2933  -31.1908 H         1 JY7         0.0580
     28 H4        -20.7470   14.3280  -31.1219 H         1 JY7         0.0580
     29 H5        -15.9646    8.8991  -35.3395 H         1 JY7         0.0753
     30 H6        -20.2593    8.7355  -33.0151 H         1 JY7         0.0683
     31 H7        -22.7607   16.2108  -39.5532 H         1 JY7         0.0589
     32 H8        -22.9682   14.4411  -39.7804 H         1 JY7         0.0589
     33 H9        -21.3750   15.2068  -40.0997 H         1 JY7         0.0589
     34 H10       -18.9640    6.7119  -33.5016 H         1 JY7         0.0758
     35 H11       -15.9668   11.1412  -35.5803 H         1 JY7         0.0410
     36 H12       -16.7458   12.0335  -34.2299 H         1 JY7         0.0410
     37 H13       -17.5936   11.8690  -35.8050 H         1 JY7         0.0410
     38 H14       -21.0038   13.0879  -39.7864 H         1 JY7         0.0560
@<TRIPOS>BOND
     1    5    1 ar 
     2    1   21 ar 
     3    7    2 1  
     4    2    8 1  
     5    2   22 1  
     6    4    3 ar 
     7   12    3 ar 
     8    5    4 ar 
     9    4    6 ar 
    10   18    5 ar 
    11    6    7 ar 
    12    6   19 1  
    13   21    7 ar 
    14   14    9 ar 
    15    9   23 ar 
    16   13   10 ar 
    17   10   15 ar 
    18   24   11 1  
    19   17   12 ar 
    20   12   20 1  
    21   13   14 ar 
    22   19   13 1  
    23   14   16 1  
    24   15   23 ar 
    25   18   17 ar 
    26   18   24 1  
    27   19   22 2  
    28    3   25 1  
    29    8   26 1  
    30    8   27 1  
    31    8   28 1  
    32    9   29 1  
    33   10   30 1  
    34   11   31 1  
    35   11   32 1  
    36   11   33 1  
    37   15   34 1  
    38   16   35 1  
    39   16   36 1  
    40   16   37 1  
    41   17   38 1  
@<TRIPOS>SUBSTRUCTURE
     1 JY7         1

