### 
### Created by X-TOOL on Mon Aug  2 16:15:02 2021
### 

@<TRIPOS>MOLECULE
6msn_ligand
   13    12     1     0     0
SMALL
GAST_HUCK


@<TRIPOS>ATOM
      1 C01        24.0170    8.2100  -35.3800 C.3       1 JYD         0.0235
      2 C02        23.3170    6.8990  -35.7210 C.3       1 JYD         0.0660
      3 C03        22.1150    7.1360  -36.6360 C.2       1 JYD         0.0491
      4 C07        23.1960    9.0580  -34.4150 C.2       1 JYD         0.0375
      5 O04        21.2020    7.9280  -36.2950 O.co2     1 JYD        -0.5678
      6 O05        22.0280    6.5400  -37.7340 O.co2     1 JYD        -0.5678
      7 O08        23.3790   10.3020  -34.3700 O.co2     1 JYD        -0.5689
      8 O09        22.3370    8.5130  -33.6690 O.co2     1 JYD        -0.5689
      9 S06        24.5320    5.8130  -36.5230 S.3       1 JYD        -0.1580
     10 H1         24.1762    8.7799  -36.3073 H         1 JYD         0.0459
     11 H2         24.9889    7.9844  -34.9168 H         1 JYD         0.0459
     12 H3         22.9637    6.4257  -34.7930 H         1 JYD         0.0595
     13 H4         25.3142    5.6706  -35.9034 H         1 JYD         0.1039
@<TRIPOS>BOND
     1    1    2 1  
     2    1    4 1  
     3    2    3 1  
     4    2    9 1  
     5    3    5 ar 
     6    3    6 ar 
     7    4    7 ar 
     8    4    8 ar 
     9    1   10 1  
    10    1   11 1  
    11    2   12 1  
    12    9   13 1  
@<TRIPOS>SUBSTRUCTURE
     1 JYD         1

