### 
### Created by X-TOOL on Mon Aug  2 16:15:03 2021
### 

@<TRIPOS>MOLECULE
6mso_ligand
   13    12     1     0     0
SMALL
GAST_HUCK


@<TRIPOS>ATOM
      1 C01        95.7090  -10.5900   69.7170 C.3       1 JYD         0.0235
      2 C02        96.6780   -9.6430   69.0550 C.3       1 JYD         0.0660
      3 C03        96.5980   -9.7850   67.5590 C.2       1 JYD         0.0491
      4 C07        96.1090  -10.8590   71.1480 C.2       1 JYD         0.0375
      5 O04        97.2140  -10.7170   66.9920 O.co2     1 JYD        -0.5678
      6 O05        95.9150   -8.9580   66.9110 O.co2     1 JYD        -0.5678
      7 O08        97.2830  -10.5910   71.5160 O.co2     1 JYD        -0.5689
      8 O09        95.2620  -11.3440   71.9400 O.co2     1 JYD        -0.5689
      9 S06        96.1760   -7.9490   69.3900 S.3       1 JYD        -0.1580
     10 H1         95.6977  -11.5396   69.1619 H         1 JYD         0.0459
     11 H2         94.7034  -10.1445   69.7021 H         1 JYD         0.0459
     12 H3         97.6998   -9.8330   69.4151 H         1 JYD         0.0595
     13 H4         96.2061   -7.7811   70.3834 H         1 JYD         0.1039
@<TRIPOS>BOND
     1    1    2 1  
     2    1    4 1  
     3    2    3 1  
     4    2    9 1  
     5    3    5 ar 
     6    3    6 ar 
     7    4    7 ar 
     8    4    8 ar 
     9    1   10 1  
    10    1   11 1  
    11    2   12 1  
    12    9   13 1  
@<TRIPOS>SUBSTRUCTURE
     1 JYD         1

