### 
### Created by X-TOOL on Wed Jan  1 15:39:37 2020
### 

@<TRIPOS>MOLECULE
6msy_ligand
   87    90     1     0     0
SMALL
GAST_HUCK


@<TRIPOS>ATOM
      1 C1         -4.0450  -11.2980   16.0050 C.3       1 MAN         0.1885
      2 C2         -4.8780  -12.5310   16.0010 C.3       1 MAN         0.1341
      3 C3         -4.8160  -13.2460   14.5920 C.3       1 MAN         0.1141
      4 C4         -5.2330  -12.2840   13.5280 C.3       1 MAN         0.1119
      5 C5         -4.3140  -11.0320   13.5790 C.3       1 MAN         0.1130
      6 C6         -4.6560   -9.9540   12.5280 C.3       1 MAN         0.0730
      7 O2         -6.1820  -12.1210   16.1600 O.3       1 MAN        -0.3841
      8 O3         -5.6930  -14.3590   14.5740 O.3       1 MAN        -0.3864
      9 O4         -5.0890  -12.8450   12.1030 O.3       1 MAN        -0.3865
     10 O5         -4.3570  -10.3910   14.9080 O.3       1 MAN        -0.3405
     11 O6         -5.9490   -9.3450   12.8850 O.3       1 MAN        -0.3924
     12 C1         -1.1500  -10.3320   14.8420 C.3       1 MAN         0.1889
     13 C2         -1.8100  -10.7190   16.2150 C.3       1 MAN         0.1406
     14 C3         -0.7160  -11.1680   17.1230 C.3       1 MAN         0.1144
     15 C4         -0.0380  -12.4220   16.4630 C.3       1 MAN         0.1119
     16 C5          0.5130  -12.0550   15.0840 C.3       1 MAN         0.1130
     17 C6          1.0420  -13.3500   14.2820 C.3       1 MAN         0.0730
     18 O2         -2.7140  -11.8480   15.9290 O.3       1 MAN        -0.3378
     19 O3         -1.1590  -11.5130   18.4400 O.3       1 MAN        -0.3864
     20 O4          1.0610  -12.8630   17.2070 O.3       1 MAN        -0.3865
     21 O5         -0.4980  -11.4380   14.2840 O.3       1 MAN        -0.3405
     22 O6          1.2460  -12.9330   12.8760 O.3       1 MAN        -0.3924
     23 C1          1.7700   -8.5720   13.8140 C.3       1 MAN         0.1888
     24 C2          0.2380   -8.7630   13.7850 C.3       1 MAN         0.1406
     25 C3         -0.4240   -7.3650   13.6070 C.3       1 MAN         0.1144
     26 C4          0.0930   -6.3360   14.7010 C.3       1 MAN         0.1119
     27 C5          1.6780   -6.3310   14.6830 C.3       1 MAN         0.1130
     28 C6          2.2380   -5.3570   15.8090 C.3       1 MAN         0.0730
     29 O2         -0.2380   -9.2160   15.0610 O.3       1 MAN        -0.3377
     30 O3         -1.8710   -7.4100   13.5820 O.3       1 MAN        -0.3864
     31 O4         -0.3780   -5.0240   14.3630 O.3       1 MAN        -0.3865
     32 O5          2.1290   -7.7140   14.9020 O.3       1 MAN        -0.3405
     33 O6          3.6240   -5.3860   15.7890 O.3       1 MAN        -0.3924
     34 C1          4.9110  -10.2400   10.6700 C.3       1 MAN         0.1854
     35 C2          3.5070  -10.0520   11.4680 C.3       1 MAN         0.1343
     36 C3          3.1270   -8.5700   11.5310 C.3       1 MAN         0.1206
     37 C4          4.2500   -7.5640   11.5220 C.3       1 MAN         0.1123
     38 C5          5.4300   -7.9170   10.5960 C.3       1 MAN         0.1130
     39 C6          6.4900   -7.0680   11.1760 C.3       1 MAN         0.0730
     40 O1          4.7140  -10.6110    9.1870 O.3       1 MAN        -0.3649
     41 O2          3.5830  -10.4960   12.7660 O.3       1 MAN        -0.3841
     42 O3          2.1420   -8.0390   12.5240 O.3       1 MAN        -0.3400
     43 O4          3.6770   -6.4130   11.0160 O.3       1 MAN        -0.3865
     44 O5          5.8050   -9.1790   10.8770 O.3       1 MAN        -0.3407
     45 O6          6.6410   -7.4610   12.5670 O.3       1 MAN        -0.3924
     46 H1         -4.1783  -10.7496   16.9492 H         1 MAN         0.0938
     47 H2         -4.5650  -13.2162   16.8026 H         1 MAN         0.0671
     48 H3         -3.7876  -13.5859   14.3999 H         1 MAN         0.0648
     49 H4         -6.2800  -11.9960   13.7035 H         1 MAN         0.0647
     50 H5         -3.2860  -11.3747   13.3899 H         1 MAN         0.0647
     51 H6         -4.7261  -10.4160   11.5322 H         1 MAN         0.0584
     52 H7         -3.8723   -9.1822   12.5198 H         1 MAN         0.0584
     53 H8         -6.7562  -12.8774   16.1324 H         1 MAN         0.2101
     54 H9         -5.6499  -14.7810   13.7240 H         1 MAN         0.2100
     55 H10        -4.1810  -13.0748   11.9446 H         1 MAN         0.2100
     56 H11        -5.8844   -8.9494   13.7463 H         1 MAN         0.2095
     57 H12        -1.9384  -10.0095   14.1460 H         1 MAN         0.0938
     58 H13        -2.3596   -9.8727   16.6528 H         1 MAN         0.0675
     59 H14         0.0208  -10.3559   17.2102 H         1 MAN         0.0648
     60 H15        -0.7803  -13.2289   16.3748 H         1 MAN         0.0647
     61 H16         1.3479  -11.3518   15.2198 H         1 MAN         0.0647
     62 H17         0.2960  -14.1568   14.3325 H         1 MAN         0.0584
     63 H18         1.9910  -13.7005   14.7138 H         1 MAN         0.0584
     64 H19        -1.7863  -12.2243   18.3857 H         1 MAN         0.2100
     65 H20         1.7026  -12.1649   17.2662 H         1 MAN         0.2100
     66 H21         0.4223  -12.6267   12.5150 H         1 MAN         0.2095
     67 H22         2.2644   -9.5440   13.9583 H         1 MAN         0.0938
     68 H23        -0.0491   -9.4569   12.9813 H         1 MAN         0.0675
     69 H24        -0.1016   -6.9857   12.6261 H         1 MAN         0.0648
     70 H25        -0.2741   -6.6250   15.6968 H         1 MAN         0.0647
     71 H26         2.0342   -5.9823   13.7025 H         1 MAN         0.0647
     72 H27         1.8774   -5.6877   16.7942 H         1 MAN         0.0584
     73 H28         1.8887   -4.3320   15.6158 H         1 MAN         0.0584
     74 H29        -2.1930   -7.6816   14.4335 H         1 MAN         0.2100
     75 H30        -0.0664   -4.7904   13.4966 H         1 MAN         0.2100
     76 H31         3.9235   -6.2721   15.9554 H         1 MAN         0.2095
     77 H32         5.3924  -11.1174   11.1266 H         1 MAN         0.0935
     78 H33         2.7239  -10.6133   10.9372 H         1 MAN         0.0671
     79 H34         2.6216   -8.4335   10.5635 H         1 MAN         0.0651
     80 H35         4.6227   -7.4122   12.5458 H         1 MAN         0.0647
     81 H36         5.2335   -7.7471    9.5271 H         1 MAN         0.0647
     82 H37         6.2013   -6.0085   11.1128 H         1 MAN         0.0584
     83 H38         7.4354   -7.2233   10.6356 H         1 MAN         0.0584
     84 H39         4.0998  -11.3327    9.1212 H         1 MAN         0.2126
     85 H40         2.7402  -10.3805   13.1889 H         1 MAN         0.2101
     86 H41         2.9414   -6.1605   11.5616 H         1 MAN         0.2100
     87 H42         6.8847   -8.3781   12.6111 H         1 MAN         0.2095
@<TRIPOS>BOND
     1    1    2 1  
     2    1   10 1  
     3   18    1 1  
     4    2    3 1  
     5    2    7 1  
     6    3    4 1  
     7    3    8 1  
     8    5    4 1  
     9    4    9 1  
    10    5    6 1  
    11   10    5 1  
    12    6   11 1  
    13   12   13 1  
    14   12   21 1  
    15   29   12 1  
    16   13   14 1  
    17   13   18 1  
    18   14   15 1  
    19   14   19 1  
    20   16   15 1  
    21   15   20 1  
    22   16   17 1  
    23   21   16 1  
    24   17   22 1  
    25   23   24 1  
    26   23   32 1  
    27   42   23 1  
    28   24   25 1  
    29   24   29 1  
    30   25   26 1  
    31   25   30 1  
    32   27   26 1  
    33   26   31 1  
    34   27   28 1  
    35   32   27 1  
    36   28   33 1  
    37   35   34 1  
    38   34   40 1  
    39   34   44 1  
    40   36   35 1  
    41   35   41 1  
    42   36   37 1  
    43   36   42 1  
    44   37   38 1  
    45   37   43 1  
    46   38   39 1  
    47   38   44 1  
    48   39   45 1  
    49    1   46 1  
    50    2   47 1  
    51    3   48 1  
    52    4   49 1  
    53    5   50 1  
    54    6   51 1  
    55    6   52 1  
    56    7   53 1  
    57    8   54 1  
    58    9   55 1  
    59   11   56 1  
    60   12   57 1  
    61   13   58 1  
    62   14   59 1  
    63   15   60 1  
    64   16   61 1  
    65   17   62 1  
    66   17   63 1  
    67   19   64 1  
    68   20   65 1  
    69   22   66 1  
    70   23   67 1  
    71   24   68 1  
    72   25   69 1  
    73   26   70 1  
    74   27   71 1  
    75   28   72 1  
    76   28   73 1  
    77   30   74 1  
    78   31   75 1  
    79   33   76 1  
    80   34   77 1  
    81   35   78 1  
    82   36   79 1  
    83   37   80 1  
    84   38   81 1  
    85   39   82 1  
    86   39   83 1  
    87   40   84 1  
    88   41   85 1  
    89   43   86 1  
    90   45   87 1  
@<TRIPOS>SUBSTRUCTURE
     1 MAN         1

