### 
### Created by X-TOOL on Mon Aug  2 16:15:03 2021
### 

@<TRIPOS>MOLECULE
6mt0_ligand
   56    61     1     0     0
SMALL
GAST_HUCK


@<TRIPOS>ATOM
      1 C01       -38.0300   -4.3550    2.6360 C.3       1 JYG        -0.0162
      2 C02       -37.8450   -3.1670    1.7360 C.3       1 JYG         0.1356
      3 N03       -36.9020   -3.4650    0.7220 N.am      1 JYG        -0.2571
      4 C04       -37.5390   -3.3290   -0.5460 C.2       1 JYG         0.2134
      5 O05       -37.0030   -3.5210   -1.6230 O.2       1 JYG        -0.3884
      6 C06       -38.9760   -2.9060   -0.2940 C.2       1 JYG         0.1262
      7 C07       -40.2150   -2.5800   -0.8810 C.2       1 JYG         0.0270
      8 C08       -41.0910   -2.2640    0.1530 C.2       1 JYG         0.1467
      9 N09       -40.4210   -2.4500    1.3000 N.pl3     1 JYG        -0.2000
     10 C10       -39.1450   -2.8160    1.0530 C.2       1 JYG         0.1689
     11 C11       -42.4530   -1.9390    0.0460 C.ar      1 JYG         0.0983
     12 C12       -43.0570   -1.8220   -1.2050 C.ar      1 JYG        -0.0242
     13 C13       -44.4160   -1.5480   -1.3210 C.ar      1 JYG        -0.0424
     14 C14       -45.2130   -1.4080   -0.1850 C.ar      1 JYG        -0.0274
     15 C15       -44.6240   -1.5360    1.1040 C.ar      1 JYG         0.1016
     16 C16       -45.4110   -1.3990    2.2930 C.2       1 JYG         0.2064
     17 O17       -46.5990   -1.1580    2.2070 O.2       1 JYG        -0.3902
     18 N18       -44.8300   -1.5350    3.5100 N.am      1 JYG        -0.2415
     19 C19       -43.5090   -1.8010    3.5920 C.cat     1 JYG         0.1837
     20 N20       -42.8560   -1.9310    4.8490 N.pl3     1 JYG        -0.3204
     21 C21       -41.5160   -2.3360    4.9450 C.3       1 JYG         0.0429
     22 C22       -41.1590   -3.7840    4.6360 C.3       1 JYG        -0.0386
     23 C23       -40.4760   -1.2670    4.6500 C.3       1 JYG        -0.0243
     24 C24       -40.7320   -1.7160    6.0850 C.3       1 JYG        -0.0243
     25 N25       -42.7520   -1.9280    2.4800 N.pl3     1 JYG        -0.2607
     26 C26       -43.2890   -1.8030    1.2140 C.ar      1 JYG         0.1297
     27 C27       -45.6370   -1.4360    4.6890 C.3       1 JYG         0.0514
     28 C28       -45.8390   -0.1250    5.4110 C.3       1 JYG        -0.0393
     29 C29       -45.5580   -2.6550    5.6090 C.3       1 JYG        -0.0252
     30 C30       -46.7840   -2.4530    4.7470 C.3       1 JYG        -0.0252
     31 H1        -38.7638   -4.1115    3.4185 H         1 JYG         0.0301
     32 H2        -37.0685   -4.6145    3.1030 H         1 JYG         0.0301
     33 H3        -38.3933   -5.2092    2.0458 H         1 JYG         0.0301
     34 H4        -37.4946   -2.3116    2.3322 H         1 JYG         0.0948
     35 H5        -35.9485   -3.7271    0.8708 H         1 JYG         0.1899
     36 H6        -40.4442   -2.5761   -1.9456 H         1 JYG         0.0794
     37 H7        -40.8245   -2.3301    2.2401 H         1 JYG         0.2549
     38 H8        -42.4589   -1.9463   -2.1005 H         1 JYG         0.0761
     39 H9        -44.8600   -1.4422   -2.3042 H         1 JYG         0.0638
     40 H10       -46.2729   -1.2033   -0.2833 H         1 JYG         0.0815
     41 H11       -43.3802   -1.7225    5.7108 H         1 JYG         0.1782
     42 H12       -40.0756   -3.9288    4.7592 H         1 JYG         0.0256
     43 H13       -41.4448   -4.0191    3.6002 H         1 JYG         0.0256
     44 H14       -41.6986   -4.4499    5.3255 H         1 JYG         0.0256
     45 H15       -40.7928   -0.2662    4.3212 H         1 JYG         0.0292
     46 H16       -39.5354   -1.5373    4.1478 H         1 JYG         0.0292
     47 H17       -39.9752   -2.3095    6.6189 H         1 JYG         0.0292
     48 H18       -41.2326   -1.0384    6.7923 H         1 JYG         0.0292
     49 H19       -41.7457   -2.1236    2.5795 H         1 JYG         0.2185
     50 H20       -46.4902   -0.2834    6.2833 H         1 JYG         0.0254
     51 H21       -46.3083    0.6002    4.7300 H         1 JYG         0.0254
     52 H22       -44.8657    0.2631    5.7457 H         1 JYG         0.0254
     53 H23       -45.6266   -2.5247    6.6991 H         1 JYG         0.0291
     54 H24       -44.8553   -3.4698    5.3806 H         1 JYG         0.0291
     55 H25       -46.9705   -3.1200    3.8924 H         1 JYG         0.0291
     56 H26       -47.7418   -2.1748    5.2109 H         1 JYG         0.0291
@<TRIPOS>BOND
     1    1    2 1  
     2    2    3 1  
     3    2   10 1  
     4    3    4 am 
     5    4    5 2  
     6    4    6 1  
     7    6    7 1  
     8    6   10 2  
     9    7    8 2  
    10    8    9 1  
    11    8   11 1  
    12    9   10 1  
    13   11   12 ar 
    14   11   26 ar 
    15   12   13 ar 
    16   13   14 ar 
    17   14   15 ar 
    18   15   16 1  
    19   15   26 ar 
    20   16   17 2  
    21   16   18 am 
    22   18   19 ar 
    23   18   27 1  
    24   19   20 ar 
    25   19   25 ar 
    26   20   21 1  
    27   21   22 1  
    28   21   23 1  
    29   21   24 1  
    30   23   24 1  
    31   25   26 1  
    32   27   28 1  
    33   27   29 1  
    34   27   30 1  
    35   29   30 1  
    36    1   31 1  
    37    1   32 1  
    38    1   33 1  
    39    2   34 1  
    40    3   35 1  
    41    7   36 1  
    42    9   37 1  
    43   12   38 1  
    44   13   39 1  
    45   14   40 1  
    46   20   41 1  
    47   22   42 1  
    48   22   43 1  
    49   22   44 1  
    50   23   45 1  
    51   23   46 1  
    52   24   47 1  
    53   24   48 1  
    54   25   49 1  
    55   28   50 1  
    56   28   51 1  
    57   28   52 1  
    58   29   53 1  
    59   29   54 1  
    60   30   55 1  
    61   30   56 1  
@<TRIPOS>SUBSTRUCTURE
     1 JYG         1

