### 
### Created by X-TOOL on Wed Jan  1 15:39:37 2020
### 

@<TRIPOS>MOLECULE
6mu3_ligand
   87    90     1     0     0
SMALL
GAST_HUCK


@<TRIPOS>ATOM
      1 C1         18.5870  -16.7340  -66.5550 C.3       1 BMA         0.1854
      2 C2         18.7300  -15.8560  -65.3030 C.3       1 BMA         0.1343
      3 C3         17.4620  -15.0010  -65.1510 C.3       1 BMA         0.1206
      4 C4         17.1560  -14.2260  -66.4420 C.3       1 BMA         0.1123
      5 C5         17.0730  -15.2130  -67.6230 C.3       1 BMA         0.1130
      6 C6         16.8280  -14.5360  -68.9750 C.3       1 BMA         0.0730
      7 O1         19.8210  -17.3770  -66.7870 O.3       1 BMA        -0.3649
      8 O2         19.8130  -14.9490  -65.4480 O.3       1 BMA        -0.3841
      9 O3         17.5400  -14.1130  -64.0300 O.3       1 BMA        -0.3400
     10 O4         15.9170  -13.5380  -66.3180 O.3       1 BMA        -0.3865
     11 O5         18.3050  -15.9550  -67.7000 O.3       1 BMA        -0.3407
     12 O6         17.7170  -13.4250  -69.1190 O.3       1 BMA        -0.3924
     13 C1         16.5370  -14.4830  -63.0480 C.3       1 MAN         0.1888
     14 C2         16.4270  -13.3450  -61.9930 C.3       1 MAN         0.1406
     15 C3         17.6890  -13.3080  -61.1170 C.3       1 MAN         0.1144
     16 C4         17.9980  -14.6950  -60.5260 C.3       1 MAN         0.1119
     17 C5         18.0760  -15.7440  -61.6500 C.3       1 MAN         0.1130
     18 C6         18.2600  -17.1580  -61.1330 C.3       1 MAN         0.0730
     19 O2         15.3450  -13.6130  -61.1000 O.3       1 MAN        -0.3377
     20 O3         17.6020  -12.3350  -60.0720 O.3       1 MAN        -0.3864
     21 O4         19.2410  -14.6580  -59.8620 O.3       1 MAN        -0.3865
     22 O5         16.8530  -15.7240  -62.4200 O.3       1 MAN        -0.3405
     23 O6         18.3010  -18.0400  -62.2570 O.3       1 MAN        -0.3924
     24 C1         14.4480  -12.4840  -61.0750 C.3       1 MAN         0.1889
     25 C2         13.4170  -12.7190  -59.9360 C.3       1 MAN         0.1406
     26 C3         12.4450  -13.8230  -60.3420 C.3       1 MAN         0.1144
     27 C4         11.7730  -13.4870  -61.6770 C.3       1 MAN         0.1119
     28 C5         12.8180  -13.2750  -62.7620 C.3       1 MAN         0.1130
     29 C6         12.1790  -12.7790  -64.0480 C.3       1 MAN         0.0730
     30 O2         12.6110  -11.5500  -59.7570 O.3       1 MAN        -0.3378
     31 O3         11.4380  -14.0320  -59.3700 O.3       1 MAN        -0.3864
     32 O4         10.9280  -14.5540  -62.0690 O.3       1 MAN        -0.3865
     33 O5         13.7950  -12.2800  -62.3440 O.3       1 MAN        -0.3405
     34 O6         13.1980  -12.2650  -64.8990 O.3       1 MAN        -0.3924
     35 C1         13.0110  -10.8010  -58.5860 C.3       1 MAN         0.1885
     36 C2         11.9470   -9.6990  -58.4080 C.3       1 MAN         0.1341
     37 C3         12.0970   -8.6640  -59.5170 C.3       1 MAN         0.1141
     38 C4         13.5260   -8.0980  -59.5410 C.3       1 MAN         0.1119
     39 C5         14.5180   -9.2440  -59.7390 C.3       1 MAN         0.1130
     40 C6         15.9590   -8.7960  -59.6550 C.3       1 MAN         0.0730
     41 O2         12.1400   -8.9860  -57.1840 O.3       1 MAN        -0.3841
     42 O3         11.1450   -7.6160  -59.3930 O.3       1 MAN        -0.3864
     43 O4         13.6670   -7.1830  -60.6140 O.3       1 MAN        -0.3865
     44 O5         14.3230  -10.2460  -58.7100 O.3       1 MAN        -0.3405
     45 O6         16.2400   -8.4850  -58.2900 O.3       1 MAN        -0.3924
     46 H1         17.7886  -17.4745  -66.3993 H         1 BMA         0.0935
     47 H2         18.8795  -16.4904  -64.4169 H         1 BMA         0.0671
     48 H3         16.6228  -15.6884  -64.9687 H         1 BMA         0.0651
     49 H4         17.9594  -13.4981  -66.6281 H         1 BMA         0.0647
     50 H5         16.2430  -15.9088  -67.4307 H         1 BMA         0.0647
     51 H6         15.7877  -14.1821  -69.0249 H         1 BMA         0.0584
     52 H7         17.0090  -15.2580  -69.7849 H         1 BMA         0.0584
     53 H8         20.4967  -16.7233  -66.9236 H         1 BMA         0.2126
     54 H9         19.8664  -14.3956  -64.6777 H         1 BMA         0.2101
     55 H10        15.9657  -12.9289  -65.5906 H         1 BMA         0.2100
     56 H11        17.5646  -13.0056  -69.9576 H         1 BMA         0.2095
     57 H12        15.5679  -14.5905  -63.5572 H         1 BMA         0.0938
     58 H13        16.2807  -12.3804  -62.5010 H         1 BMA         0.0675
     59 H14        18.5305  -13.0236  -61.7659 H         1 BMA         0.0648
     60 H15        17.2060  -14.9739  -59.8154 H         1 BMA         0.0647
     61 H16        18.9251  -15.4910  -62.3019 H         1 BMA         0.0647
     62 H17        17.4186  -17.4279  -60.4778 H         1 BMA         0.0584
     63 H18        19.2016  -17.2291  -60.5688 H         1 BMA         0.0584
     64 H19        16.9084  -12.5792  -59.4704 H         1 BMA         0.2100
     65 H20        19.2072  -14.0138  -59.1647 H         1 BMA         0.2100
     66 H21        17.4868  -17.9715  -62.7417 H         1 BMA         0.2095
     67 H22        15.0292  -11.5790  -60.8446 H         1 BMA         0.0938
     68 H23        13.9398  -12.9800  -59.0040 H         1 BMA         0.0675
     69 H24        13.0167  -14.7556  -60.4579 H         1 BMA         0.0648
     70 H25        11.1771  -12.5698  -61.5600 H         1 BMA         0.0647
     71 H26        13.3277  -14.2308  -62.9536 H         1 BMA         0.0647
     72 H27        11.4541  -11.9843  -63.8179 H         1 BMA         0.0584
     73 H28        11.6637  -13.6114  -64.5496 H         1 BMA         0.0584
     74 H29        10.9168  -13.2428  -59.2808 H         1 BMA         0.2100
     75 H30        10.2696  -14.6975  -61.3994 H         1 BMA         0.2100
     76 H31        13.6418  -11.5476  -64.4622 H         1 BMA         0.2095
     77 H32        13.0014  -11.4656  -57.7095 H         1 BMA         0.0938
     78 H33        10.9438  -10.1496  -58.4320 H         1 BMA         0.0671
     79 H34        11.9157   -9.1708  -60.4763 H         1 BMA         0.0648
     80 H35        13.7343   -7.5861  -58.5899 H         1 BMA         0.0647
     81 H36        14.3398   -9.6914  -60.7280 H         1 BMA         0.0647
     82 H37        16.1108   -7.9043  -60.2809 H         1 BMA         0.0584
     83 H38        16.6225   -9.6030  -59.9992 H         1 BMA         0.0584
     84 H39        11.4843   -8.3026  -57.1101 H         1 BMA         0.2101
     85 H40        11.2295   -7.0240  -60.1311 H         1 BMA         0.2100
     86 H41        13.4869   -7.6279  -61.4339 H         1 BMA         0.2100
     87 H42        16.1028   -9.2583  -57.7555 H         1 BMA         0.2095
@<TRIPOS>BOND
     1    1    2 1  
     2    1    7 1  
     3    1   11 1  
     4    2    3 1  
     5    2    8 1  
     6    3    4 1  
     7    3    9 1  
     8    4    5 1  
     9    4   10 1  
    10    5    6 1  
    11    5   11 1  
    12    6   12 1  
    13    9   13 1  
    14   13   14 1  
    15   13   22 1  
    16   14   15 1  
    17   14   19 1  
    18   15   16 1  
    19   15   20 1  
    20   16   17 1  
    21   16   21 1  
    22   17   18 1  
    23   17   22 1  
    24   18   23 1  
    25   19   24 1  
    26   24   25 1  
    27   24   33 1  
    28   25   26 1  
    29   25   30 1  
    30   26   27 1  
    31   26   31 1  
    32   27   28 1  
    33   27   32 1  
    34   28   29 1  
    35   28   33 1  
    36   29   34 1  
    37   30   35 1  
    38   35   36 1  
    39   35   44 1  
    40   36   37 1  
    41   36   41 1  
    42   37   38 1  
    43   37   42 1  
    44   38   39 1  
    45   38   43 1  
    46   39   40 1  
    47   39   44 1  
    48   40   45 1  
    49    1   46 1  
    50    2   47 1  
    51    3   48 1  
    52    4   49 1  
    53    5   50 1  
    54    6   51 1  
    55    6   52 1  
    56    7   53 1  
    57    8   54 1  
    58   10   55 1  
    59   12   56 1  
    60   13   57 1  
    61   14   58 1  
    62   15   59 1  
    63   16   60 1  
    64   17   61 1  
    65   18   62 1  
    66   18   63 1  
    67   20   64 1  
    68   21   65 1  
    69   23   66 1  
    70   24   67 1  
    71   25   68 1  
    72   26   69 1  
    73   27   70 1  
    74   28   71 1  
    75   29   72 1  
    76   29   73 1  
    77   31   74 1  
    78   32   75 1  
    79   34   76 1  
    80   35   77 1  
    81   36   78 1  
    82   37   79 1  
    83   38   80 1  
    84   39   81 1  
    85   40   82 1  
    86   40   83 1  
    87   41   84 1  
    88   42   85 1  
    89   43   86 1  
    90   45   87 1  
@<TRIPOS>SUBSTRUCTURE
     1 BMA         1

