### 
### Created by X-TOOL on Wed Jan  1 15:39:38 2020
### 

@<TRIPOS>MOLECULE
6mub_ligand
  108   112     1     0     0
SMALL
GAST_HUCK


@<TRIPOS>ATOM
      1 C1         19.0600  -16.4000  -62.1800 C.3       1 BMA         0.1854
      2 C2         18.9340  -17.5260  -61.1440 C.3       1 BMA         0.1343
      3 C3         17.4690  -17.6600  -60.7140 C.3       1 BMA         0.1206
      4 C4         16.8990  -16.3020  -60.2720 C.3       1 BMA         0.1123
      5 C5         17.1090  -15.2540  -61.3860 C.3       1 BMA         0.1134
      6 C6         16.6680  -13.8650  -60.9750 C.3       1 BMA         0.0796
      7 O1         20.4330  -16.1840  -62.3880 O.3       1 BMA        -0.3649
      8 O2         19.6820  -17.2220  -59.9690 O.3       1 BMA        -0.3841
      9 O3         17.2940  -18.6400  -59.6810 O.3       1 BMA        -0.3400
     10 O4         15.5130  -16.4230  -59.9850 O.3       1 BMA        -0.3865
     11 O5         18.5120  -15.1880  -61.7080 O.3       1 BMA        -0.3407
     12 O6         15.3440  -13.9470  -60.4730 O.3       1 BMA        -0.3460
     13 C1         14.6510  -12.7470  -60.8690 C.3       1 MAN         0.1884
     14 C2         13.3790  -12.6060  -59.9810 C.3       1 MAN         0.1406
     15 C3         12.3390  -13.6350  -60.3900 C.3       1 MAN         0.1144
     16 C4         12.0700  -13.5410  -61.9050 C.3       1 MAN         0.1119
     17 C5         13.3820  -13.8070  -62.6460 C.3       1 MAN         0.1130
     18 C6         13.2430  -13.7590  -64.1600 C.3       1 MAN         0.0730
     19 O2         12.7570  -11.3340  -60.1950 O.3       1 MAN        -0.3378
     20 O3         11.1340  -13.4840  -59.6460 O.3       1 MAN        -0.3864
     21 O4         11.1040  -14.4970  -62.3010 O.3       1 MAN        -0.3865
     22 O5         14.3340  -12.7960  -62.2580 O.3       1 MAN        -0.3405
     23 O6         13.0640  -12.4010  -64.5520 O.3       1 MAN        -0.3924
     24 C1         12.7470  -10.5600  -58.9750 C.3       1 MAN         0.1885
     25 C2         11.9710   -9.2420  -59.2710 C.3       1 MAN         0.1341
     26 C3         12.8250   -8.2630  -60.0800 C.3       1 MAN         0.1141
     27 C4         14.2310   -8.1130  -59.5040 C.3       1 MAN         0.1119
     28 C5         14.8750   -9.4790  -59.3940 C.3       1 MAN         0.1130
     29 C6         16.2640   -9.4350  -58.8090 C.3       1 MAN         0.0730
     30 O2         11.6350   -8.5510  -58.0730 O.3       1 MAN        -0.3841
     31 O3         12.2120   -6.9910  -60.1540 O.3       1 MAN        -0.3864
     32 O4         15.0100   -7.3100  -60.3710 O.3       1 MAN        -0.3865
     33 O5         14.0670  -10.3070  -58.5250 O.3       1 MAN        -0.3405
     34 O6         16.5080  -10.7010  -58.1960 O.3       1 MAN        -0.3924
     35 C1         17.7950  -19.9090  -60.1670 C.3       1 MAN         0.1888
     36 C2         16.5690  -20.8180  -60.5380 C.3       1 MAN         0.1406
     37 C3         15.9440  -21.4520  -59.2890 C.3       1 MAN         0.1144
     38 C4         17.0170  -22.0830  -58.3940 C.3       1 MAN         0.1119
     39 C5         18.0330  -21.0090  -58.0040 C.3       1 MAN         0.1130
     40 C6         19.1330  -21.5320  -57.1030 C.3       1 MAN         0.0730
     41 O2         16.9830  -21.8980  -61.3950 O.3       1 MAN        -0.3378
     42 O3         14.9470  -22.4130  -59.6190 O.3       1 MAN        -0.3864
     43 O4         16.4200  -22.6190  -57.2240 O.3       1 MAN        -0.3865
     44 O5         18.6620  -20.5180  -59.2010 O.3       1 MAN        -0.3405
     45 O6         20.0440  -20.4650  -56.8580 O.3       1 MAN        -0.3924
     46 C1         16.1820  -21.9610  -62.6050 C.3       1 MAN         0.1885
     47 C2         16.8740  -22.9840  -63.5560 C.3       1 MAN         0.1341
     48 C3         18.1180  -22.3640  -64.1840 C.3       1 MAN         0.1141
     49 C4         17.7610  -21.0620  -64.9010 C.3       1 MAN         0.1119
     50 C5         17.1610  -20.0780  -63.8980 C.3       1 MAN         0.1130
     51 C6         16.6880  -18.7940  -64.5480 C.3       1 MAN         0.0730
     52 O2         16.0210  -23.3320  -64.6470 O.3       1 MAN        -0.3841
     53 O3         18.7580  -23.2610  -65.0840 O.3       1 MAN        -0.3864
     54 O4         18.9270  -20.4890  -65.4700 O.3       1 MAN        -0.3865
     55 O5         16.0060  -20.6770  -63.2400 O.3       1 MAN        -0.3405
     56 O6         15.6210  -19.1190  -65.4360 O.3       1 MAN        -0.3924
     57 H1         18.5638  -16.6950  -63.1163 H         1 BMA         0.0935
     58 H2         19.2906  -18.4695  -61.5828 H         1 BMA         0.0671
     59 H3         16.8964  -17.9961  -61.5910 H         1 BMA         0.0651
     60 H4         17.4255  -15.9718  -59.3644 H         1 BMA         0.0647
     61 H5         16.5377  -15.5629  -62.2738 H         1 BMA         0.0647
     62 H6         16.6943  -13.1937  -61.8460 H         1 BMA         0.0587
     63 H7         17.3385  -13.4782  -60.1935 H         1 BMA         0.0587
     64 H8         20.8402  -15.9300  -61.5682 H         1 BMA         0.2126
     65 H9         20.6004  -17.1305  -60.1944 H         1 BMA         0.2101
     66 H10        15.1761  -15.5831  -59.6960 H         1 BMA         0.2100
     67 H11        15.3033  -11.8789  -60.6931 H         1 BMA         0.0938
     68 H12        13.6518  -12.7297  -58.9226 H         1 BMA         0.0675
     69 H13        12.7451  -14.6345  -60.1753 H         1 BMA         0.0648
     70 H14        11.7039  -12.5331  -62.1499 H         1 BMA         0.0647
     71 H15        13.7547  -14.8005  -62.3563 H         1 BMA         0.0647
     72 H16        12.3719  -14.3537  -64.4722 H         1 BMA         0.0584
     73 H17        14.1513  -14.1646  -64.6296 H         1 BMA         0.0584
     74 H18        11.3264  -13.5457  -58.7177 H         1 BMA         0.2100
     75 H19        10.2895  -14.3318  -61.8409 H         1 BMA         0.2100
     76 H20        13.8174  -11.8915  -64.2779 H         1 BMA         0.2095
     77 H21        12.2161  -11.1220  -58.1926 H         1 BMA         0.0938
     78 H22        11.0556   -9.4896  -59.8285 H         1 BMA         0.0671
     79 H23        12.9152   -8.6623  -61.1010 H         1 BMA         0.0648
     80 H24        14.1770   -7.6448  -58.5101 H         1 BMA         0.0647
     81 H25        14.9238   -9.9272  -60.3974 H         1 BMA         0.0647
     82 H26        16.3307   -8.6342  -58.0578 H         1 BMA         0.0584
     83 H27        17.0017   -9.2538  -59.6046 H         1 BMA         0.0584
     84 H28        11.1506   -7.7627  -58.2887 H         1 BMA         0.2101
     85 H29        11.3370   -7.0828  -60.5123 H         1 BMA         0.2100
     86 H30        15.0497   -7.7177  -61.2281 H         1 BMA         0.2100
     87 H31        15.8636  -10.8510  -57.5143 H         1 BMA         0.2095
     88 H32        18.3812  -19.7299  -61.0804 H         1 BMA         0.0938
     89 H33        15.8160  -20.2040  -61.0537 H         1 BMA         0.0675
     90 H34        15.4572  -20.6481  -58.7173 H         1 BMA         0.0648
     91 H35        17.5258  -22.8881  -58.9444 H         1 BMA         0.0647
     92 H36        17.5062  -20.1903  -57.4919 H         1 BMA         0.0647
     93 H37        19.6564  -22.3640  -57.5968 H         1 BMA         0.0584
     94 H38        18.7030  -21.8816  -56.1528 H         1 BMA         0.0584
     95 H39        15.3492  -23.1389  -60.0813 H         1 BMA         0.2100
     96 H40        15.7893  -23.2859  -57.4687 H         1 BMA         0.2100
     97 H41        20.4086  -20.1657  -57.6827 H         1 BMA         0.2095
     98 H42        15.1835  -22.3407  -62.3425 H         1 BMA         0.0938
     99 H43        17.1436  -23.8845  -62.9847 H         1 BMA         0.0671
    100 H44        18.8261  -22.1301  -63.3754 H         1 BMA         0.0648
    101 H45        17.0295  -21.2708  -65.6955 H         1 BMA         0.0647
    102 H46        17.9277  -19.8371  -63.1469 H         1 BMA         0.0647
    103 H47        17.5140  -18.3331  -65.1094 H         1 BMA         0.0584
    104 H48        16.3327  -18.0940  -63.7775 H         1 BMA         0.0584
    105 H49        16.4680  -23.9513  -65.2120 H         1 BMA         0.2101
    106 H50        18.1726  -23.4539  -65.8069 H         1 BMA         0.2100
    107 H51        19.3046  -21.0968  -66.0949 H         1 BMA         0.2100
    108 H52        14.9131  -19.5198  -64.9454 H         1 BMA         0.2095
@<TRIPOS>BOND
     1    1    2 1  
     2    1    7 1  
     3    1   11 1  
     4    2    3 1  
     5    2    8 1  
     6    3    4 1  
     7    3    9 1  
     8    4    5 1  
     9    4   10 1  
    10    5    6 1  
    11    5   11 1  
    12    6   12 1  
    13    9   35 1  
    14   12   13 1  
    15   13   14 1  
    16   13   22 1  
    17   14   15 1  
    18   14   19 1  
    19   15   16 1  
    20   15   20 1  
    21   16   17 1  
    22   16   21 1  
    23   17   18 1  
    24   17   22 1  
    25   18   23 1  
    26   19   24 1  
    27   24   25 1  
    28   24   33 1  
    29   25   26 1  
    30   25   30 1  
    31   26   27 1  
    32   26   31 1  
    33   27   28 1  
    34   27   32 1  
    35   28   29 1  
    36   28   33 1  
    37   29   34 1  
    38   35   36 1  
    39   35   44 1  
    40   36   37 1  
    41   36   41 1  
    42   37   38 1  
    43   37   42 1  
    44   38   39 1  
    45   38   43 1  
    46   39   40 1  
    47   39   44 1  
    48   40   45 1  
    49   41   46 1  
    50   46   47 1  
    51   46   55 1  
    52   47   48 1  
    53   47   52 1  
    54   48   49 1  
    55   48   53 1  
    56   49   50 1  
    57   49   54 1  
    58   50   51 1  
    59   50   55 1  
    60   51   56 1  
    61    1   57 1  
    62    2   58 1  
    63    3   59 1  
    64    4   60 1  
    65    5   61 1  
    66    6   62 1  
    67    6   63 1  
    68    7   64 1  
    69    8   65 1  
    70   10   66 1  
    71   13   67 1  
    72   14   68 1  
    73   15   69 1  
    74   16   70 1  
    75   17   71 1  
    76   18   72 1  
    77   18   73 1  
    78   20   74 1  
    79   21   75 1  
    80   23   76 1  
    81   24   77 1  
    82   25   78 1  
    83   26   79 1  
    84   27   80 1  
    85   28   81 1  
    86   29   82 1  
    87   29   83 1  
    88   30   84 1  
    89   31   85 1  
    90   32   86 1  
    91   34   87 1  
    92   35   88 1  
    93   36   89 1  
    94   37   90 1  
    95   38   91 1  
    96   39   92 1  
    97   40   93 1  
    98   40   94 1  
    99   42   95 1  
   100   43   96 1  
   101   45   97 1  
   102   46   98 1  
   103   47   99 1  
   104   48  100 1  
   105   49  101 1  
   106   50  102 1  
   107   51  103 1  
   108   51  104 1  
   109   52  105 1  
   110   53  106 1  
   111   54  107 1  
   112   56  108 1  
@<TRIPOS>SUBSTRUCTURE
     1 BMA         1

