### 
### Created by X-TOOL on Mon Aug  2 16:15:05 2021
### 

@<TRIPOS>MOLECULE
6mul_ligand
   60    65     1     0     0
SMALL
GAST_HUCK


@<TRIPOS>ATOM
      1 N01        -5.5840  -26.5660   28.0310 N.pl3     1 K4A        -0.2297
      2 C02        -4.6980  -25.7080   27.3310 C.2       1 K4A         0.1218
      3 N03        -3.6550  -25.3580   28.0500 N.2       1 K4A        -0.3157
      4 C04        -3.8360  -26.0100   29.2670 C.ar      1 K4A         0.0918
      5 C05        -3.1070  -26.1450   30.4760 C.ar      1 K4A         0.1303
      6 N06        -3.5140  -26.8670   31.5350 N.ar      1 K4A        -0.2729
      7 C07        -4.6870  -27.4830   31.3550 C.ar      1 K4A         0.0506
      8 N08        -5.4980  -27.4700   30.2920 N.ar      1 K4A        -0.2746
      9 C09        -5.0170  -26.7340   29.2760 C.ar      1 K4A         0.1521
     10 C10        -6.8550  -27.1250   27.5790 C.3       1 K4A         0.0466
     11 C11        -4.8990  -25.2330   25.9720 C.2       1 K4A         0.0553
     12 N12        -1.8680  -25.5180   30.6180 N.pl3     1 K4A        -0.2888
     13 C13        -0.9660  -25.2630   29.4870 C.3       1 K4A         0.0347
     14 C14        -0.2900  -23.9070   29.6630 C.3       1 K4A        -0.0036
     15 C15         0.4680  -23.8680   30.9800 C.3       1 K4A         0.0716
     16 C16        -0.4050  -24.2880   32.1570 C.3       1 K4A        -0.0036
     17 C17        -1.1020  -25.6200   31.8680 C.3       1 K4A         0.0347
     18 N18         1.1080  -22.5750   31.2090 N.am      1 K4A        -0.1950
     19 C19         2.5400  -22.3070   31.1980 C.2       1 K4A         0.3169
     20 N20         2.7700  -20.9910   31.4900 N.am      1 K4A        -0.2034
     21 C21         1.5420  -20.3930   31.6700 C.ar      1 K4A         0.1653
     22 N22         1.2740  -19.1000   31.9500 N.ar      1 K4A        -0.3012
     23 C23        -0.0210  -18.7560   32.0860 C.ar      1 K4A        -0.0235
     24 C24        -1.0740  -19.6450   31.9580 C.ar      1 K4A        -0.0647
     25 C25        -0.7970  -20.9730   31.6660 C.ar      1 K4A        -0.0344
     26 C26         0.5340  -21.3450   31.5290 C.ar      1 K4A         0.1226
     27 O27         3.3680  -23.1700   30.9520 O.2       1 K4A        -0.3918
     28 C28        -4.3450  -24.0980   25.4010 C.2       1 K4A         0.0947
     29 N29        -4.7740  -24.0560   24.1180 N.pl3     1 K4A        -0.1947
     30 N30        -5.5840  -25.1190   23.8200 N.2       1 K4A        -0.2216
     31 C31        -5.6450  -25.8220   24.9360 C.2       1 K4A         0.0051
     32 C32        -3.4850  -23.0440   26.0150 C.3       1 K4A         0.0065
     33 C33        -4.5280  -22.9610   23.1460 C.3       1 K4A         0.0698
     34 C34        -4.9860  -23.3350   21.7760 C.3       1 K4A        -0.0354
     35 H1         -5.0303  -28.0796   32.1924 H         1 K4A         0.0975
     36 H2         -7.0416  -26.8178   26.5394 H         1 K4A         0.0567
     37 H3         -7.6674  -26.7555   28.2220 H         1 K4A         0.0567
     38 H4         -6.8134  -28.2228   27.6350 H         1 K4A         0.0567
     39 H5         -1.5439  -25.2645   28.5510 H         1 K4A         0.0527
     40 H6         -0.1995  -26.0509   29.4460 H         1 K4A         0.0527
     41 H7         -1.0546  -23.1162   29.6598 H         1 K4A         0.0313
     42 H8          0.4131  -23.7406   28.8336 H         1 K4A         0.0313
     43 H9          1.2749  -24.6116   30.9026 H         1 K4A         0.0626
     44 H10        -1.1659  -23.5141   32.3360 H         1 K4A         0.0313
     45 H11         0.2247  -24.3972   33.0523 H         1 K4A         0.0313
     46 H12        -0.3469  -26.4139   31.7703 H         1 K4A         0.0527
     47 H13        -1.7842  -25.8627   32.6960 H         1 K4A         0.0527
     48 H14         3.6627  -20.5459   31.5598 H         1 K4A         0.2307
     49 H15        -0.2525  -17.7208   32.3091 H         1 K4A         0.0638
     50 H16        -2.0972  -19.3098   32.0836 H         1 K4A         0.0539
     51 H17        -1.5947  -21.6975   31.5485 H         1 K4A         0.0567
     52 H18        -6.2069  -26.7488   25.0416 H         1 K4A         0.0669
     53 H19        -3.2742  -23.3068   27.0621 H         1 K4A         0.0472
     54 H20        -4.0075  -22.0768   25.9779 H         1 K4A         0.0472
     55 H21        -2.5394  -22.9716   25.4577 H         1 K4A         0.0472
     56 H22        -3.4499  -22.7446   23.1161 H         1 K4A         0.0635
     57 H23        -5.0733  -22.0633   23.4728 H         1 K4A         0.0635
     58 H24        -4.7890  -22.5032   21.0837 H         1 K4A         0.0258
     59 H25        -6.0650  -23.5481   21.7955 H         1 K4A         0.0258
     60 H26        -4.4416  -24.2294   21.4388 H         1 K4A         0.0258
@<TRIPOS>BOND
     1    1    2 1  
     2    1    9 1  
     3    1   10 1  
     4    2    3 2  
     5    2   11 1  
     6    3    4 1  
     7    4    5 ar 
     8    4    9 ar 
     9    5    6 ar 
    10    5   12 1  
    11    6    7 ar 
    12    7    8 ar 
    13    8    9 ar 
    14   11   28 2  
    15   11   31 1  
    16   12   13 1  
    17   12   17 1  
    18   13   14 1  
    19   14   15 1  
    20   15   16 1  
    21   15   18 1  
    22   16   17 1  
    23   18   19 am 
    24   18   26 1  
    25   19   20 am 
    26   19   27 2  
    27   20   21 1  
    28   21   22 ar 
    29   21   26 ar 
    30   22   23 ar 
    31   23   24 ar 
    32   24   25 ar 
    33   25   26 ar 
    34   28   29 1  
    35   28   32 1  
    36   29   30 1  
    37   29   33 1  
    38   30   31 2  
    39   33   34 1  
    40    7   35 1  
    41   10   36 1  
    42   10   37 1  
    43   10   38 1  
    44   13   39 1  
    45   13   40 1  
    46   14   41 1  
    47   14   42 1  
    48   15   43 1  
    49   16   44 1  
    50   16   45 1  
    51   17   46 1  
    52   17   47 1  
    53   20   48 1  
    54   23   49 1  
    55   24   50 1  
    56   25   51 1  
    57   31   52 1  
    58   32   53 1  
    59   32   54 1  
    60   32   55 1  
    61   33   56 1  
    62   33   57 1  
    63   34   58 1  
    64   34   59 1  
    65   34   60 1  
@<TRIPOS>SUBSTRUCTURE
     1 K4A         1

