### 
### Created by X-TOOL on Mon Aug  2 16:15:06 2021
### 

@<TRIPOS>MOLECULE
6mum_ligand
   61    65     1     0     0
SMALL
GAST_HUCK


@<TRIPOS>ATOM
      1 N01        -8.1050  -26.0750   28.0080 N.pl3     1 K47        -0.2285
      2 C02        -7.2450  -25.3840   27.0830 C.2       1 K47         0.1227
      3 N03        -6.0750  -25.0700   27.6080 N.2       1 K47        -0.3137
      4 C04        -6.1500  -25.5290   28.9210 C.ar      1 K47         0.1034
      5 C05        -5.2680  -25.5150   30.0450 C.ar      1 K47         0.1818
      6 N06        -5.6200  -26.0460   31.2040 N.ar      1 K47        -0.2613
      7 C07        -6.8350  -26.5960   31.2770 C.ar      1 K47         0.0549
      8 N08        -7.7700  -26.6890   30.3270 N.ar      1 K47        -0.2709
      9 C09        -7.3710  -26.1360   29.1710 C.ar      1 K47         0.1560
     10 C10        -9.4560  -26.6000   27.8190 C.3       1 K47         0.0468
     11 C11        -7.6020  -25.1470   25.6860 C.2       1 K47         0.0559
     12 O12        -4.0650  -24.9410   29.8370 O.3       1 K47        -0.2874
     13 C13        -3.1600  -24.6690   30.9530 C.3       1 K47         0.1095
     14 C14        -3.6350  -23.4430   31.7230 C.3       1 K47         0.0655
     15 N15        -2.4220  -22.6550   31.9310 N.am      1 K47        -0.2700
     16 C16        -1.3780  -22.9630   30.9440 C.3       1 K47         0.0368
     17 C17        -1.8880  -24.2190   30.2580 C.3       1 K47         0.0012
     18 C18        -2.1390  -21.7410   32.8850 C.2       1 K47         0.1818
     19 O19        -1.0540  -21.1850   32.9090 O.2       1 K47        -0.3966
     20 C20        -3.1180  -21.5230   34.0250 C.3       1 K47         0.0530
     21 C21        -2.3260  -21.1370   35.2780 C.3       1 K47        -0.0096
     22 C22        -3.2460  -20.8920   36.4350 C.3       1 K47         0.0500
     23 O23        -4.1610  -19.8480   36.1220 O.3       1 K47        -0.3794
     24 C24        -4.9130  -20.1730   34.9560 C.3       1 K47         0.0500
     25 C25        -4.1110  -20.4070   33.7030 C.3       1 K47        -0.0096
     26 C26        -7.2560  -24.0670   24.8940 C.2       1 K47         0.0950
     27 N27        -7.7630  -24.2910   23.6580 N.pl3     1 K47        -0.1945
     28 N28        -8.4030  -25.5020   23.6040 N.2       1 K47        -0.2214
     29 C29        -8.2830  -26.0120   24.8160 C.2       1 K47         0.0053
     30 C30        -6.4910  -22.8450   25.2570 C.3       1 K47         0.0066
     31 C31        -7.6460  -23.3800   22.4600 C.3       1 K47         0.0698
     32 C32        -8.6960  -23.5450   21.4040 C.3       1 K47        -0.0354
     33 H1         -7.0982  -27.0251   32.2371 H         1 K47         0.0983
     34 H2         -9.7839  -26.4055   26.7872 H         1 K47         0.0567
     35 H3        -10.1431  -26.1056   28.5214 H         1 K47         0.0567
     36 H4         -9.4577  -27.6840   28.0060 H         1 K47         0.0567
     37 H5         -3.0211  -25.5428   31.6066 H         1 K47         0.0683
     38 H6         -4.0794  -23.7355   32.6857 H         1 K47         0.0553
     39 H7         -4.3723  -22.8757   31.1360 H         1 K47         0.0553
     40 H8         -0.4138  -23.1508   31.4389 H         1 K47         0.0523
     41 H9         -1.2658  -22.1404   30.2224 H         1 K47         0.0523
     42 H10        -2.1002  -24.0032   29.2005 H         1 K47         0.0315
     43 H11        -1.1287  -25.0120   30.3253 H         1 K47         0.0315
     44 H12        -3.6718  -22.4554   34.2092 H         1 K47         0.0539
     45 H13        -1.7518  -20.2212   35.0738 H         1 K47         0.0314
     46 H14        -1.6349  -21.9538   35.5336 H         1 K47         0.0314
     47 H15        -2.6535  -20.6040   37.3159 H         1 K47         0.0561
     48 H16        -3.8064  -21.8126   36.6550 H         1 K47         0.0561
     49 H17        -5.6090  -19.3438   34.7612 H         1 K47         0.0561
     50 H18        -5.4841  -21.0891   35.1672 H         1 K47         0.0561
     51 H19        -4.7732  -20.7134   32.8798 H         1 K47         0.0314
     52 H20        -3.5734  -19.4902   33.4193 H         1 K47         0.0314
     53 H21        -8.6672  -26.9888   25.1062 H         1 K47         0.0670
     54 H22        -6.1897  -22.9014   26.3134 H         1 K47         0.0473
     55 H23        -7.1225  -21.9577   25.1027 H         1 K47         0.0473
     56 H24        -5.5947  -22.7718   24.6235 H         1 K47         0.0473
     57 H25        -6.6672  -23.5627   21.9926 H         1 K47         0.0635
     58 H26        -7.6920  -22.3419   22.8209 H         1 K47         0.0635
     59 H27        -8.5088  -22.8332   20.5865 H         1 K47         0.0258
     60 H28        -9.6874  -23.3510   21.8392 H         1 K47         0.0258
     61 H29        -8.6626  -24.5718   21.0109 H         1 K47         0.0258
@<TRIPOS>BOND
     1    1    2 1  
     2    1    9 1  
     3    1   10 1  
     4    2    3 2  
     5    2   11 1  
     6    3    4 1  
     7    4    5 ar 
     8    4    9 ar 
     9    5    6 ar 
    10    5   12 1  
    11    6    7 ar 
    12    7    8 ar 
    13    8    9 ar 
    14   11   26 2  
    15   11   29 1  
    16   12   13 1  
    17   13   14 1  
    18   13   17 1  
    19   14   15 1  
    20   15   16 1  
    21   15   18 am 
    22   16   17 1  
    23   18   19 2  
    24   18   20 1  
    25   20   21 1  
    26   20   25 1  
    27   21   22 1  
    28   22   23 1  
    29   23   24 1  
    30   24   25 1  
    31   26   27 1  
    32   26   30 1  
    33   27   28 1  
    34   27   31 1  
    35   28   29 2  
    36   31   32 1  
    37    7   33 1  
    38   10   34 1  
    39   10   35 1  
    40   10   36 1  
    41   13   37 1  
    42   14   38 1  
    43   14   39 1  
    44   16   40 1  
    45   16   41 1  
    46   17   42 1  
    47   17   43 1  
    48   20   44 1  
    49   21   45 1  
    50   21   46 1  
    51   22   47 1  
    52   22   48 1  
    53   24   49 1  
    54   24   50 1  
    55   25   51 1  
    56   25   52 1  
    57   29   53 1  
    58   30   54 1  
    59   30   55 1  
    60   30   56 1  
    61   31   57 1  
    62   31   58 1  
    63   32   59 1  
    64   32   60 1  
    65   32   61 1  
@<TRIPOS>SUBSTRUCTURE
     1 K47         1

