### 
### Created by X-TOOL on Wed Jan  1 15:39:38 2020
### 

@<TRIPOS>MOLECULE
6mv3_ligand
   44    45     1     0     0
SMALL
GAST_HUCK


@<TRIPOS>ATOM
      1 S1          4.6900   -2.6900    5.3100 S.o2      1 WW7         0.0688
      2 O1          5.5540   -2.2550    6.5040 O.2       1 WW7        -0.1503
      3 O2          5.5440   -3.6230    4.4370 O.2       1 WW7        -0.1503
      4 N1          3.3880   -3.5130    5.8630 N.am      1 WW7        -0.2474
      5 C4          3.2370    1.1090    3.1880 C.ar      1 WW7        -0.0537
      6 C3          3.2590    1.0090    4.5760 C.ar      1 WW7        -0.0594
      7 C2          3.7040   -0.1470    5.1890 C.ar      1 WW7        -0.0345
      8 C1          4.1370   -1.2320    4.4270 C.ar      1 WW7         0.1158
      9 C9          4.1160   -1.1390    3.0090 C.ar      1 WW7         0.0090
     10 C10         3.6640    0.0340    2.3840 C.ar      1 WW7        -0.0024
     11 CL1         3.1160    1.5000    0.0530 Cl        1 WW7        -0.0689
     12 C5          3.6550    0.1000    0.9460 C.ar      1 WW7         0.0484
     13 C6          4.0880   -0.9970    0.2110 C.ar      1 WW7        -0.0473
     14 C7          4.5200   -2.1320    0.8460 C.ar      1 WW7        -0.0607
     15 C8          4.5390   -2.2030    2.2260 C.ar      1 WW7        -0.0521
     16 C11         2.6060   -4.0740    4.7460 C.3       1 WW7         0.0266
     17 C12         1.1130   -4.0390    5.0720 C.3       1 WW7        -0.0361
     18 C14         0.4900   -6.2160    6.1450 C.3       1 WW7        -0.0482
     19 C13         0.4970   -5.4160    4.8360 C.3       1 WW7        -0.0514
     20 C15        -0.8650   -6.0720    6.8360 C.3       1 WW7        -0.0126
     21 C16        -0.6810   -5.4020    8.1980 C.3       1 WW7        -0.0354
     22 N2         -1.4080   -6.1350    9.2420 N.4       1 WW7         0.2185
     23 H1          3.1541   -3.6210    6.8293 H         1 WW7         0.1672
     24 H2          2.8879    2.0229    2.7211 H         1 WW7         0.0622
     25 H3          2.9246    1.8441    5.1808 H         1 WW7         0.0618
     26 H4          3.7166   -0.2110    6.2710 H         1 WW7         0.0637
     27 H5          4.0840   -0.9546   -0.8722 H         1 WW7         0.0623
     28 H6          4.8500   -2.9823    0.2602 H         1 WW7         0.0617
     29 H7          4.8916   -3.1085    2.7063 H         1 WW7         0.0625
     30 H8          2.9153   -5.1155    4.5738 H         1 WW7         0.0475
     31 H9          2.7930   -3.4811    3.8385 H         1 WW7         0.0475
     32 H10         0.6156   -3.3013    4.4252 H         1 WW7         0.0281
     33 H11         0.9763   -3.7541    6.1256 H         1 WW7         0.0281
     34 H12         1.2801   -5.8356    6.8091 H         1 WW7         0.0267
     35 H13         0.6758   -7.2775    5.9246 H         1 WW7         0.0267
     36 H14         1.0884   -5.9558    4.0818 H         1 WW7         0.0266
     37 H15        -0.5355   -5.2969    4.4759 H         1 WW7         0.0266
     38 H16        -1.3117   -7.0674    6.9757 H         1 WW7         0.0317
     39 H17        -1.5297   -5.4560    6.2125 H         1 WW7         0.0317
     40 H18        -1.0635   -4.3719    8.1478 H         1 WW7         0.0813
     41 H19         0.3897   -5.3838    8.4493 H         1 WW7         0.0813
     42 H20        -1.2733   -5.6771   10.1298 H         1 WW7         0.1994
     43 H21        -1.0591   -7.0792    9.2946 H         1 WW7         0.1994
     44 H22        -2.3907   -6.1519    9.0184 H         1 WW7         0.1994
@<TRIPOS>BOND
     1    1    2 2  
     2    1    3 2  
     3    1    4 am 
     4    8    1 1  
     5    4   16 1  
     6    6    5 ar 
     7    5   10 ar 
     8    7    6 ar 
     9    7    8 ar 
    10    8    9 ar 
    11    9   10 ar 
    12    9   15 ar 
    13   10   12 ar 
    14   12   11 1  
    15   12   13 ar 
    16   13   14 ar 
    17   14   15 ar 
    18   16   17 1  
    19   17   19 1  
    20   19   18 1  
    21   18   20 1  
    22   20   21 1  
    23   21   22 1  
    24    4   23 1  
    25    5   24 1  
    26    6   25 1  
    27    7   26 1  
    28   13   27 1  
    29   14   28 1  
    30   15   29 1  
    31   16   30 1  
    32   16   31 1  
    33   17   32 1  
    34   17   33 1  
    35   18   34 1  
    36   18   35 1  
    37   19   36 1  
    38   19   37 1  
    39   20   38 1  
    40   20   39 1  
    41   21   40 1  
    42   21   41 1  
    43   22   42 1  
    44   22   43 1  
    45   22   44 1  
@<TRIPOS>SUBSTRUCTURE
     1 WW7         1

