### 
### Created by X-TOOL on Wed Jan  1 15:39:36 2020
### 

@<TRIPOS>MOLECULE
6mvu_ligand
   20    20     1     0     0
SMALL
GAST_HUCK


@<TRIPOS>ATOM
      1 C1        -25.5600    5.4270    2.9280 C.ar      1 K4V         0.1890
      2 C2        -25.9080    4.9790    4.1920 C.ar      1 K4V        -0.0261
      3 C3        -26.9770    5.5530    4.8580 C.ar      1 K4V        -0.0192
      4 C4        -27.7050    6.5800    4.2760 C.ar      1 K4V         0.1297
      5 C5        -27.3660    7.0240    3.0000 C.ar      1 K4V        -0.0192
      6 C6        -26.2880    6.4500    2.3320 C.ar      1 K4V        -0.0261
      7 C15       -29.6280    8.2910    4.7170 C.2       1 K4V         0.2557
      8 C16       -29.3100    9.4100    3.7740 C.3       1 K4V         0.0417
      9 N10       -24.4720    4.8300    2.2730 N.2       1 K4V         0.3068
     10 O11       -23.5220    5.5010    1.9090 O.2       1 K4V         0.1735
     11 O13       -24.4660    3.4500    2.0470 O.2       1 K4V         0.1735
     12 O14       -28.7750    7.1270    4.9550 O.3       1 K4V        -0.2097
     13 O17       -30.6550    8.3280    5.3720 O.2       1 K4V        -0.3632
     14 H1        -25.3437    4.1798    4.6589 H         1 K4V         0.0668
     15 H2        -27.2481    5.1960    5.8450 H         1 K4V         0.0571
     16 H3        -27.9397    7.8138    2.5288 H         1 K4V         0.0571
     17 H4        -26.0154    6.8021    1.3437 H         1 K4V         0.0668
     18 H5        -30.1245   10.1491    3.7941 H         1 K4V         0.0486
     19 H6        -29.2021    9.0110    2.7546 H         1 K4V         0.0486
     20 H7        -28.3699    9.8919    4.0806 H         1 K4V         0.0486
@<TRIPOS>BOND
     1    2    1 ar 
     2    6    1 ar 
     3    1    9 1  
     4    3    2 ar 
     5    4    3 ar 
     6    4    5 ar 
     7   12    4 1  
     8    5    6 ar 
     9    7    8 1  
    10    7   12 1  
    11    7   13 2  
    12    9   10 2  
    13    9   11 2  
    14    2   14 1  
    15    3   15 1  
    16    5   16 1  
    17    6   17 1  
    18    8   18 1  
    19    8   19 1  
    20    8   20 1  
@<TRIPOS>SUBSTRUCTURE
     1 K4V         1

