### 
### Created by X-TOOL on Wed Jan  1 15:39:38 2020
### 

@<TRIPOS>MOLECULE
6mvx_ligand
   49    50     1     0     0
SMALL
GAST_HUCK


@<TRIPOS>ATOM
      1 C10        -3.3800  -43.8620  -24.8810 C.2       1 K4D         0.1970
      2 N12        -2.7790  -44.2870  -26.1250 N.am      1 K4D        -0.2827
      3 C13        -1.4200  -43.7530  -26.4400 C.3       1 K4D         0.0728
      4 C15        -0.8270  -46.0990  -25.9110 C.3       1 K4D        -0.0077
      5 C17        -0.3070  -46.6150  -28.2120 C.3       1 K4D        -0.0124
      6 C20        -5.5740  -43.4590  -23.6400 C.ar      1 K4D         0.1020
      7 C22        -5.1510  -41.1320  -24.1440 C.3       1 K4D         0.1645
      8 C28        -7.3700  -45.0820  -23.6060 C.ar      1 K4D        -0.0367
      9 C02        -8.8060  -48.9420  -24.4040 C.3       1 K4D         0.4168
     10 C05        -8.2940  -47.5420  -24.0150 C.3       1 K4D         0.1628
     11 C07        -6.5990  -45.9520  -24.4120 C.ar      1 K4D         0.0856
     12 C08        -5.3000  -45.5540  -24.8290 C.ar      1 K4D        -0.0216
     13 C09        -4.7880  -44.3180  -24.4410 C.ar      1 K4D         0.0700
     14 C14        -0.3200  -44.6670  -26.1150 C.3       1 K4D        -0.0022
     15 C16        -0.1660  -47.0340  -26.8010 C.3       1 K4D        -0.0431
     16 C18         0.2100  -45.1980  -28.4420 C.3       1 K4D        -0.0333
     17 C23        -4.1980  -40.0560  -23.6720 C.3       1 K4D         0.4171
     18 C27        -6.8630  -43.8600  -23.2290 C.ar      1 K4D        -0.0347
     19 F01        -9.8710  -49.2360  -23.6640 F         1 K4D        -0.1678
     20 F03        -7.8600  -49.8410  -24.1820 F         1 K4D        -0.1678
     21 F04        -9.1300  -48.9620  -25.7130 F         1 K4D        -0.1678
     22 F24        -3.0100  -40.2150  -24.2620 F         1 K4D        -0.1678
     23 F25        -4.0610  -40.1580  -22.3530 F         1 K4D        -0.1678
     24 F26        -4.6690  -38.8690  -23.9660 F         1 K4D        -0.1678
     25 N19         0.6530  -44.5570  -27.2170 N.4       1 K4D         0.2306
     26 O06        -7.1490  -47.2040  -24.7830 O.3       1 K4D        -0.3152
     27 O11        -2.7320  -43.1100  -24.1720 O.2       1 K4D        -0.3909
     28 O21        -5.0890  -42.1730  -23.2090 O.3       1 K4D        -0.3107
     29 H1         -3.2520  -44.9108  -26.7471 H         1 K4D         0.1843
     30 H2         -1.2748  -42.8235  -25.8699 H         1 K4D         0.0575
     31 H3         -1.3778  -43.5331  -27.5170 H         1 K4D         0.0575
     32 H4         -1.9092  -46.1253  -26.1064 H         1 K4D         0.0320
     33 H5         -0.6347  -46.4004  -24.8707 H         1 K4D         0.0320
     34 H6         -1.3707  -46.6543  -28.4895 H         1 K4D         0.0317
     35 H7          0.2636  -47.3086  -28.8471 H         1 K4D         0.0317
     36 H8         -4.8472  -41.4969  -25.1362 H         1 K4D         0.0703
     37 H9         -6.1747  -40.7330  -24.1976 H         1 K4D         0.0703
     38 H10        -8.3619  -45.3787  -23.2849 H         1 K4D         0.0555
     39 H11        -8.0291  -47.5364  -22.9474 H         1 K4D         0.0700
     40 H12        -9.0863  -46.8017  -24.2001 H         1 K4D         0.0700
     41 H13        -4.7060  -46.2141  -25.4507 H         1 K4D         0.0563
     42 H14         0.1597  -44.3398  -25.1808 H         1 K4D         0.0870
     43 H15        -0.6163  -48.0297  -26.6751 H         1 K4D         0.0269
     44 H16         0.9028  -47.0798  -26.5448 H         1 K4D         0.0269
     45 H17        -0.5985  -44.5955  -28.8818 H         1 K4D         0.0814
     46 H18         1.0571  -45.2419  -29.1423 H         1 K4D         0.0814
     47 H19        -7.4592  -43.1990  -22.6104 H         1 K4D         0.0530
     48 H20         1.5165  -44.9874  -26.9252 H         1 K4D         0.2017
     49 H21         0.8119  -43.5799  -27.4069 H         1 K4D         0.2017
@<TRIPOS>BOND
     1    1    2 am 
     2   13    1 1  
     3    1   27 2  
     4    2    3 1  
     5    3   14 1  
     6   14    4 1  
     7    4   15 1  
     8   15    5 1  
     9    5   16 1  
    10    6   13 ar 
    11   18    6 ar 
    12    6   28 1  
    13    7   17 1  
    14   28    7 1  
    15   11    8 ar 
    16    8   18 ar 
    17   10    9 1  
    18    9   19 1  
    19    9   20 1  
    20    9   21 1  
    21   26   10 1  
    22   11   12 ar 
    23   11   26 1  
    24   12   13 ar 
    25   14   25 1  
    26   16   25 1  
    27   17   22 1  
    28   17   23 1  
    29   17   24 1  
    30    2   29 1  
    31    3   30 1  
    32    3   31 1  
    33    4   32 1  
    34    4   33 1  
    35    5   34 1  
    36    5   35 1  
    37    7   36 1  
    38    7   37 1  
    39    8   38 1  
    40   10   39 1  
    41   10   40 1  
    42   12   41 1  
    43   14   42 1  
    44   15   43 1  
    45   15   44 1  
    46   16   45 1  
    47   16   46 1  
    48   18   47 1  
    49   25   48 1  
    50   25   49 1  
@<TRIPOS>SUBSTRUCTURE
     1 K4D         1

