### 
### Created by X-TOOL on Wed Jan  1 15:39:35 2020
### 

@<TRIPOS>MOLECULE
6mwe_ligand
   69    73     1     0     0
SMALL
GAST_HUCK


@<TRIPOS>ATOM
      1 C1        -12.1270   34.4850  108.2580 C.ar      1 919         0.1347
      2 C2        -12.3760   34.2590  106.9040 C.ar      1 919        -0.0125
      3 C3        -13.6490   33.8680  106.4830 C.ar      1 919        -0.0375
      4 C4        -14.6730   33.7000  107.4070 C.ar      1 919         0.0443
      5 C5        -14.4270   33.9310  108.7580 C.ar      1 919         0.0053
      6 C6        -13.1540   34.3280  109.1870 C.ar      1 919        -0.0062
      7 C9        -16.9220   33.1460  107.8650 C.ar      1 919         0.0092
      8 N10       -15.9050   33.3140  106.9850 N.ar      1 919        -0.2971
      9 C13       -15.4570   33.7670  109.6780 C.ar      1 919        -0.0368
     10 C14       -16.7180   33.3630  109.2250 C.ar      1 919        -0.0333
     11 C22        -6.6010   30.6090  118.8030 C.ar      1 919         0.0057
     12 N23        -6.7320   30.7880  120.1330 N.ar      1 919        -0.2925
     13 C24        -7.9680   30.8950  120.6880 C.ar      1 919         0.1117
     14 C25        -9.1120   30.8530  119.9000 C.ar      1 919         0.0183
     15 C26        -8.9990   30.6960  118.5330 C.ar      1 919         0.1379
     16 C27        -7.7300   30.5650  117.9760 C.ar      1 919         0.0024
     17 C34        -9.6430   32.6160  114.6670 C.ar      1 919        -0.0492
     18 C35        -9.5460   32.2220  116.0110 C.ar      1 919        -0.0445
     19 C36       -10.2160   31.0830  116.4680 C.ar      1 919         0.1030
     20 C37       -10.9740   30.3490  115.5830 C.ar      1 919        -0.0068
     21 C38       -11.0670   30.7390  114.2500 C.ar      1 919         0.1452
     22 C39       -10.4090   31.8720  113.7740 C.ar      1 919         0.0916
     23 C46        -8.9690   35.9560  108.6040 C.2       1 919        -0.0026
     24 C47        -8.9760   35.1160  109.7180 C.2       1 919        -0.0186
     25 C48       -10.2070   34.4490  109.7310 C.2       1 919         0.2203
     26 N49       -10.8970   34.8690  108.6410 N.pl3     1 919        -0.1012
     27 N50       -10.1400   35.7840  107.9650 N.2       1 919        -0.1651
     28 N56       -10.6670   33.5210  110.6240 N.am      1 919        -0.1797
     29 C58       -10.1580   33.3280  111.8510 C.2       1 919         0.3199
     30 N60       -10.5490   32.1810  112.4420 N.am      1 919        -0.2184
     31 O63        -9.3870   34.1370  112.3730 O.2       1 919        -0.3801
     32 O65       -10.1570   30.6620  117.7750 O.3       1 919        -0.2573
     33 F68       -11.8110   29.9980  113.4210 F         1 919        -0.1960
     34 C70        -8.1490   31.0700  122.1560 C.2       1 919         0.2205
     35 O72        -9.2870   30.9990  122.5970 O.2       1 919        -0.3791
     36 N74        -7.0950   31.3500  122.9140 N.am      1 919        -0.2874
     37 C76        -7.2080   31.5160  124.3540 C.3       1 919         0.0193
     38 C79        -7.8610   36.8750  108.1460 C.3       1 919        -0.0453
     39 C81        -7.5880   37.9390  109.2040 C.3       1 919        -0.0853
     40 C83        -6.6150   36.0250  107.9280 C.3       1 919        -0.0853
     41 C85        -8.2510   37.5500  106.8290 C.3       1 919        -0.0853
     42 H1        -11.5810   34.3869  106.1783 H         1 919         0.0663
     43 H2        -13.8391   33.6947  105.4300 H         1 919         0.0644
     44 H3        -12.9681   34.5126  110.2389 H         1 919         0.0625
     45 H4        -17.8991   32.8411  107.5081 H         1 919         0.0852
     46 H5        -15.2853   33.9498  110.7326 H         1 919         0.0759
     47 H6        -17.5304   33.2200  109.9283 H         1 919         0.0689
     48 H7         -5.6133   30.4982  118.3704 H         1 919         0.0803
     49 H8        -10.0906   30.9433  120.3575 H         1 919         0.0696
     50 H9         -7.6163   30.4295  116.9065 H         1 919         0.0673
     51 H10        -9.1203   33.5015  114.3239 H         1 919         0.0467
     52 H11        -8.9466   32.8057  116.7003 H         1 919         0.0486
     53 H12       -11.4997   29.4650  115.9254 H         1 919         0.0505
     54 H13        -8.1722   35.0004  110.4436 H         1 919         0.0222
     55 H14       -11.4358   32.9464  110.3435 H         1 919         0.2345
     56 H15       -10.9799   31.4927  111.8584 H         1 919         0.2220
     57 H16        -6.1985   31.4494  122.4822 H         1 919         0.1844
     58 H17        -6.2175   31.7417  124.7759 H         1 919         0.0484
     59 H18        -7.5941   30.5880  124.8009 H         1 919         0.0484
     60 H19        -7.8978   32.3439  124.5747 H         1 919         0.0484
     61 H20        -6.7801   38.6008  108.8585 H         1 919         0.0133
     62 H21        -7.2871   37.4529  110.1438 H         1 919         0.0133
     63 H22        -8.4998   38.5307  109.3728 H         1 919         0.0133
     64 H23        -6.8214   35.2611  107.1639 H         1 919         0.0133
     65 H24        -6.3366   35.5336  108.8719 H         1 919         0.0133
     66 H25        -5.7877   36.6667  107.5907 H         1 919         0.0133
     67 H26        -9.1503   38.1642  106.9840 H         1 919         0.0133
     68 H27        -8.4585   36.7811  106.0702 H         1 919         0.0133
     69 H28        -7.4246   38.1899  106.4862 H         1 919         0.0133
@<TRIPOS>BOND
     1    1    2 ar 
     2    1    6 ar 
     3   26    1 1  
     4    2    3 ar 
     5    3    4 ar 
     6    5    4 ar 
     7    4    8 ar 
     8    6    5 ar 
     9    5    9 ar 
    10    8    7 ar 
    11   10    7 ar 
    12    9   10 ar 
    13   11   12 ar 
    14   16   11 ar 
    15   13   12 ar 
    16   14   13 ar 
    17   13   34 1  
    18   15   14 ar 
    19   15   16 ar 
    20   32   15 1  
    21   17   18 ar 
    22   22   17 ar 
    23   18   19 ar 
    24   20   19 ar 
    25   19   32 1  
    26   21   20 ar 
    27   22   21 ar 
    28   21   33 1  
    29   30   22 1  
    30   24   23 1  
    31   27   23 2  
    32   23   38 1  
    33   25   24 2  
    34   25   26 1  
    35   28   25 1  
    36   26   27 1  
    37   29   28 am 
    38   29   30 am 
    39   29   31 2  
    40   34   35 2  
    41   34   36 am 
    42   36   37 1  
    43   38   39 1  
    44   38   40 1  
    45   38   41 1  
    46    2   42 1  
    47    3   43 1  
    48    6   44 1  
    49    7   45 1  
    50    9   46 1  
    51   10   47 1  
    52   11   48 1  
    53   14   49 1  
    54   16   50 1  
    55   17   51 1  
    56   18   52 1  
    57   20   53 1  
    58   24   54 1  
    59   28   55 1  
    60   30   56 1  
    61   36   57 1  
    62   37   58 1  
    63   37   59 1  
    64   37   60 1  
    65   39   61 1  
    66   39   62 1  
    67   39   63 1  
    68   40   64 1  
    69   40   65 1  
    70   40   66 1  
    71   41   67 1  
    72   41   68 1  
    73   41   69 1  
@<TRIPOS>SUBSTRUCTURE
     1 919         1

