### 
### Created by X-TOOL on Wed Jan  1 15:39:36 2020
### 

@<TRIPOS>MOLECULE
6mx3_ligand
   58    61     1     0     0
SMALL
GAST_HUCK


@<TRIPOS>ATOM
      1 C1         46.8530   17.9790   72.2080 C.ar      1 K5P        -0.0042
      2 C2         45.5050   17.6880   72.0740 C.ar      1 K5P        -0.0516
      3 C3         44.5750   18.1200   73.0190 C.ar      1 K5P        -0.0738
      4 C7         42.5520   17.9060   71.4930 C.3       1 K5P        -0.0969
      5 C8         42.2440   18.6460   73.8370 C.3       1 K5P        -0.0969
      6 C9         42.8850   16.2900   73.3360 C.3       1 K5P        -0.0969
      7 C10        49.6550   17.8470   73.3800 C.3       1 K5P         0.1305
      8 C11        49.8980   17.1180   74.6890 C.ar      1 K5P        -0.0160
      9 C12        50.6340   15.9360   74.6870 C.ar      1 K5P        -0.0655
     10 C13        50.8900   15.2440   75.8610 C.ar      1 K5P        -0.0395
     11 C14        50.3880   15.7210   77.0600 C.ar      1 K5P         0.0837
     12 C15        49.6030   16.8680   77.0840 C.ar      1 K5P        -0.0395
     13 C16        49.3770   17.5670   75.9020 C.ar      1 K5P        -0.0655
     14 C19        51.5000   19.5150   73.5890 C.ar      1 K5P        -0.0009
     15 C20        52.8490   19.7410   73.8370 C.ar      1 K5P        -0.0521
     16 C21        53.2610   20.8620   74.5390 C.ar      1 K5P        -0.0639
     17 C22        52.3290   21.7710   75.0080 C.ar      1 K5P        -0.0628
     18 C24        50.5580   20.4390   74.0630 C.ar      1 K5P         0.0642
     19 O3         50.4430   17.7090   70.5440 O.co2     1 K5P        -0.5656
     20 C26        50.8480   18.6350   71.2870 C.2       1 K5P         0.0553
     21 O2         51.1530   19.7720   70.8970 O.co2     1 K5P        -0.5656
     22 C18        51.0020   18.3280   72.7910 C.3       1 K5P         0.0878
     23 O          50.6400   15.1280   78.2660 O.3       1 K5P        -0.3257
     24 C17        51.4430   13.9360   78.2710 C.3       1 K5P         0.0579
     25 C23        50.9850   21.5660   74.7700 C.ar      1 K5P        -0.0473
     26 C25        49.1270   20.2690   73.7800 C.2       1 K5P         0.2499
     27 O1         48.3320   21.1920   73.8190 O.2       1 K5P        -0.3664
     28 N          48.7000   18.9680   73.4880 N.am      1 K5P        -0.1770
     29 C          47.3020   18.7080   73.3070 C.ar      1 K5P         0.1148
     30 C5         46.3820   19.1800   74.2310 C.ar      1 K5P        -0.0042
     31 C4         45.0390   18.8870   74.0880 C.ar      1 K5P        -0.0516
     32 C6         43.0900   17.7450   72.9240 C.3       1 K5P        -0.0677
     33 H1         47.5581   17.6395   71.4579 H         1 K5P         0.0630
     34 H2         45.1671   17.1139   71.2188 H         1 K5P         0.0800
     35 H3         41.4880   17.6282   71.4679 H         1 K5P         0.0096
     36 H4         43.1177   17.2523   70.8128 H         1 K5P         0.0096
     37 H5         42.6652   18.9527   71.1743 H         1 K5P         0.0096
     38 H6         42.6014   18.5566   74.8735 H         1 K5P         0.0096
     39 H7         41.1902   18.3351   73.7845 H         1 K5P         0.0096
     40 H8         42.3348   19.6913   73.5067 H         1 K5P         0.0096
     41 H9         43.4873   15.6369   72.6873 H         1 K5P         0.0096
     42 H10        41.8217   16.0268   73.2355 H         1 K5P         0.0096
     43 H11        43.1983   16.1575   74.3821 H         1 K5P         0.0096
     44 H12        49.2204   17.1201   72.6780 H         1 K5P         0.0847
     45 H13        51.0145   15.5490   73.7487 H         1 K5P         0.0531
     46 H14        51.4798   14.3347   75.8402 H         1 K5P         0.0525
     47 H15        49.1706   17.2150   78.0155 H         1 K5P         0.0525
     48 H16        48.7862   18.4756   75.9247 H         1 K5P         0.0531
     49 H17        53.5864   19.0326   73.4773 H         1 K5P         0.0572
     50 H18        54.3166   21.0276   74.7214 H         1 K5P         0.0636
     51 H19        52.6544   22.6439   75.5622 H         1 K5P         0.0573
     52 H20        51.7379   17.5169   72.8943 H         1 K5P         0.0689
     53 H21        51.5589   13.5763   79.3041 H         1 K5P         0.0575
     54 H22        52.4332   14.1592   77.8472 H         1 K5P         0.0575
     55 H23        50.9514   13.1602   77.6657 H         1 K5P         0.0575
     56 H24        50.2573   22.2827   75.1333 H         1 K5P         0.0652
     57 H25        46.7174   19.7810   75.0685 H         1 K5P         0.0630
     58 H26        44.3325   19.2603   74.8205 H         1 K5P         0.0800
@<TRIPOS>BOND
     1    1    2 ar 
     2   29    1 ar 
     3    2    3 ar 
     4    3   31 ar 
     5    3   32 1  
     6   32    4 1  
     7   32    5 1  
     8   32    6 1  
     9    7    8 1  
    10    7   22 1  
    11   28    7 1  
    12    8    9 ar 
    13    8   13 ar 
    14    9   10 ar 
    15   10   11 ar 
    16   12   11 ar 
    17   11   23 1  
    18   13   12 ar 
    19   14   15 ar 
    20   18   14 ar 
    21   22   14 1  
    22   15   16 ar 
    23   17   16 ar 
    24   25   17 ar 
    25   18   25 ar 
    26   26   18 1  
    27   20   19 ar 
    28   20   21 ar 
    29   22   20 1  
    30   23   24 1  
    31   26   27 2  
    32   28   26 am 
    33   28   29 1  
    34   29   30 ar 
    35   30   31 ar 
    36    1   33 1  
    37    2   34 1  
    38    4   35 1  
    39    4   36 1  
    40    4   37 1  
    41    5   38 1  
    42    5   39 1  
    43    5   40 1  
    44    6   41 1  
    45    6   42 1  
    46    6   43 1  
    47    7   44 1  
    48    9   45 1  
    49   10   46 1  
    50   12   47 1  
    51   13   48 1  
    52   15   49 1  
    53   16   50 1  
    54   17   51 1  
    55   22   52 1  
    56   24   53 1  
    57   24   54 1  
    58   24   55 1  
    59   25   56 1  
    60   30   57 1  
    61   31   58 1  
@<TRIPOS>SUBSTRUCTURE
     1 K5P         1

