### 
### Created by X-TOOL on Wed Jan  1 15:39:36 2020
### 

@<TRIPOS>MOLECULE
6mx8_ligand
   81    85     1     0     0
SMALL
GAST_HUCK


@<TRIPOS>ATOM
      1 C1          4.2100   15.5960    9.9080 C.ar      1 6GY         0.0985
      2 C2          4.7050   16.5040    8.9890 C.ar      1 6GY         0.1500
      3 C3         10.7220   16.9480    8.9860 C.3       1 6GY         0.0129
      4 C4          2.6900   17.6290    9.0880 C.ar      1 6GY         0.1907
      5 C6          2.9300   15.7740   10.3730 C.ar      1 6GY         0.0149
      6 C9          3.4920   20.2060    7.5580 C.ar      1 6GY        -0.0568
      7 C10         3.7080   21.3580    6.8250 C.ar      1 6GY        -0.0642
      8 C11         2.6420   22.1370    6.4130 C.ar      1 6GY         0.0202
      9 C12         1.3580   21.7560    6.7410 C.ar      1 6GY        -0.0241
     10 C13         1.1490   20.6090    7.4790 C.ar      1 6GY         0.1048
     11 O14        -0.1230   20.1730    7.8360 O.3       1 6GY        -0.3280
     12 C15        -1.0820   20.8780    7.0590 C.3       1 6GY         0.0568
     13 C18         3.2750   25.7600    5.5750 C.3       1 6GY         0.0097
     14 C26         4.7270   28.2870    1.6340 C.3       1 6GY         0.0092
     15 N3          3.9230   17.5080    8.5780 N.ar      1 6GY        -0.2347
     16 N5          2.1510   16.7850    9.9780 N.ar      1 6GY        -0.2693
     17 N7          1.8720   18.6690    8.6280 N.pl3     1 6GY        -0.2542
     18 C8          2.2060   19.8210    7.8860 C.ar      1 6GY         0.0831
     19 N16         2.8510   23.3160    5.6650 N.pl3     1 6GY        -0.3162
     20 C17         3.4440   24.4650    6.3410 C.3       1 6GY         0.0297
     21 C19         3.7010   25.5890    4.1350 C.3       1 6GY        -0.0169
     22 C20         2.8940   24.4830    3.4790 C.3       1 6GY         0.0097
     23 C21         3.0590   23.1700    4.2250 C.3       1 6GY         0.0297
     24 N22         3.7090   26.8870    3.3940 N.4       1 6GY         0.2449
     25 C23         2.3870   27.5620    3.2210 C.3       1 6GY         0.0097
     26 C24         2.5630   28.9530    2.6460 C.3       1 6GY         0.0092
     27 N25         3.3800   28.8790    1.4080 N.4       1 6GY         0.2405
     28 C27         4.5810   26.8820    2.1840 C.3       1 6GY         0.0097
     29 C28         3.4090   30.1620    0.6660 C.3       1 6GY        -0.0427
     30 N29         6.0240   16.3430    8.4900 N.pl3     1 6GY        -0.2484
     31 C30         6.7300   17.3280    7.7620 C.ar      1 6GY         0.0933
     32 C31         8.0470   17.6590    8.0590 C.ar      1 6GY         0.0689
     33 C32         8.6860   18.6290    7.3110 C.ar      1 6GY        -0.0435
     34 C33         8.0460   19.2710    6.2750 C.ar      1 6GY        -0.0637
     35 C34         6.7440   18.9430    5.9750 C.ar      1 6GY        -0.0638
     36 C35         6.0990   17.9780    6.7180 C.ar      1 6GY        -0.0280
     37 P1          8.9440   16.8800    9.3700 P.3       1 6GY         0.0364
     38 C37         8.8920   17.9300   10.8410 C.3       1 6GY         0.0129
     39 O41         8.5220   15.4540    9.6340 O.2       1 6GY        -0.5104
     40 CL          5.1480   14.2670   10.4700 Cl        1 6GY        -0.0750
     41 H1         11.2905   16.4661    9.7950 H         1 6GY         0.0457
     42 H2         11.0369   17.9977    8.8915 H         1 6GY         0.0457
     43 H3         10.9131   16.4212    8.0394 H         1 6GY         0.0457
     44 H4          2.5351   15.0642   11.0908 H         1 6GY         0.0854
     45 H5          4.3343   19.6026    7.8766 H         1 6GY         0.0475
     46 H6          4.7198   21.6528    6.5714 H         1 6GY         0.0397
     47 H7          0.5145   22.3563    6.4197 H         1 6GY         0.0409
     48 H8         -2.0933   20.5422    7.3318 H         1 6GY         0.0573
     49 H9         -0.9057   20.6805    5.9914 H         1 6GY         0.0573
     50 H10        -0.9892   21.9568    7.2525 H         1 6GY         0.0573
     51 H11         3.8927   26.5401    6.0439 H         1 6GY         0.0339
     52 H12         2.2177   26.0620    5.6052 H         1 6GY         0.0339
     53 H13         5.2824   28.9058    2.3541 H         1 6GY         0.0868
     54 H14         5.2756   28.2516    0.6812 H         1 6GY         0.0868
     55 H15         0.8745   18.5786    8.8683 H         1 6GY         0.2118
     56 H16         2.9663   24.5762    7.3256 H         1 6GY         0.0511
     57 H17         4.5193   24.2755    6.4745 H         1 6GY         0.0511
     58 H18         4.7450   25.2429    4.1495 H         1 6GY         0.0852
     59 H19         3.2386   24.3531    2.4425 H         1 6GY         0.0339
     60 H20         1.8308   24.7653    3.4793 H         1 6GY         0.0339
     61 H21         2.3275   22.4475    3.8340 H         1 6GY         0.0511
     62 H22         4.0771   22.7912    4.0519 H         1 6GY         0.0511
     63 H23         4.1934   27.5057    4.0254 H         1 6GY         0.2040
     64 H24         1.8897   27.6367    4.1993 H         1 6GY         0.0868
     65 H25         1.7645   26.9657    2.5377 H         1 6GY         0.0868
     66 H26         3.0714   29.5924    3.3827 H         1 6GY         0.0868
     67 H27         1.5769   29.3790    2.4092 H         1 6GY         0.0868
     68 H28         2.9000   28.2299    0.8044 H         1 6GY         0.2035
     69 H29         5.5739   26.4932    2.4541 H         1 6GY         0.0868
     70 H30         4.1310   26.2365    1.4154 H         1 6GY         0.0868
     71 H31         4.0259   30.0490   -0.2377 H         1 6GY         0.0778
     72 H32         3.8377   30.9466    1.3068 H         1 6GY         0.0778
     73 H33         2.3850   30.4424    0.3782 H         1 6GY         0.0778
     74 H34         6.4993   15.4472    8.6707 H         1 6GY         0.2200
     75 H35         9.7119   18.8898    7.5446 H         1 6GY         0.0675
     76 H36         8.5642   20.0296    5.6997 H         1 6GY         0.0542
     77 H37         6.2294   19.4398    5.1605 H         1 6GY         0.0648
     78 H38         5.0731   17.7228    6.4781 H         1 6GY         0.0559
     79 H39         7.8574   17.9946   11.2090 H         1 6GY         0.0457
     80 H40         9.2539   18.9369   10.5858 H         1 6GY         0.0457
     81 H41         9.5330   17.4973   11.6232 H         1 6GY         0.0457
@<TRIPOS>BOND
     1    2    1 ar 
     2    1    5 ar 
     3    1   40 1  
     4    2   15 ar 
     5   30    2 1  
     6   37    3 1  
     7   15    4 ar 
     8    4   16 ar 
     9    4   17 1  
    10    5   16 ar 
    11    6    7 ar 
    12   18    6 ar 
    13    7    8 ar 
    14    9    8 ar 
    15    8   19 1  
    16   10    9 ar 
    17   10   11 1  
    18   18   10 ar 
    19   11   12 1  
    20   20   13 1  
    21   13   21 1  
    22   14   27 1  
    23   28   14 1  
    24   17   18 1  
    25   19   20 1  
    26   19   23 1  
    27   22   21 1  
    28   21   24 1  
    29   23   22 1  
    30   24   25 1  
    31   24   28 1  
    32   25   26 1  
    33   26   27 1  
    34   27   29 1  
    35   31   30 1  
    36   32   31 ar 
    37   31   36 ar 
    38   32   33 ar 
    39   32   37 1  
    40   33   34 ar 
    41   34   35 ar 
    42   35   36 ar 
    43   37   38 1  
    44   37   39 2  
    45    3   41 1  
    46    3   42 1  
    47    3   43 1  
    48    5   44 1  
    49    6   45 1  
    50    7   46 1  
    51    9   47 1  
    52   12   48 1  
    53   12   49 1  
    54   12   50 1  
    55   13   51 1  
    56   13   52 1  
    57   14   53 1  
    58   14   54 1  
    59   17   55 1  
    60   20   56 1  
    61   20   57 1  
    62   21   58 1  
    63   22   59 1  
    64   22   60 1  
    65   23   61 1  
    66   23   62 1  
    67   24   63 1  
    68   25   64 1  
    69   25   65 1  
    70   26   66 1  
    71   26   67 1  
    72   27   68 1  
    73   28   69 1  
    74   28   70 1  
    75   29   71 1  
    76   29   72 1  
    77   29   73 1  
    78   30   74 1  
    79   33   75 1  
    80   34   76 1  
    81   35   77 1  
    82   36   78 1  
    83   38   79 1  
    84   38   80 1  
    85   38   81 1  
@<TRIPOS>SUBSTRUCTURE
     1 6GY         1

