### 
### Created by X-TOOL on Wed Jan  1 15:39:37 2020
### 

@<TRIPOS>MOLECULE
6mxe_ligand
   63    67     1     0     0
SMALL
GAST_HUCK


@<TRIPOS>ATOM
      1 F          52.6190   22.8240   75.0250 F         1 K5S        -0.1881
      2 C28        52.2160   21.6860   74.4090 C.ar      1 K5S         0.1304
      3 C          53.1730   20.8210   73.9650 C.ar      1 K5S        -0.0304
      4 C27        50.8650   21.4740   74.2450 C.ar      1 K5S        -0.0140
      5 C26        50.4600   20.3210   73.5640 C.ar      1 K5S         0.0610
      6 C2         51.4150   19.4080   73.0920 C.ar      1 K5S        -0.0159
      7 C1         52.7640   19.6820   73.2940 C.ar      1 K5S        -0.0553
      8 C25        49.0200   20.1260   73.2680 C.2       1 K5S         0.2486
      9 O4         48.2170   21.0390   73.2870 O.2       1 K5S        -0.3666
     10 N          48.6340   18.8460   72.9750 N.am      1 K5S        -0.1790
     11 C15        47.2600   18.5630   72.6780 C.ar      1 K5S         0.1147
     12 C24        46.2660   19.0350   73.5270 C.ar      1 K5S         0.0096
     13 C23        44.9400   18.7490   73.2590 C.ar      1 K5S         0.0534
     14 CL         43.7590   19.5180   74.2720 Cl        1 K5S        -0.0480
     15 C18        44.5610   17.9460   72.1780 C.ar      1 K5S        -0.0604
     16 C19        43.0980   17.4790   71.9390 C.3       1 K5S        -0.0682
     17 C22        42.1650   18.6610   71.6400 C.3       1 K5S        -0.0974
     18 C21        42.5590   16.7420   73.1730 C.3       1 K5S        -0.0974
     19 C20        42.9900   16.5250   70.7370 C.3       1 K5S        -0.0974
     20 C17        45.5770   17.5100   71.3320 C.ar      1 K5S        -0.0514
     21 C16        46.9060   17.8170   71.5630 C.ar      1 K5S        -0.0043
     22 C6         49.5810   17.7040   72.9660 C.3       1 K5S         0.1179
     23 C3         50.9550   18.1640   72.3560 C.3       1 K5S         0.0453
     24 C4         50.8280   18.4630   70.8560 C.3       1 K5S         0.0176
     25 C5         50.6040   17.2500   69.9890 C.2       1 K5S         0.0373
     26 O1         50.5970   17.5320   68.7260 O.co2     1 K5S        -0.5688
     27 O          50.4620   16.1190   70.4270 O.co2     1 K5S        -0.5688
     28 C7         49.7120   17.0250   74.3130 C.ar      1 K5S        -0.0266
     29 C14        50.4210   15.8260   74.4040 C.ar      1 K5S        -0.0367
     30 C13        50.5380   15.1740   75.6200 C.ar      1 K5S         0.1138
     31 C10        49.9750   15.7370   76.7730 C.ar      1 K5S         0.1127
     32 C9         49.2400   16.9150   76.6820 C.ar      1 K5S        -0.0478
     33 C8         49.1190   17.5510   75.4550 C.ar      1 K5S        -0.0770
     34 O3         51.1750   13.9580   75.6340 O.3       1 K5S        -0.3207
     35 C12        51.0700   13.2420   76.8730 C.3       1 K5S         0.0948
     36 C11        51.2170   14.1900   78.0600 C.3       1 K5S         0.0937
     37 O2         50.2180   15.2250   78.0240 O.3       1 K5S        -0.3236
     38 H1         54.2251   21.0205   74.1333 H         1 K5S         0.0623
     39 H2         50.1379   22.1789   74.6317 H         1 K5S         0.0637
     40 H3         53.5090   18.9899   72.9185 H         1 K5S         0.0560
     41 H4         46.5295   19.6257   74.3969 H         1 K5S         0.0632
     42 H5         41.1426   18.2891   71.4775 H         1 K5S         0.0094
     43 H6         42.5130   19.1835   70.7367 H         1 K5S         0.0094
     44 H7         42.1708   19.3573   72.4915 H         1 K5S         0.0094
     45 H8         43.2138   15.8893   73.4058 H         1 K5S         0.0094
     46 H9         41.5417   16.3776   72.9672 H         1 K5S         0.0094
     47 H10        42.5354   17.4309   74.0303 H         1 K5S         0.0094
     48 H11        43.3701   17.0271   69.8351 H         1 K5S         0.0094
     49 H12        41.9372   16.2449   70.5846 H         1 K5S         0.0094
     50 H13        43.5855   15.6209   70.9318 H         1 K5S         0.0094
     51 H14        45.3189   16.9116   70.4657 H         1 K5S         0.0799
     52 H15        47.6697   17.4752   70.8738 H         1 K5S         0.0631
     53 H16        49.1655   16.9490   72.2824 H         1 K5S         0.0828
     54 H17        51.6959   17.3630   72.4957 H         1 K5S         0.0536
     55 H18        51.7547   18.9545   70.5248 H         1 K5S         0.0459
     56 H19        49.9788   19.1475   70.7137 H         1 K5S         0.0459
     57 H20        50.8821   15.4034   73.5187 H         1 K5S         0.0451
     58 H21        48.7657   17.3324   77.5628 H         1 K5S         0.0493
     59 H22        48.5530   18.4729   75.3857 H         1 K5S         0.0437
     60 H23        51.8633   12.4813   76.9185 H         1 K5S         0.0636
     61 H24        50.0873   12.7504   76.9235 H         1 K5S         0.0636
     62 H25        52.2145   14.6525   78.0288 H         1 K5S         0.0633
     63 H26        51.1073   13.6173   78.9927 H         1 K5S         0.0633
@<TRIPOS>BOND
     1    1    2 1  
     2    2    3 ar 
     3    2    4 ar 
     4    3    7 ar 
     5    4    5 ar 
     6    5    6 ar 
     7    5    8 1  
     8    6    7 ar 
     9    6   23 1  
    10    8    9 2  
    11    8   10 am 
    12   10   11 1  
    13   10   22 1  
    14   11   12 ar 
    15   11   21 ar 
    16   12   13 ar 
    17   13   14 1  
    18   13   15 ar 
    19   15   16 1  
    20   15   20 ar 
    21   16   17 1  
    22   16   18 1  
    23   16   19 1  
    24   20   21 ar 
    25   22   23 1  
    26   22   28 1  
    27   23   24 1  
    28   24   25 1  
    29   25   26 ar 
    30   25   27 ar 
    31   28   29 ar 
    32   28   33 ar 
    33   29   30 ar 
    34   30   31 ar 
    35   30   34 1  
    36   31   32 ar 
    37   31   37 1  
    38   32   33 ar 
    39   34   35 1  
    40   35   36 1  
    41   36   37 1  
    42    3   38 1  
    43    4   39 1  
    44    7   40 1  
    45   12   41 1  
    46   17   42 1  
    47   17   43 1  
    48   17   44 1  
    49   18   45 1  
    50   18   46 1  
    51   18   47 1  
    52   19   48 1  
    53   19   49 1  
    54   19   50 1  
    55   20   51 1  
    56   21   52 1  
    57   22   53 1  
    58   23   54 1  
    59   24   55 1  
    60   24   56 1  
    61   29   57 1  
    62   32   58 1  
    63   33   59 1  
    64   35   60 1  
    65   35   61 1  
    66   36   62 1  
    67   36   63 1  
@<TRIPOS>SUBSTRUCTURE
     1 K5S         1

