### 
### Created by X-TOOL on Mon Aug  2 16:15:07 2021
### 

@<TRIPOS>MOLECULE
6myn_ligand
   56    60     1     0     0
SMALL
GAST_HUCK


@<TRIPOS>ATOM
      1 C4         41.8570   23.5020    0.7780 C.2       1 K6Y         0.0703
      2 C14        43.2210   16.3330   -1.4220 C.ar      1 K6Y        -0.0233
      3 C11        42.2620   18.6620   -0.1500 C.ar      1 K6Y         0.0555
      4 C7         41.1800   22.2950    1.4230 C.3       1 K6Y         0.1222
      5 C8         39.6810   22.3370    1.1790 C.3       1 K6Y        -0.0465
      6 C9         41.6080   21.0150    0.8210 C.1       1 K6Y        -0.1052
      7 C10        41.8910   19.9290    0.4130 C.1       1 K6Y        -0.0783
      8 C12        42.3350   18.5840   -1.5350 C.ar      1 K6Y        -0.0376
      9 C13        42.7770   17.4270   -2.1690 C.ar      1 K6Y         0.0322
     10 C3         42.1090   24.7150    1.4520 C.2       1 K6Y        -0.0181
     11 C1         43.1520   26.9200    0.5370 C.3       1 K6Y         0.0135
     12 C15        43.1410   16.3860   -0.0330 C.ar      1 K6Y        -0.0200
     13 C16        42.6420   17.5210    0.5630 C.ar      1 K6Y         0.1463
     14 C18        43.7740   15.1090   -2.1310 C.3       1 K6Y         0.0009
     15 C19        44.6910   15.4660   -3.3430 C.3       1 K6Y        -0.0082
     16 C2         42.6640   25.5180    0.5320 C.2       1 K6Y         0.1583
     17 C20        43.5090   15.2690   -4.3200 C.3       1 K6Y         0.0752
     18 C21        42.7550   14.6090   -3.2040 C.3       1 K6Y        -0.0082
     19 C23        42.5910   17.5140   -3.6280 C.2       1 K6Y         0.1425
     20 C25        41.9750   18.3960   -5.4970 C.2       1 K6Y         0.1144
     21 C26        42.3840   17.1170   -5.8120 C.2       1 K6Y         0.1729
     22 C27        42.3690   16.2690   -6.9910 C.2       1 K6Y         0.2317
     23 C30        42.9480   16.0470   -9.3330 C.3       1 K6Y         0.0189
     24 C31        41.6270   19.4380   -6.4480 C.2       1 K6Y         0.1990
     25 F17        42.4410   17.5170    1.8960 F         1 K6Y        -0.1799
     26 N22        42.8350   16.5600   -4.5830 N.pl3     1 K6Y        -0.2235
     27 N24        42.0920   18.6250   -4.1360 N.2       1 K6Y        -0.2977
     28 N29        42.9700   16.7570   -8.0670 N.am      1 K6Y        -0.2878
     29 N33        41.4790   20.6630   -5.9610 N.am      1 K6Y        -0.3023
     30 N5         42.2380   23.5620   -0.4670 N.2       1 K6Y        -0.0837
     31 O28        41.7870   15.1880   -6.9880 O.2       1 K6Y        -0.3839
     32 O32        41.4890   19.1620   -7.6490 O.2       1 K6Y        -0.3924
     33 O34        41.2910   22.3490    2.8510 O.3       1 K6Y        -0.4104
     34 O6         42.7630   24.8620   -0.6370 O.3       1 K6Y        -0.1195
     35 H1         39.2083   21.4621    1.6492 H         1 K6Y         0.0177
     36 H2         39.4851   22.3221    0.0967 H         1 K6Y         0.0177
     37 H3         39.2642   23.2571    1.6145 H         1 K6Y         0.0177
     38 H4         42.0424   19.4398   -2.1325 H         1 K6Y         0.0634
     39 H5         41.8984   24.9492    2.4945 H         1 K6Y         0.0350
     40 H6         43.5393   27.1769   -0.4600 H         1 K6Y         0.0454
     41 H7         43.9553   27.0260    1.2809 H         1 K6Y         0.0454
     42 H8         42.3230   27.5959    0.7936 H         1 K6Y         0.0454
     43 H9         43.4669   15.5458    0.5695 H         1 K6Y         0.0552
     44 H10        44.1649   14.3654   -1.4209 H         1 K6Y         0.0478
     45 H11        45.5205   14.7604   -3.4981 H         1 K6Y         0.0322
     46 H12        45.0832   16.4934   -3.3185 H         1 K6Y         0.0322
     47 H13        43.7034   14.6823   -5.2299 H         1 K6Y         0.0661
     48 H14        41.7391   15.0070   -3.0644 H         1 K6Y         0.0322
     49 H15        42.7108   13.5134   -3.2912 H         1 K6Y         0.0322
     50 H16        43.5029   16.6246  -10.0870 H         1 K6Y         0.0483
     51 H17        41.9067   15.9182   -9.6632 H         1 K6Y         0.0483
     52 H18        43.4178   15.0602   -9.2082 H         1 K6Y         0.0483
     53 H19        43.4487   17.6328   -8.0053 H         1 K6Y         0.1838
     54 H20        41.2396   21.4181   -6.5713 H         1 K6Y         0.1802
     55 H21        41.6068   20.8313   -4.9836 H         1 K6Y         0.1802
     56 H22        40.8422   21.6028    3.2309 H         1 K6Y         0.1980
@<TRIPOS>BOND
     1    4    1 1  
     2    1   10 1  
     3    1   30 2  
     4    9    2 ar 
     5    2   12 ar 
     6    2   14 1  
     7    3    7 1  
     8    8    3 ar 
     9    3   13 ar 
    10    4    5 1  
    11    6    4 1  
    12    4   33 1  
    13    7    6 3  
    14    9    8 ar 
    15   19    9 1  
    16   10   16 2  
    17   16   11 1  
    18   12   13 ar 
    19   13   25 1  
    20   15   14 1  
    21   18   14 1  
    22   17   15 1  
    23   16   34 1  
    24   17   18 1  
    25   26   17 1  
    26   19   26 1  
    27   27   19 2  
    28   20   21 2  
    29   20   24 1  
    30   20   27 1  
    31   21   22 1  
    32   21   26 1  
    33   22   28 am 
    34   22   31 2  
    35   28   23 1  
    36   24   29 am 
    37   24   32 2  
    38   30   34 1  
    39    5   35 1  
    40    5   36 1  
    41    5   37 1  
    42    8   38 1  
    43   10   39 1  
    44   11   40 1  
    45   11   41 1  
    46   11   42 1  
    47   12   43 1  
    48   14   44 1  
    49   15   45 1  
    50   15   46 1  
    51   17   47 1  
    52   18   48 1  
    53   18   49 1  
    54   23   50 1  
    55   23   51 1  
    56   23   52 1  
    57   28   53 1  
    58   29   54 1  
    59   29   55 1  
    60   33   56 1  
@<TRIPOS>SUBSTRUCTURE
     1 K6Y         1

