### 
### Created by X-TOOL on Mon Aug  2 16:15:07 2021
### 

@<TRIPOS>MOLECULE
6mzq_ligand
   53    56     1     0     0
SMALL
GAST_HUCK


@<TRIPOS>ATOM
      1 C0N       -11.7630  -10.7360    7.5680 C.3       1 TZ0         0.0591
      2 O01       -12.9560  -11.5140    7.7050 O.3       1 TZ0        -0.3241
      3 C0E       -12.9760  -12.3800    8.7440 C.ar      1 TZ0         0.0831
      4 C0O       -14.1480  -12.3560    9.4430 C.ar      1 TZ0        -0.0296
      5 C0C       -11.9130  -13.1780    9.0980 C.ar      1 TZ0        -0.0053
      6 C0D       -12.0420  -13.9980   10.2150 C.ar      1 TZ0         0.0831
      7 O02       -11.0250  -14.7970   10.6460 O.3       1 TZ0        -0.3241
      8 C0U        -9.8090  -14.7770    9.8640 C.3       1 TZ0         0.0591
      9 C0R       -13.2430  -14.0270   10.9390 C.ar      1 TZ0        -0.0296
     10 C0J       -14.2990  -13.1770   10.5460 C.ar      1 TZ0         0.0069
     11 C0S       -15.4820  -13.2160   11.1920 C.1       1 TZ0        -0.0676
     12 C0H       -16.3830  -13.1830   11.6840 C.1       1 TZ0        -0.0504
     13 C0G       -17.5930  -13.1480   12.3450 C.2       1 TZ0         0.1166
     14 N09       -18.6220  -13.9980   12.2710 N.2       1 TZ0        -0.1831
     15 C0A       -17.8140  -12.1070   13.2600 C.ar      1 TZ0         0.0955
     16 C0F       -17.1040  -10.9720   13.7540 C.ar      1 TZ0         0.1282
     17 N05       -15.8590  -10.6450   13.2700 N.pl3     1 TZ0        -0.3125
     18 N06       -17.7150  -10.2090   14.6560 N.ar      1 TZ0        -0.2655
     19 C0L       -18.9880  -10.5900   15.0340 C.ar      1 TZ0         0.0566
     20 N08       -19.7710  -11.6300   14.6740 N.ar      1 TZ0        -0.2674
     21 C0B       -19.0920  -12.3540   13.7630 C.ar      1 TZ0         0.1647
     22 N04       -19.5490  -13.4800   13.1420 N.pl3     1 TZ0        -0.1767
     23 C0K       -20.8480  -14.1620   13.2950 C.3       1 TZ0         0.1033
     24 C0I       -20.9760  -15.2210   12.2440 C.3       1 TZ0         0.0646
     25 C0Q       -22.0720  -13.2400   13.1560 C.3       1 TZ0         0.0009
     26 C0T       -22.5600  -13.2940   11.7630 C.3       1 TZ0         0.0361
     27 N07       -21.8060  -14.4880   11.2230 N.am      1 TZ0        -0.2707
     28 C0P       -21.8050  -15.0220    9.9630 C.2       1 TZ0         0.1978
     29 O03       -21.1290  -16.0530    9.7050 O.2       1 TZ0        -0.3875
     30 C0M       -22.6100  -14.3430    8.9100 C.2       1 TZ0         0.0083
     31 C0V       -22.6510  -14.7670    7.6320 C.2       1 TZ0        -0.0786
     32 H1        -11.8568  -10.0713    6.6966 H         1 TZ0         0.0577
     33 H2        -10.9023  -11.4063    7.4269 H         1 TZ0         0.0577
     34 H3        -11.6128  -10.1322    8.4751 H         1 TZ0         0.0577
     35 H4        -14.9538  -11.6990    9.1363 H         1 TZ0         0.0459
     36 H5        -10.9959  -13.1684    8.5202 H         1 TZ0         0.0466
     37 H6         -9.0726  -15.4591   10.3138 H         1 TZ0         0.0577
     38 H7         -9.4005  -13.7558    9.8473 H         1 TZ0         0.0577
     39 H8        -10.0287  -15.1009    8.8360 H         1 TZ0         0.0577
     40 H9        -13.3583  -14.6920   11.7873 H         1 TZ0         0.0459
     41 H10       -15.3627   -9.8216   13.6397 H         1 TZ0         0.1842
     42 H11       -15.4228  -11.2235   12.5378 H         1 TZ0         0.1842
     43 H12       -19.4465   -9.9269   15.7587 H         1 TZ0         0.1030
     44 H13       -20.8734  -14.6274   14.2914 H         1 TZ0         0.0683
     45 H14       -21.4947  -16.1127   12.6258 H         1 TZ0         0.0552
     46 H15       -19.9959  -15.5124   11.8384 H         1 TZ0         0.0552
     47 H16       -21.7864  -12.2078   13.4067 H         1 TZ0         0.0315
     48 H17       -22.8665  -13.5766   13.8382 H         1 TZ0         0.0315
     49 H18       -22.3056  -12.3762   11.2126 H         1 TZ0         0.0522
     50 H19       -23.6474  -13.4551   11.7246 H         1 TZ0         0.0522
     51 H20       -23.1915  -13.4644    9.1855 H         1 TZ0         0.0692
     52 H21       -23.2564  -14.2337    6.9005 H         1 TZ0         0.0687
     53 H22       -22.0787  -15.6430    7.3303 H         1 TZ0         0.0687
@<TRIPOS>BOND
     1    1    2 1  
     2    2    3 1  
     3    3    4 ar 
     4    3    5 ar 
     5    4   10 ar 
     6    5    6 ar 
     7    6    7 1  
     8    6    9 ar 
     9    7    8 1  
    10    9   10 ar 
    11   10   11 1  
    12   11   12 3  
    13   12   13 1  
    14   13   14 2  
    15   13   15 1  
    16   14   22 1  
    17   15   16 ar 
    18   15   21 ar 
    19   16   17 1  
    20   16   18 ar 
    21   18   19 ar 
    22   19   20 ar 
    23   20   21 ar 
    24   21   22 1  
    25   22   23 1  
    26   23   24 1  
    27   23   25 1  
    28   24   27 1  
    29   25   26 1  
    30   26   27 1  
    31   27   28 am 
    32   28   29 2  
    33   28   30 1  
    34   30   31 2  
    35    1   32 1  
    36    1   33 1  
    37    1   34 1  
    38    4   35 1  
    39    5   36 1  
    40    8   37 1  
    41    8   38 1  
    42    8   39 1  
    43    9   40 1  
    44   17   41 1  
    45   17   42 1  
    46   19   43 1  
    47   23   44 1  
    48   24   45 1  
    49   24   46 1  
    50   25   47 1  
    51   25   48 1  
    52   26   49 1  
    53   26   50 1  
    54   30   51 1  
    55   31   52 1  
    56   31   53 1  
@<TRIPOS>SUBSTRUCTURE
     1 TZ0         1

