### 
### Created by X-TOOL on Mon Aug  2 16:10:18 2021
### 

@<TRIPOS>MOLECULE
6mzw_ligand
   53    56     1     0     0
SMALL
GAST_HUCK


@<TRIPOS>ATOM
      1 C0N       -11.7010   12.9120    6.8790 C.3       1 TZ0         0.0591
      2 O01       -12.7520   12.9290    7.8480 O.3       1 TZ0        -0.3241
      3 C0E       -12.7380   11.8930    8.7690 C.ar      1 TZ0         0.0831
      4 C0O       -13.8940   11.8400    9.4980 C.ar      1 TZ0        -0.0296
      5 C0C       -11.7010   10.9850    8.9910 C.ar      1 TZ0        -0.0053
      6 C0D       -11.8970   10.0200    9.9810 C.ar      1 TZ0         0.0831
      7 O02       -10.9870    9.0790   10.3000 O.3       1 TZ0        -0.3241
      8 C0U        -9.6220    9.1430    9.8900 C.3       1 TZ0         0.0591
      9 C0R       -13.0790    9.9380   10.7240 C.ar      1 TZ0        -0.0296
     10 C0J       -14.0780   10.8830   10.4790 C.ar      1 TZ0         0.0069
     11 C0S       -15.2980   10.8240   11.1710 C.1       1 TZ0        -0.0676
     12 C0H       -16.2760   10.8730   11.7060 C.1       1 TZ0        -0.0504
     13 C0G       -17.4610   10.8820   12.3540 C.2       1 TZ0         0.1166
     14 N09       -18.4320    9.9480   12.2190 N.2       1 TZ0        -0.1831
     15 C0A       -17.8190   11.9050   13.2610 C.ar      1 TZ0         0.0955
     16 C0F       -17.3190   13.1040   13.8420 C.ar      1 TZ0         0.1282
     17 N05       -16.1270   13.5830   13.5320 N.pl3     1 TZ0        -0.3125
     18 N06       -18.0650   13.7970   14.7110 N.ar      1 TZ0        -0.2655
     19 C0L       -19.2810   13.2890   15.0130 C.ar      1 TZ0         0.0566
     20 N08       -19.8850   12.1920   14.5800 N.ar      1 TZ0        -0.2674
     21 C0B       -19.1020   11.5420   13.6950 C.ar      1 TZ0         0.1647
     22 N04       -19.4510   10.3790   13.0510 N.pl3     1 TZ0        -0.1767
     23 C0K       -20.7310    9.6590   13.2520 C.3       1 TZ0         0.1033
     24 C0I       -20.4890    8.2050   13.2720 C.3       1 TZ0         0.0646
     25 C0Q       -21.7760    9.8880   12.1720 C.3       1 TZ0         0.0009
     26 C0T       -21.4810    8.9130   11.0860 C.3       1 TZ0         0.0361
     27 N07       -20.7560    7.8420   11.8540 N.am      1 TZ0        -0.2707
     28 C0P       -20.4070    6.6410   11.3070 C.2       1 TZ0         0.1978
     29 O03       -20.6780    6.4020   10.1100 O.2       1 TZ0        -0.3875
     30 C0M       -19.6780    5.6300   12.1280 C.2       1 TZ0         0.0083
     31 C0V       -19.3250    4.4500   11.6250 C.2       1 TZ0        -0.0786
     32 H1        -11.8104   13.7739    6.2043 H         1 TZ0         0.0577
     33 H2        -11.7548   11.9808    6.2959 H         1 TZ0         0.0577
     34 H3        -10.7291   12.9683    7.3911 H         1 TZ0         0.0577
     35 H4        -14.6798   12.5609    9.3033 H         1 TZ0         0.0459
     36 H5        -10.7815   11.0274    8.4184 H         1 TZ0         0.0466
     37 H6         -9.0827    8.2639   10.2726 H         1 TZ0         0.0577
     38 H7         -9.1615   10.0584   10.2900 H         1 TZ0         0.0577
     39 H8         -9.5693    9.1559    8.7913 H         1 TZ0         0.0577
     40 H9        -13.2160    9.1628   11.4692 H         1 TZ0         0.0459
     41 H10       -15.7921   14.4534   13.9692 H         1 TZ0         0.1842
     42 H11       -15.5328   13.0859   12.8532 H         1 TZ0         0.1842
     43 H12       -19.8541   13.8732   15.7238 H         1 TZ0         0.1030
     44 H13       -21.1489    9.9785   14.2181 H         1 TZ0         0.0683
     45 H14       -21.1811    7.6915   13.9556 H         1 TZ0         0.0552
     46 H15       -19.4523    7.9738   13.5578 H         1 TZ0         0.0552
     47 H16       -21.7072   10.9166   11.7884 H         1 TZ0         0.0315
     48 H17       -22.7843    9.7139   12.5756 H         1 TZ0         0.0315
     49 H18       -20.8417    9.3556   10.3079 H         1 TZ0         0.0522
     50 H19       -22.4034    8.5274   10.6272 H         1 TZ0         0.0522
     51 H20       -19.4294    5.8635   13.1622 H         1 TZ0         0.0692
     52 H21       -18.7936    3.7303   12.2460 H         1 TZ0         0.0687
     53 H22       -19.5674    4.2038   10.5923 H         1 TZ0         0.0687
@<TRIPOS>BOND
     1    1    2 1  
     2    2    3 1  
     3    3    4 ar 
     4    3    5 ar 
     5    4   10 ar 
     6    5    6 ar 
     7    6    7 1  
     8    6    9 ar 
     9    7    8 1  
    10    9   10 ar 
    11   10   11 1  
    12   11   12 3  
    13   12   13 1  
    14   13   14 2  
    15   13   15 1  
    16   14   22 1  
    17   15   16 ar 
    18   15   21 ar 
    19   16   17 1  
    20   16   18 ar 
    21   18   19 ar 
    22   19   20 ar 
    23   20   21 ar 
    24   21   22 1  
    25   22   23 1  
    26   23   24 1  
    27   23   25 1  
    28   24   27 1  
    29   25   26 1  
    30   26   27 1  
    31   27   28 am 
    32   28   29 2  
    33   28   30 1  
    34   30   31 2  
    35    1   32 1  
    36    1   33 1  
    37    1   34 1  
    38    4   35 1  
    39    5   36 1  
    40    8   37 1  
    41    8   38 1  
    42    8   39 1  
    43    9   40 1  
    44   17   41 1  
    45   17   42 1  
    46   19   43 1  
    47   23   44 1  
    48   24   45 1  
    49   24   46 1  
    50   25   47 1  
    51   25   48 1  
    52   26   49 1  
    53   26   50 1  
    54   30   51 1  
    55   31   52 1  
    56   31   53 1  
@<TRIPOS>SUBSTRUCTURE
     1 TZ0         1

