### 
### Created by X-TOOL on Mon Aug  2 16:15:08 2021
### 

@<TRIPOS>MOLECULE
6n0m_ligand
   25    24     1     0     0
SMALL
GAST_HUCK


@<TRIPOS>ATOM
      1 O1        -31.0680   52.9830   78.6820 O.co2     1 K94        -0.5643
      2 C2        -30.3600   53.9190   78.3440 C.2       1 K94         0.0844
      3 O2        -30.1020   54.8800   79.2250 O.co2     1 K94        -0.5643
      4 C1        -29.8000   54.0040   76.9600 C.3       1 K94         0.0290
      5 N1        -30.7400   53.3510   76.0170 N.4       1 K94         0.2327
      6 C3        -29.6150   55.4750   76.6350 C.3       1 K94         0.0127
      7 C4        -28.6640   55.7640   75.4760 C.3       1 K94         0.0322
      8 C6        -28.8170   54.7940   74.3070 C.3       1 K94        -0.0543
      9 C5        -27.2150   55.6980   75.9700 C.3       1 K94        -0.0543
     10 C7        -29.0640   57.1780   75.0320 C.3       1 K94         0.2446
     11 F2        -28.5270   58.0080   75.9750 F         1 K94        -0.2087
     12 F1        -28.6680   57.5170   73.7580 F         1 K94        -0.2087
     13 H1        -28.8275   53.4921   76.9144 H         1 K94         0.1024
     14 H2        -30.3687   53.4046   75.0814 H         1 K94         0.2010
     15 H3        -31.6314   53.8203   76.0521 H         1 K94         0.2010
     16 H4        -30.8588   52.3843   76.2765 H         1 K94         0.2010
     17 H5        -29.2222   55.9761   77.5320 H         1 K94         0.0346
     18 H6        -30.5995   55.8952   76.3817 H         1 K94         0.0346
     19 H7        -28.1043   55.0614   73.5130 H         1 K94         0.0237
     20 H8        -29.8427   54.8524   73.9139 H         1 K94         0.0237
     21 H9        -28.6142   53.7693   74.6518 H         1 K94         0.0237
     22 H10       -27.0835   56.3911   76.8140 H         1 K94         0.0237
     23 H11       -26.5357   55.9823   75.1529 H         1 K94         0.0237
     24 H12       -26.9857   54.6734   76.2978 H         1 K94         0.0237
     25 H13       -30.1606   57.2581   75.0637 H         1 K94         0.1023
@<TRIPOS>BOND
     1    1    2 ar 
     2    2    3 ar 
     3    2    4 1  
     4    4    5 1  
     5    4    6 1  
     6    6    7 1  
     7    7    8 1  
     8    7    9 1  
     9    7   10 1  
    10   10   11 1  
    11   10   12 1  
    12    4   13 1  
    13    5   14 1  
    14    5   15 1  
    15    5   16 1  
    16    6   17 1  
    17    6   18 1  
    18    8   19 1  
    19    8   20 1  
    20    8   21 1  
    21    9   22 1  
    22    9   23 1  
    23    9   24 1  
    24   10   25 1  
@<TRIPOS>SUBSTRUCTURE
     1 K94         1

