### 
### Created by X-TOOL on Mon Aug  2 16:15:08 2021
### 

@<TRIPOS>MOLECULE
6n0p_ligand
   61    64     1     0     0
SMALL
GAST_HUCK


@<TRIPOS>ATOM
      1 C1        -41.1410   25.6520   -2.9950 C.ar      1 K81         0.0989
      2 C3        -43.1200   26.9010   -3.1880 C.ar      1 K81         0.1469
      3 C11       -45.4670   20.9150   -4.2570 C.ar      1 K81        -0.0449
      4 C12       -45.0030   21.1570   -2.9650 C.ar      1 K81        -0.0698
      5 C13       -44.2370   22.3000   -2.6640 C.ar      1 K81        -0.0486
      6 C14       -43.6680   22.4410   -1.2830 C.3       1 K81        -0.0355
      7 C16       -38.9640   24.3610   -3.0210 C.3       1 K81         0.0528
      8 C17       -37.4930   24.7360   -3.2100 C.3       1 K81         0.0678
      9 C19       -37.7350   26.8670   -2.1620 C.3       1 K81         0.0678
     10 C20       -39.2050   26.5950   -1.7520 C.3       1 K81         0.0528
     11 C21       -44.8620   21.6630   -7.7290 C.2       1 K81         0.2469
     12 C22       -45.5000   21.1800   -8.9660 C.ar      1 K81         0.1034
     13 C24       -46.8960   21.0950   -9.0810 C.ar      1 K81         0.0133
     14 C25       -47.4140   20.6610  -10.3250 C.ar      1 K81         0.0468
     15 C27       -45.2540   20.4590  -11.2100 C.ar      1 K81         0.1286
     16 C28       -44.6560   20.8470  -10.0260 C.ar      1 K81         0.0157
     17 C29       -44.3960   20.2870  -12.4720 C.3       1 K81         0.3978
     18 N2        -41.7690   26.8810   -2.9710 N.ar      1 K81        -0.2642
     19 C4        -43.8950   25.7630   -3.4410 C.ar      1 K81        -0.0155
     20 C5        -43.2180   24.5180   -3.4660 C.ar      1 K81        -0.0283
     21 C6        -41.8250   24.4340   -3.2430 C.ar      1 K81        -0.0247
     22 N7        -39.7370   25.6390   -2.7980 N.pl3     1 K81        -0.2930
     23 C8        -43.9730   23.2660   -3.6970 C.ar      1 K81        -0.0260
     24 C9        -44.4490   23.0660   -5.0030 C.ar      1 K81        -0.0371
     25 C10       -45.1790   21.8520   -5.2680 C.ar      1 K81         0.0620
     26 N15       -45.5820   21.5000   -6.5800 N.am      1 K81        -0.2345
     27 O18       -37.0750   25.6120   -2.1620 O.3       1 K81        -0.3758
     28 O23       -43.7550   22.1850   -7.7420 O.2       1 K81        -0.3683
     29 N26       -46.6130   20.3390  -11.3850 N.ar      1 K81        -0.2589
     30 F30       -44.9190   21.0260  -13.4720 F         1 K81        -0.2126
     31 O31       -43.7510   28.1310   -3.1690 O.3       1 K81        -0.3014
     32 C32       -43.0890   29.2140   -2.5230 C.3       1 K81         0.0966
     33 F33       -43.1200   20.7080  -12.3360 F         1 K81        -0.2126
     34 C34       -44.1760   30.3120   -2.4900 C.3       1 K81         0.0724
     35 O35       -44.4680   30.6920   -3.8120 O.3       1 K81        -0.3923
     36 F36       -44.2740   19.0410  -12.9420 F         1 K81        -0.2126
     37 H1        -46.0392   20.0216   -4.4795 H         1 K81         0.0507
     38 H2        -45.2364   20.4513   -2.1760 H         1 K81         0.0527
     39 H3        -43.9978   21.5947   -0.6624 H         1 K81         0.0373
     40 H4        -44.0197   23.3825   -0.8359 H         1 K81         0.0373
     41 H5        -42.5694   22.4491   -1.3381 H         1 K81         0.0373
     42 H6        -39.0733   23.6997   -2.1488 H         1 K81         0.0542
     43 H7        -39.3386   23.8482   -3.9192 H         1 K81         0.0542
     44 H8        -37.3671   25.2410   -4.1791 H         1 K81         0.0580
     45 H9        -36.8787   23.8238   -3.1893 H         1 K81         0.0580
     46 H10       -37.2589   27.5460   -1.4393 H         1 K81         0.0580
     47 H11       -37.6978   27.3152   -3.1658 H         1 K81         0.0580
     48 H12       -39.7851   27.5296   -1.7527 H         1 K81         0.0542
     49 H13       -39.2486   26.1370   -0.7528 H         1 K81         0.0542
     50 H14       -47.5487   21.3503   -8.2541 H         1 K81         0.0983
     51 H15       -48.4887   20.5808  -10.4417 H         1 K81         0.0941
     52 H16       -43.5776   20.8907   -9.9252 H         1 K81         0.1008
     53 H17       -44.9636   25.8308   -3.6100 H         1 K81         0.0509
     54 H18       -41.3037   23.4837   -3.2606 H         1 K81         0.0499
     55 H19       -44.2738   23.7979   -5.7832 H         1 K81         0.0502
     56 H20       -46.4888   21.0891   -6.6746 H         1 K81         0.2233
     57 H21       -42.2119   29.5426   -3.0999 H         1 K81         0.0642
     58 H22       -42.7758   28.9364   -1.5057 H         1 K81         0.0642
     59 H23       -43.8073   31.1821   -1.9269 H         1 K81         0.0584
     60 H24       -45.0838   29.9208   -2.0075 H         1 K81         0.0584
     61 H25       -44.7838   29.9372   -4.2949 H         1 K81         0.2095
@<TRIPOS>BOND
     1    1   18 ar 
     2   21    1 ar 
     3    1   22 1  
     4    2   18 ar 
     5   19    2 ar 
     6    2   31 1  
     7    3    4 ar 
     8   25    3 ar 
     9    4    5 ar 
    10    5    6 1  
    11   23    5 ar 
    12    7    8 1  
    13   22    7 1  
    14    8   27 1  
    15   10    9 1  
    16    9   27 1  
    17   22   10 1  
    18   11   12 1  
    19   26   11 am 
    20   11   28 2  
    21   12   13 ar 
    22   12   16 ar 
    23   13   14 ar 
    24   14   29 ar 
    25   16   15 ar 
    26   15   17 1  
    27   15   29 ar 
    28   17   30 1  
    29   17   33 1  
    30   17   36 1  
    31   20   19 ar 
    32   20   21 ar 
    33   23   20 1  
    34   24   23 ar 
    35   25   24 ar 
    36   25   26 1  
    37   31   32 1  
    38   32   34 1  
    39   34   35 1  
    40    3   37 1  
    41    4   38 1  
    42    6   39 1  
    43    6   40 1  
    44    6   41 1  
    45    7   42 1  
    46    7   43 1  
    47    8   44 1  
    48    8   45 1  
    49    9   46 1  
    50    9   47 1  
    51   10   48 1  
    52   10   49 1  
    53   13   50 1  
    54   14   51 1  
    55   16   52 1  
    56   19   53 1  
    57   21   54 1  
    58   24   55 1  
    59   26   56 1  
    60   32   57 1  
    61   32   58 1  
    62   34   59 1  
    63   34   60 1  
    64   35   61 1  
@<TRIPOS>SUBSTRUCTURE
     1 K81         1

