### 
### Created by X-TOOL on Mon Aug  2 16:15:08 2021
### 

@<TRIPOS>MOLECULE
6n0q_ligand
   49    52     1     0     0
SMALL
GAST_HUCK


@<TRIPOS>ATOM
      1 C1        -22.6260    3.7730   -7.6200 C.ar      1 K7S        -0.0521
      2 C2        -22.7770    5.1600   -7.8680 C.ar      1 K7S        -0.0824
      3 C3        -21.6370    5.9710   -8.1280 C.ar      1 K7S        -0.0512
      4 C11       -18.7220    7.2210   -8.6570 C.3       1 K7S         0.0447
      5 C12       -23.8000    2.9340   -7.3780 C.ar      1 K7S        -0.0413
      6 C13       -23.9640    2.4560   -6.0690 C.ar      1 K7S        -0.0434
      7 C14       -25.0570    1.6110   -5.7660 C.ar      1 K7S         0.0577
      8 C15       -25.9610    1.2120   -6.7640 C.ar      1 K7S        -0.0487
      9 C16       -25.7970    1.6830   -8.0700 C.ar      1 K7S        -0.0739
     10 C17       -24.7450    2.5530   -8.4040 C.ar      1 K7S        -0.0548
     11 C19       -24.7060    3.0800   -9.7900 C.3       1 K7S        -0.0375
     12 C20       -25.0710    1.9020   -3.2640 C.2       1 K7S         0.2376
     13 C21       -25.5750    1.2460   -2.0210 C.ar      1 K7S         0.0849
     14 C22       -25.9290   -0.1290   -1.9630 C.ar      1 K7S        -0.0142
     15 C23       -26.4930   -0.6580   -0.7800 C.ar      1 K7S        -0.0272
     16 C24       -26.6940    0.1760    0.3370 C.ar      1 K7S        -0.0278
     17 C25       -26.3160    1.5390    0.2660 C.ar      1 K7S         0.0540
     18 C26       -25.7600    2.0800   -0.8990 C.ar      1 K7S        -0.0107
     19 C28       -26.4900    2.4950    1.4460 C.3       1 K7S         0.3783
     20 C4        -20.3780    5.3430   -8.1230 C.ar      1 K7S         0.0955
     21 C5        -20.2490    3.9490   -7.8470 C.ar      1 K7S         0.0923
     22 C6        -21.3620    3.1520   -7.5900 C.ar      1 K7S        -0.0468
     23 N7        -19.0640    5.8300   -8.3680 N.am      1 K7S        -0.2080
     24 C8        -18.1330    4.7480   -8.2490 C.2       1 K7S         0.3104
     25 N9        -18.8860    3.6070   -7.9230 N.am      1 K7S        -0.2196
     26 O10       -16.9060    4.7760   -8.4080 O.2       1 K7S        -0.3945
     27 N18       -25.3650    1.2040   -4.4320 N.am      1 K7S        -0.2369
     28 O27       -24.4440    2.9670   -3.2370 O.2       1 K7S        -0.3732
     29 F29       -27.6130    3.2240    1.3990 F         1 K7S        -0.2197
     30 F30       -26.5030    1.8700    2.6390 F         1 K7S        -0.2197
     31 F31       -25.4940    3.3990    1.5660 F         1 K7S        -0.2197
     32 H1        -23.7653    5.6052   -7.8596 H         1 K7S         0.0462
     33 H2        -21.7349    7.0329   -8.3226 H         1 K7S         0.0468
     34 H3        -19.6405    7.8255   -8.6883 H         1 K7S         0.0551
     35 H4        -18.2118    7.2787   -9.6298 H         1 K7S         0.0551
     36 H5        -18.0563    7.6060   -7.8705 H         1 K7S         0.0551
     37 H6        -23.2574    2.7326   -5.2948 H         1 K7S         0.0467
     38 H7        -26.7799    0.5437   -6.5234 H         1 K7S         0.0477
     39 H8        -26.4942    1.3714   -8.8393 H         1 K7S         0.0516
     40 H9        -23.8354    3.7422   -9.9061 H         1 K7S         0.0366
     41 H10       -25.6270    3.6462   -9.9931 H         1 K7S         0.0366
     42 H11       -24.6266    2.2425  -10.4987 H         1 K7S         0.0366
     43 H12       -25.7671   -0.7694   -2.8225 H         1 K7S         0.0902
     44 H13       -26.7707   -1.7048   -0.7324 H         1 K7S         0.0708
     45 H14       -27.1345   -0.2222    1.2439 H         1 K7S         0.0883
     46 H15       -25.4756    3.1253   -0.9382 H         1 K7S         0.0912
     47 H16       -21.2594    2.0945   -7.3752 H         1 K7S         0.0456
     48 H17       -18.5110    2.6929   -7.7688 H         1 K7S         0.2249
     49 H18       -25.8394    0.3300   -4.3265 H         1 K7S         0.2229
@<TRIPOS>BOND
     1    2    1 ar 
     2    1    5 1  
     3    1   22 ar 
     4    3    2 ar 
     5   20    3 ar 
     6   23    4 1  
     7    5    6 ar 
     8    5   10 ar 
     9    6    7 ar 
    10    7    8 ar 
    11    7   27 1  
    12    9    8 ar 
    13   10    9 ar 
    14   10   11 1  
    15   12   13 1  
    16   27   12 am 
    17   12   28 2  
    18   13   14 ar 
    19   13   18 ar 
    20   14   15 ar 
    21   15   16 ar 
    22   17   16 ar 
    23   18   17 ar 
    24   17   19 1  
    25   19   29 1  
    26   19   30 1  
    27   19   31 1  
    28   20   21 ar 
    29   20   23 1  
    30   21   22 ar 
    31   21   25 1  
    32   23   24 am 
    33   24   25 am 
    34   24   26 2  
    35    2   32 1  
    36    3   33 1  
    37    4   34 1  
    38    4   35 1  
    39    4   36 1  
    40    6   37 1  
    41    8   38 1  
    42    9   39 1  
    43   11   40 1  
    44   11   41 1  
    45   11   42 1  
    46   14   43 1  
    47   15   44 1  
    48   16   45 1  
    49   18   46 1  
    50   22   47 1  
    51   25   48 1  
    52   27   49 1  
@<TRIPOS>SUBSTRUCTURE
     1 K7S         1

