### 
### Created by X-TOOL on Mon Aug  2 16:15:08 2021
### 

@<TRIPOS>MOLECULE
6n17_ligand
   28    28     1     0     0
SMALL
GAST_HUCK


@<TRIPOS>ATOM
      1 C10         5.9930  -15.5970  -33.7040 C.ar      1 K8Y        -0.0348
      2 C13         6.9080  -12.0690  -34.6650 C.2       1 K8Y         0.0552
      3 C17         9.5490  -13.4940  -34.8810 C.2       1 K8Y         0.0619
      4 C20         8.3490  -15.5790  -34.1720 C.ar      1 K8Y        -0.0233
      5 C02         8.0920  -21.0620  -35.7360 C.2       1 K8Y         0.0371
      6 C04         8.6830  -21.1200  -34.3290 C.3       1 K8Y         0.0176
      7 C05         8.0060  -20.1080  -33.4100 C.3       1 K8Y         0.0549
      8 C06         8.1600  -18.6730  -33.9180 C.2       1 K8Y         0.2063
      9 C09         7.1980  -16.2700  -33.8000 C.ar      1 K8Y         0.0730
     10 C11         5.9230  -14.2470  -33.9930 C.ar      1 K8Y        -0.0578
     11 C12         7.0570  -13.5620  -34.3740 C.ar      1 K8Y         0.0083
     12 C16         8.2730  -14.2260  -34.4650 C.ar      1 K8Y         0.0107
     13 N08         7.2110  -17.6850  -33.4500 N.am      1 K8Y        -0.2314
     14 O01         6.9160  -20.6360  -35.9040 O.co2     1 K8Y        -0.5689
     15 O03         8.7820  -21.4300  -36.7250 O.co2     1 K8Y        -0.5689
     16 O07         9.0180  -18.4010  -34.6900 O.2       1 K8Y        -0.3842
     17 O14         7.6700  -11.2370  -34.1270 O.co2     1 K8Y        -0.5641
     18 O15         5.9870  -11.6650  -35.4130 O.co2     1 K8Y        -0.5641
     19 O18        10.5900  -13.6270  -34.1870 O.co2     1 K8Y        -0.5601
     20 O19         9.5650  -12.7560  -35.9020 O.co2     1 K8Y        -0.5601
     21 H1          5.0996  -16.1308  -33.4007 H         1 K8Y         0.0531
     22 H2          9.2995  -16.0967  -34.2321 H         1 K8Y         0.0545
     23 H3          9.7586  -20.8955  -34.3810 H         1 K8Y         0.0455
     24 H4          8.5387  -22.1307  -33.9195 H         1 K8Y         0.0455
     25 H5          8.4578  -20.1801  -32.4097 H         1 K8Y         0.0526
     26 H6          6.9344  -20.3483  -33.3466 H         1 K8Y         0.0526
     27 H7          4.9751  -13.7263  -33.9199 H         1 K8Y         0.0618
     28 H8          6.4963  -18.0036  -32.8273 H         1 K8Y         0.2271
@<TRIPOS>BOND
     1    1    9 ar 
     2   10    1 ar 
     3   11    2 1  
     4    2   17 ar 
     5    2   18 ar 
     6   12    3 1  
     7    3   19 ar 
     8    3   20 ar 
     9    9    4 ar 
    10    4   12 ar 
    11    6    5 1  
    12    5   14 ar 
    13    5   15 ar 
    14    7    6 1  
    15    8    7 1  
    16   13    8 am 
    17    8   16 2  
    18    9   13 1  
    19   10   11 ar 
    20   11   12 ar 
    21    1   21 1  
    22    4   22 1  
    23    6   23 1  
    24    6   24 1  
    25    7   25 1  
    26    7   26 1  
    27   10   27 1  
    28   13   28 1  
@<TRIPOS>SUBSTRUCTURE
     1 K8Y         1

