### 
### Created by X-TOOL on Mon Aug  2 16:15:08 2021
### 

@<TRIPOS>MOLECULE
6n19_ligand
   31    31     1     0     0
SMALL
GAST_HUCK


@<TRIPOS>ATOM
      1 C10         7.2160  -16.4680  -33.9450 C.ar      1 K8V         0.0730
      2 C13         7.0850  -13.7050  -34.1670 C.ar      1 K8V         0.0083
      3 C17         8.3000  -14.3560  -34.2990 C.ar      1 K8V         0.0107
      4 C21         8.3670  -15.7370  -34.2020 C.ar      1 K8V        -0.0233
      5 C02         7.8260  -21.8760  -37.5920 C.2       1 K8V         0.0349
      6 C04         7.4070  -21.6180  -36.1430 C.3       1 K8V         0.0023
      7 C05         8.5510  -21.0800  -35.2820 C.3       1 K8V        -0.0240
      8 C06         8.0720  -20.3390  -34.0310 C.3       1 K8V         0.0449
      9 C07         8.2590  -18.8330  -34.2050 C.2       1 K8V         0.2048
     10 C11         6.0030  -15.8100  -33.8120 C.ar      1 K8V        -0.0348
     11 C12         5.9310  -14.4330  -33.9220 C.ar      1 K8V        -0.0578
     12 C14         6.9660  -12.1840  -34.2750 C.2       1 K8V         0.0552
     13 C18         9.5850  -13.5880  -34.5900 C.2       1 K8V         0.0619
     14 N09         7.2010  -17.9190  -33.8200 N.am      1 K8V        -0.2315
     15 O01         7.3900  -22.8820  -38.2190 O.co2     1 K8V        -0.5690
     16 O03         8.6110  -21.0770  -38.1670 O.co2     1 K8V        -0.5690
     17 O08         9.2650  -18.4420  -34.6640 O.2       1 K8V        -0.3843
     18 O15         7.7630  -11.4390  -33.6550 O.co2     1 K8V        -0.5641
     19 O16         6.0300  -11.6890  -34.9450 O.co2     1 K8V        -0.5641
     20 O19         9.6310  -12.7940  -35.5630 O.co2     1 K8V        -0.5601
     21 O20        10.6010  -13.7540  -33.8670 O.co2     1 K8V        -0.5601
     22 H1          9.3165  -16.2449  -34.3266 H         1 K8V         0.0545
     23 H2          7.0528  -22.5632  -35.7059 H         1 K8V         0.0432
     24 H3          6.5887  -20.8829  -36.1393 H         1 K8V         0.0432
     25 H4          9.1494  -20.3862  -35.8907 H         1 K8V         0.0307
     26 H5          9.1787  -21.9266  -34.9671 H         1 K8V         0.0307
     27 H6          8.6543  -20.6792  -33.1620 H         1 K8V         0.0509
     28 H7          7.0063  -20.5560  -33.8660 H         1 K8V         0.0509
     29 H8          5.1016  -16.3806  -33.6198 H         1 K8V         0.0531
     30 H9          4.9784  -13.9265  -33.8173 H         1 K8V         0.0618
     31 H10         6.3763  -18.3270  -33.4284 H         1 K8V         0.2271
@<TRIPOS>BOND
     1    1    4 ar 
     2    1   10 ar 
     3   14    1 1  
     4    3    2 ar 
     5    2   11 ar 
     6    2   12 1  
     7    4    3 ar 
     8    3   13 1  
     9    6    5 1  
    10    5   15 ar 
    11    5   16 ar 
    12    7    6 1  
    13    8    7 1  
    14    9    8 1  
    15    9   14 am 
    16    9   17 2  
    17   10   11 ar 
    18   12   18 ar 
    19   12   19 ar 
    20   13   20 ar 
    21   13   21 ar 
    22    4   22 1  
    23    6   23 1  
    24    6   24 1  
    25    7   25 1  
    26    7   26 1  
    27    8   27 1  
    28    8   28 1  
    29   10   29 1  
    30   11   30 1  
    31   14   31 1  
@<TRIPOS>SUBSTRUCTURE
     1 K8V         1

