### 
### Created by X-TOOL on Mon Aug  2 16:15:09 2021
### 

@<TRIPOS>MOLECULE
6n3f_ligand
   74    75     1     0     0
SMALL
GAST_HUCK


@<TRIPOS>ATOM
      1 N          17.2980   -7.8040  -14.9480 N.4       1 SER         0.2396
      2 CA         16.5810   -7.2580  -13.8060 C.3       1 SER         0.0885
      3 C          15.1340   -6.8570  -14.1290 C.2       1 SER         0.2290
      4 O          14.8560   -6.3120  -15.1690 O.2       1 SER        -0.3906
      5 CB         17.3200   -6.0430  -13.2890 C.3       1 SER         0.1041
      6 OG         16.7760   -5.6090  -12.0790 O.3       1 SER        -0.3870
      7 N          14.2200   -7.0680  -13.2190 N.am      1 SER        -0.2609
      8 CA         12.8590   -6.7060  -13.4910 C.3       1 SER         0.1312
      9 C          12.4180   -5.3650  -12.8950 C.2       1 SER         0.2040
     10 O          11.3210   -4.9390  -13.0930 O.2       1 SER        -0.3944
     11 CB         11.9960   -7.8130  -12.9200 C.3       1 SER        -0.0092
     12 CG         12.5530   -9.1870  -13.1450 C.3       1 SER        -0.0156
     13 CD         11.8090  -10.2010  -12.3620 C.3       1 SER         0.0627
     14 NE         11.3920  -11.3340  -13.1480 N.pl3     1 SER        -0.2723
     15 CZ         12.2110  -12.1530  -13.7570 C.cat     1 SER         0.2882
     16 NH1        13.5030  -11.9470  -13.6990 N.pl3     1 SER        -0.2849
     17 NH2        11.7250  -13.1650  -14.4320 N.pl3     1 SER        -0.2849
     18 N          13.3200   -4.6770  -12.2200 N.am      1 SER        -0.2627
     19 CA         12.9720   -3.4980  -11.4760 C.3       1 SER         0.1351
     20 C          12.5090   -2.3520  -12.3480 C.2       1 SER         0.2047
     21 O          13.1330   -2.0680  -13.3270 O.2       1 SER        -0.3943
     22 CB         14.1160   -3.0590  -10.5730 C.3       1 SER         0.0042
     23 CG         14.0910   -3.8470   -9.3740 C.2       1 SER        -0.0418
     24 CD1        14.9360   -4.8400   -9.0350 C.2       1 SER         0.0167
     25 CD2        13.0970   -3.8090   -8.3920 C.ar      1 SER        -0.0214
     26 NE1        14.5490   -5.3990   -7.8760 N.pl3     1 SER        -0.2890
     27 CE2        13.4130   -4.7800   -7.4550 C.ar      1 SER         0.0603
     28 CE3        11.9820   -3.0240   -8.1900 C.ar      1 SER        -0.0747
     29 CZ2        12.6590   -4.9830   -6.3450 C.ar      1 SER        -0.0443
     30 CZ3        11.2480   -3.2320   -7.1060 C.ar      1 SER        -0.0792
     31 CH2        11.5740   -4.2010   -6.1900 C.ar      1 SER        -0.0768
     32 N          11.4540   -1.6660  -11.9130 N.am      1 SER        -0.2678
     33 CA         10.7660   -0.5960  -12.6170 C.3       1 SER         0.1058
     34 C          10.4640   -0.7450  -14.1180 C.2       1 SER         0.0618
     35 O          10.4530    0.2140  -14.8590 O.co2     1 SER        -0.5665
     36 CB         11.3040    0.7800  -12.2790 C.3       1 SER         0.0351
     37 CG         10.2170    1.6680  -11.6770 C.2       1 SER         0.0387
     38 OD1         9.2040    1.1190  -11.1880 O.co2     1 SER        -0.5688
     39 OD2        10.3570    2.9090  -11.7200 O.co2     1 SER        -0.5688
     40 OXT        10.2270   -1.8260  -14.6110 O.co2     1 SER        -0.5665
     41 H1         18.2365   -8.0461  -14.6710 H         1 SER         0.2016
     42 H2         17.3318   -7.1159  -15.6838 H         1 SER         0.2016
     43 H3         16.8226   -8.6284  -15.2804 H         1 SER         0.2016
     44 H4         16.5571   -8.0254  -13.0183 H         1 SER         0.1122
     45 H5         17.2444   -5.2330  -14.0294 H         1 SER         0.0640
     46 H6         18.3779   -6.3025  -13.1361 H         1 SER         0.0640
     47 H7         17.2541   -4.8470  -11.7733 H         1 SER         0.2099
     48 H8         14.4672   -7.4781  -12.3411 H         1 SER         0.1884
     49 H9         12.7222   -6.6550  -14.5813 H         1 SER         0.0800
     50 H10        11.0039   -7.7587  -13.3920 H         1 SER         0.0313
     51 H11        11.8959   -7.6518  -11.8365 H         1 SER         0.0313
     52 H12        13.6092   -9.2008  -12.8382 H         1 SER         0.0301
     53 H13        12.4785   -9.4338  -14.2144 H         1 SER         0.0301
     54 H14        10.9146   -9.7246  -11.9342 H         1 SER         0.0689
     55 H15        12.4577  -10.5596  -11.5493 H         1 SER         0.0689
     56 H16        10.3813  -11.5113  -13.2366 H         1 SER         0.2642
     57 H17        14.1491  -12.5906  -14.1777 H         1 SER         0.2615
     58 H18        13.8730  -11.1414  -13.1746 H         1 SER         0.2615
     59 H19        10.7070  -13.3170  -14.4705 H         1 SER         0.2615
     60 H20        12.3609  -13.8087  -14.9242 H         1 SER         0.2615
     61 H21        14.2715   -4.9847  -12.2266 H         1 SER         0.1884
     62 H22        12.1263   -3.7688  -10.8268 H         1 SER         0.0815
     63 H23        13.9980   -1.9954  -10.3182 H         1 SER         0.0397
     64 H24        15.0742   -3.2075  -11.0924 H         1 SER         0.0397
     65 H25        15.8055   -5.1450   -9.6154 H         1 SER         0.0795
     66 H26        15.0314   -6.1672   -7.3882 H         1 SER         0.2216
     67 H27        11.7112   -2.2531   -8.9024 H         1 SER         0.0540
     68 H28        12.9189   -5.7414   -5.6153 H         1 SER         0.0541
     69 H29        10.3681   -2.6215   -6.9387 H         1 SER         0.0510
     70 H30        10.9422   -4.3401   -5.3202 H         1 SER         0.0530
     71 H31        11.0990   -1.9115  -11.0110 H         1 SER         0.1877
     72 H32         9.7645   -0.6126  -12.1624 H         1 SER         0.0745
     73 H33        11.6843    1.2516  -13.1971 H         1 SER         0.0471
     74 H34        12.1242    0.6759  -11.5535 H         1 SER         0.0471
@<TRIPOS>BOND
     1    1    2 1  
     2    2    3 1  
     3    2    5 1  
     4    3    4 2  
     5    3    7 am 
     6    5    6 1  
     7    7    8 1  
     8    8    9 1  
     9    8   11 1  
    10    9   10 2  
    11    9   18 am 
    12   11   12 1  
    13   12   13 1  
    14   13   14 1  
    15   14   15 ar 
    16   15   16 ar 
    17   15   17 ar 
    18   18   19 1  
    19   19   20 1  
    20   19   22 1  
    21   20   21 2  
    22   20   32 am 
    23   22   23 1  
    24   23   24 2  
    25   23   25 1  
    26   24   26 1  
    27   25   27 ar 
    28   25   28 ar 
    29   26   27 1  
    30   27   29 ar 
    31   28   30 ar 
    32   29   31 ar 
    33   30   31 ar 
    34   32   33 1  
    35   33   34 1  
    36   33   36 1  
    37   34   35 ar 
    38   34   40 ar 
    39   36   37 1  
    40   37   38 ar 
    41   37   39 ar 
    42    1   41 1  
    43    1   42 1  
    44    1   43 1  
    45    2   44 1  
    46    5   45 1  
    47    5   46 1  
    48    6   47 1  
    49    7   48 1  
    50    8   49 1  
    51   11   50 1  
    52   11   51 1  
    53   12   52 1  
    54   12   53 1  
    55   13   54 1  
    56   13   55 1  
    57   14   56 1  
    58   16   57 1  
    59   16   58 1  
    60   17   59 1  
    61   17   60 1  
    62   18   61 1  
    63   19   62 1  
    64   22   63 1  
    65   22   64 1  
    66   24   65 1  
    67   26   66 1  
    68   28   67 1  
    69   29   68 1  
    70   30   69 1  
    71   31   70 1  
    72   32   71 1  
    73   33   72 1  
    74   36   73 1  
    75   36   74 1  
@<TRIPOS>SUBSTRUCTURE
     1 SER         1

