### 
### Created by X-TOOL on Mon Aug  2 16:15:09 2021
### 

@<TRIPOS>MOLECULE
6n3k_ligand
   57    59     1     0     0
SMALL
GAST_HUCK


@<TRIPOS>ATOM
      1 C10        13.6090   81.1490  108.6710 C.ar      1 K9V        -0.0687
      2 C15         7.4930   89.4670  103.7100 C.3       1 K9V        -0.0278
      3 C17         5.2830   89.7150  102.4110 C.3       1 K9V         0.0612
      4 C20         4.4080   89.6710   99.0420 C.ar      1 K9V         0.0497
      5 C21         5.6920   89.6690   98.4980 C.ar      1 K9V         0.1337
      6 C24         4.9100   88.3900   96.6200 C.ar      1 K9V        -0.0723
      7 C26         3.3740   89.0270   98.3680 C.ar      1 K9V         0.1337
      8 C28         5.4150   88.1920  102.3450 C.3       1 K9V        -0.0243
      9 O01         6.7000   86.5970  106.8340 O.2       1 K9V        -0.4008
     10 C02         7.7460   86.7690  106.3050 C.2       1 K9V         0.2576
     11 N03         8.9320   86.1080  106.8390 N.am      1 K9V        -0.2730
     12 C04         8.7650   85.2560  108.0070 C.3       1 K9V         0.0330
     13 C05        10.0860   84.5740  108.3520 C.3       1 K9V        -0.0232
     14 C06        10.6270   83.7990  107.1590 C.3       1 K9V        -0.0174
     15 C07        11.6920   82.8620  107.6720 C.ar      1 K9V        -0.0430
     16 C08        12.0890   82.9790  108.9970 C.ar      1 K9V        -0.0603
     17 C09        13.0520   82.1160  109.4990 C.ar      1 K9V        -0.0686
     18 C11        13.2080   81.0370  107.3420 C.ar      1 K9V        -0.0686
     19 C12        12.2400   81.8940  106.8360 C.ar      1 K9V        -0.0603
     20 N13         7.9070   87.6330  105.1310 N.am      1 K9V        -0.2701
     21 C14         6.8230   88.3680  104.5070 C.3       1 K9V         0.0425
     22 C16         6.4360   90.4060  103.1360 C.3       1 K9V        -0.0243
     23 O18         5.3420   90.2210  101.1000 O.3       1 K9V        -0.3654
     24 C19         4.1460   90.3650  100.3850 C.3       1 K9V         0.0835
     25 F22         6.7120   90.2900   99.1570 F         1 K9V        -0.1902
     26 C23         5.9450   89.0340   97.2880 C.ar      1 K9V        -0.0388
     27 C25         3.6260   88.3850   97.1590 C.ar      1 K9V        -0.0388
     28 F27         2.1100   89.0200   98.8940 F         1 K9V        -0.1902
     29 C29         5.9640   87.4960  103.5970 C.3       1 K9V        -0.0278
     30 H1         14.3626   80.4756  109.0631 H         1 K9V         0.0559
     31 H2          8.0711   89.0212  102.8872 H         1 K9V         0.0288
     32 H3          8.1682   90.0350  104.3668 H         1 K9V         0.0288
     33 H4          4.3285   89.9741  102.8925 H         1 K9V         0.0598
     34 H5          5.1028   87.8906   95.6774 H         1 K9V         0.0539
     35 H6          6.0863   87.9510  101.5076 H         1 K9V         0.0291
     36 H7          4.4156   87.7786  102.1444 H         1 K9V         0.0291
     37 H8          9.8294   86.2361  106.4167 H         1 K9V         0.1845
     38 H9          8.0052   84.4900  107.7929 H         1 K9V         0.0518
     39 H10         8.4381   85.8684  108.8603 H         1 K9V         0.0518
     40 H11         9.9243   83.8790  109.1891 H         1 K9V         0.0306
     41 H12        10.8196   85.3388  108.6468 H         1 K9V         0.0306
     42 H13        11.0604   84.4941  106.4248 H         1 K9V         0.0427
     43 H14         9.8172   83.2241  106.6861 H         1 K9V         0.0427
     44 H15        11.6502   83.7384  109.6340 H         1 K9V         0.0557
     45 H16        13.3686   82.1956  110.5327 H         1 K9V         0.0599
     46 H17        13.6512   80.2815  106.7033 H         1 K9V         0.0599
     47 H18        11.9159   81.8103  105.8050 H         1 K9V         0.0557
     48 H19         8.8214   87.7210  104.7358 H         1 K9V         0.1848
     49 H20         6.1784   88.8047  105.2840 H         1 K9V         0.0553
     50 H21         6.9310   91.0818  102.4231 H         1 K9V         0.0291
     51 H22         6.0145   90.9929  103.9654 H         1 K9V         0.0291
     52 H23         3.3152   89.8787  100.9172 H         1 K9V         0.0708
     53 H24         3.9112   91.4287  100.2325 H         1 K9V         0.0708
     54 H25         6.9441   89.0409   96.8674 H         1 K9V         0.0551
     55 H26         2.8216   87.8804   96.6362 H         1 K9V         0.0551
     56 H27         6.5751   86.6419  103.2700 H         1 K9V         0.0288
     57 H28         5.1089   87.1313  104.1850 H         1 K9V         0.0288
@<TRIPOS>BOND
     1   17    1 ar 
     2   18    1 ar 
     3    2   21 1  
     4   22    2 1  
     5    3    8 1  
     6    3   22 1  
     7   23    3 1  
     8    4    5 ar 
     9    4    7 ar 
    10   24    4 1  
    11    5   25 1  
    12    5   26 ar 
    13   26    6 ar 
    14   27    6 ar 
    15    7   27 ar 
    16    7   28 1  
    17    8   29 1  
    18   10    9 2  
    19   10   11 am 
    20   20   10 am 
    21   11   12 1  
    22   12   13 1  
    23   13   14 1  
    24   14   15 1  
    25   15   16 ar 
    26   15   19 ar 
    27   16   17 ar 
    28   19   18 ar 
    29   21   20 1  
    30   29   21 1  
    31   23   24 1  
    32    1   30 1  
    33    2   31 1  
    34    2   32 1  
    35    3   33 1  
    36    6   34 1  
    37    8   35 1  
    38    8   36 1  
    39   11   37 1  
    40   12   38 1  
    41   12   39 1  
    42   13   40 1  
    43   13   41 1  
    44   14   42 1  
    45   14   43 1  
    46   16   44 1  
    47   17   45 1  
    48   18   46 1  
    49   19   47 1  
    50   20   48 1  
    51   21   49 1  
    52   22   50 1  
    53   22   51 1  
    54   24   52 1  
    55   24   53 1  
    56   26   54 1  
    57   27   55 1  
    58   29   56 1  
    59   29   57 1  
@<TRIPOS>SUBSTRUCTURE
     1 K9V         1

