### 
### Created by X-TOOL on Mon Aug  2 16:15:09 2021
### 

@<TRIPOS>MOLECULE
6n3l_ligand
   53    57     1     0     0
SMALL
GAST_HUCK


@<TRIPOS>ATOM
      1 C5         15.5970  135.9010   -2.3470 C.ar      1 KAV         0.1053
      2 C6         16.7070  135.2310   -1.8170 C.ar      1 KAV        -0.0038
      3 C7         17.9710  135.2750   -2.3670 C.ar      1 KAV        -0.0405
      4 C8         18.0990  136.0370   -3.5050 C.ar      1 KAV         0.0278
      5 C10        15.7800  136.6780   -3.5140 C.ar      1 KAV        -0.0038
      6 C17        14.5290  135.7630    3.1400 C.ar      1 KAV        -0.0342
      7 C20        14.9100  134.7940    6.1530 C.ar      1 KAV         0.1864
      8 C21        15.0850  135.1090    7.4840 C.ar      1 KAV         0.0400
      9 C22        16.0150  134.3190    8.1830 C.ar      1 KAV         0.1451
     10 C24        16.0760  135.5840   10.3420 C.2       1 KAV         0.2139
     11 C26        16.5280  135.6020   11.7760 C.3       1 KAV         0.0563
     12 C28        15.9920  136.7080   12.6740 C.3       1 KAV        -0.0302
     13 C1         11.6870  134.5100   -0.6360 C.3       1 KAV         0.0458
     14 N2         12.8340  135.0500    0.1060 N.pl3     1 KAV        -0.2185
     15 C3         13.9880  135.6080   -0.3670 C.2       1 KAV         0.2456
     16 N4         14.3000  135.7900   -1.7340 N.pl3     1 KAV        -0.2058
     17 C9         17.0360  136.7390   -4.0930 C.ar      1 KAV        -0.0405
     18 C11        19.4400  136.1150   -4.1350 C.3       1 KAV         0.3572
     19 F12        19.6170  135.1870   -5.1050 F         1 KAV        -0.2378
     20 F13        19.4150  137.2940   -4.7820 F         1 KAV        -0.2378
     21 F14        20.4920  135.9280   -3.2600 F         1 KAV        -0.2378
     22 N15        14.7440  135.9370    0.6400 N.2       1 KAV        -0.3048
     23 C16        14.1480  135.6330    1.7910 C.ar      1 KAV         0.0099
     24 C18        13.6610  135.3150    4.1420 C.ar      1 KAV         0.1044
     25 O19        13.9920  135.4800    5.4800 O.3       1 KAV        -0.2446
     26 N23        16.3160  134.5140    9.5600 N.am      1 KAV        -0.2134
     27 O25        15.4850  136.5400    9.9200 O.2       1 KAV        -0.3809
     28 C27        17.4320  136.7720   12.1530 C.3       1 KAV        -0.0302
     29 N29        16.7240  133.3560    7.5180 N.ar      1 KAV        -0.2656
     30 C30        16.5430  133.1110    6.2340 C.ar      1 KAV         0.0581
     31 N31        15.6340  133.8290    5.5590 N.ar      1 KAV        -0.2585
     32 C32        12.4050  134.7480    3.8040 C.ar      1 KAV        -0.0411
     33 C33        12.0120  134.6200    2.4840 C.ar      1 KAV        -0.0478
     34 C34        12.8960  135.0650    1.4790 C.ar      1 KAV         0.0720
     35 H1         16.5637  134.6413   -0.9188 H         1 KAV         0.0647
     36 H2         18.8091  134.7436   -1.9308 H         1 KAV         0.0816
     37 H3         14.9477  137.2189   -3.9496 H         1 KAV         0.0647
     38 H4         15.4841  136.2052    3.3996 H         1 KAV         0.0447
     39 H5         14.5399  135.9151    7.9616 H         1 KAV         0.0573
     40 H6         16.6959  134.5853   12.1610 H         1 KAV         0.0545
     41 H7         15.8005  136.5080   13.7386 H         1 KAV         0.0294
     42 H8         15.2367  137.4101   12.2911 H         1 KAV         0.0294
     43 H9         11.8697  134.6088   -1.7162 H         1 KAV         0.0559
     44 H10        10.7791  135.0688   -0.3651 H         1 KAV         0.0559
     45 H11        11.5533  133.4480   -0.3824 H         1 KAV         0.0559
     46 H12        13.4949  135.8510   -2.3736 H         1 KAV         0.2358
     47 H13        17.1966  137.3234   -4.9918 H         1 KAV         0.0816
     48 H14        16.7709  133.7466   10.0119 H         1 KAV         0.2350
     49 H15        17.7109  137.5190   11.3953 H         1 KAV         0.0294
     50 H16        18.2747  136.6170   12.8428 H         1 KAV         0.0294
     51 H17        17.1198  132.3418    5.7333 H         1 KAV         0.1043
     52 H18        11.7429  134.4097    4.5928 H         1 KAV         0.0481
     53 H19        11.0505  134.1893    2.2288 H         1 KAV         0.0520
@<TRIPOS>BOND
     1    1    2 ar 
     2    1    5 ar 
     3   16    1 1  
     4    2    3 ar 
     5    3    4 ar 
     6   17    4 ar 
     7    4   18 1  
     8    5   17 ar 
     9    6   23 ar 
    10   24    6 ar 
    11    7    8 ar 
    12   25    7 1  
    13    7   31 ar 
    14    8    9 ar 
    15    9   26 1  
    16    9   29 ar 
    17   10   11 1  
    18   26   10 am 
    19   10   27 2  
    20   11   12 1  
    21   11   28 1  
    22   28   12 1  
    23   14   13 1  
    24   14   15 1  
    25   34   14 1  
    26   15   16 1  
    27   22   15 2  
    28   18   19 1  
    29   18   20 1  
    30   18   21 1  
    31   23   22 1  
    32   23   34 ar 
    33   24   25 1  
    34   24   32 ar 
    35   29   30 ar 
    36   30   31 ar 
    37   32   33 ar 
    38   33   34 ar 
    39    2   35 1  
    40    3   36 1  
    41    5   37 1  
    42    6   38 1  
    43    8   39 1  
    44   11   40 1  
    45   12   41 1  
    46   12   42 1  
    47   13   43 1  
    48   13   44 1  
    49   13   45 1  
    50   16   46 1  
    51   17   47 1  
    52   26   48 1  
    53   28   49 1  
    54   28   50 1  
    55   30   51 1  
    56   32   52 1  
    57   33   53 1  
@<TRIPOS>SUBSTRUCTURE
     1 KAV         1

