### 
### Created by X-TOOL on Mon Aug  2 16:15:09 2021
### 

@<TRIPOS>MOLECULE
6n3n_ligand
   43    45     1     0     0
SMALL
GAST_HUCK


@<TRIPOS>ATOM
      1 N1         -4.3600  -18.8720   22.9050 N.pl3     1 KA4        -0.3024
      2 N3         -2.9410  -18.9500   21.0380 N.ar      1 KA4        -0.2516
      3 C4         -2.5440  -18.4680   19.8720 C.ar      1 KA4         0.0298
      4 C5         -3.2180  -17.3610   19.3330 C.ar      1 KA4         0.0619
      5 C6         -4.2810  -16.7990   20.0590 C.ar      1 KA4         0.0298
      6 C8         -2.8730  -16.7720   18.0730 C.1       1 KA4        -0.0616
      7 C10        -2.2830  -15.6700   15.8030 C.ar      1 KA4         0.0769
      8 C13        -1.0940  -14.0800   14.4560 C.ar      1 KA4        -0.0460
      9 C15        -2.6160  -15.6370   13.4290 C.ar      1 KA4         0.0938
     10 C20        -4.1880  -14.4220   10.5050 C.ar      1 KA4         0.1217
     11 C21        -3.5330  -13.2890   10.0960 C.ar      1 KA4        -0.0271
     12 C22        -4.2450  -12.1350    9.9070 C.ar      1 KA4         0.0359
     13 C24        -5.6060  -12.0840   10.0970 C.ar      1 KA4        -0.0436
     14 C26        -7.7770  -13.1320   10.7060 C.3       1 KA4         0.0788
     15 C28        -5.5610  -14.3940   10.7190 C.ar      1 KA4         0.0705
     16 C2         -3.9580  -18.3810   21.6840 C.ar      1 KA4         0.1912
     17 N7         -4.6210  -17.3330   21.2100 N.ar      1 KA4        -0.2516
     18 C9         -2.6070  -16.2680   17.0460 C.1       1 KA4        -0.0682
     19 C11        -1.3690  -14.6150   15.7070 C.ar      1 KA4         0.1288
     20 F12        -0.7760  -14.1110   16.8160 F         1 KA4        -0.1962
     21 C14        -1.7130  -14.5880   13.3190 C.ar      1 KA4        -0.0478
     22 N16        -3.3030  -16.2290   12.3690 N.am      1 KA4        -0.1889
     23 S17        -3.2060  -15.8590   10.7590 S.o2      1 KA4         0.0870
     24 O18        -1.8070  -15.5810   10.4880 O.2       1 KA4        -0.1450
     25 O19        -3.9370  -16.9180   10.1580 O.2       1 KA4        -0.1450
     26 CL1        -3.4060  -10.7230    9.4140 Cl        1 KA4        -0.0722
     27 C25        -6.2770  -13.2160   10.5020 C.ar      1 KA4        -0.0013
     28 O27        -8.2730  -11.8140   10.4270 O.3       1 KA4        -0.3824
     29 CL2        -6.4190  -15.8130   11.2450 Cl        1 KA4        -0.0748
     30 C30        -2.8840  -16.1700   14.6600 C.ar      1 KA4         0.1617
     31 F31        -3.7470  -17.1880   14.7270 F         1 KA4        -0.1947
     32 H1         -3.8786  -19.6839   23.3174 H         1 KA4         0.1831
     33 H2         -5.1423  -18.4277   23.4065 H         1 KA4         0.1831
     34 H3         -1.7131  -18.9197   19.3422 H         1 KA4         0.0910
     35 H4         -4.8135  -15.9365   19.6748 H         1 KA4         0.0910
     36 H5         -0.3912  -13.2598   14.3646 H         1 KA4         0.0530
     37 H6         -2.4629  -13.3068    9.9241 H         1 KA4         0.0585
     38 H7         -6.1465  -11.1595    9.9292 H         1 KA4         0.0562
     39 H8         -8.0107  -13.3882   11.7499 H         1 KA4         0.0723
     40 H9         -8.2699  -13.8492   10.0332 H         1 KA4         0.0723
     41 H10        -1.4904  -14.1647   12.3462 H         1 KA4         0.0464
     42 H11        -3.9315  -16.9679   12.6120 H         1 KA4         0.2133
     43 H12        -8.0786  -11.5881    9.5250 H         1 KA4         0.2126
@<TRIPOS>BOND
     1   16    1 1  
     2    3    2 ar 
     3    2   16 ar 
     4    4    3 ar 
     5    4    5 ar 
     6    6    4 1  
     7    5   17 ar 
     8   18    6 3  
     9    7   18 1  
    10    7   19 ar 
    11   30    7 ar 
    12    8   19 ar 
    13   21    8 ar 
    14    9   21 ar 
    15   22    9 1  
    16    9   30 ar 
    17   10   11 ar 
    18   10   15 ar 
    19   23   10 1  
    20   11   12 ar 
    21   12   13 ar 
    22   12   26 1  
    23   27   13 ar 
    24   27   14 1  
    25   14   28 1  
    26   15   27 ar 
    27   15   29 1  
    28   17   16 ar 
    29   19   20 1  
    30   22   23 am 
    31   23   24 2  
    32   23   25 2  
    33   30   31 1  
    34    1   32 1  
    35    1   33 1  
    36    3   34 1  
    37    5   35 1  
    38    8   36 1  
    39   11   37 1  
    40   13   38 1  
    41   14   39 1  
    42   14   40 1  
    43   21   41 1  
    44   22   42 1  
    45   28   43 1  
@<TRIPOS>SUBSTRUCTURE
     1 KA4         1

