### 
### Created by X-TOOL on Mon Aug  2 16:15:09 2021
### 

@<TRIPOS>MOLECULE
6n3o_ligand
   42    44     1     0     0
SMALL
GAST_HUCK


@<TRIPOS>ATOM
      1 C4         -0.6920  -14.1800   14.7510 C.ar      1 KA7        -0.0460
      2 C5         -2.9480  -13.2200   10.2400 C.ar      1 KA7        -0.0096
      3 C6         -2.2360  -18.3920   20.1980 C.ar      1 KA7         0.0298
      4 C7         -3.9750  -16.8590   20.4660 C.ar      1 KA7         0.0298
      5 C8         -5.0240  -12.0740   10.1680 C.ar      1 KA7         0.0138
      6 C10        -1.9440  -15.7340   16.1090 C.ar      1 KA7         0.0769
      7 C13        -2.5580  -16.1760   14.9650 C.ar      1 KA7         0.1617
      8 C15        -3.6580  -12.0740    9.9520 C.ar      1 KA7         0.0580
      9 C17        -3.5230  -18.3960   22.0800 C.ar      1 KA7         0.1912
     10 C1         -2.6510  -16.7770   18.3940 C.1       1 KA7        -0.0616
     11 C2         -2.3050  -16.3060   17.3460 C.1       1 KA7        -0.0682
     12 C3         -1.3230  -14.6260   13.6070 C.ar      1 KA7        -0.0479
     13 C9         -2.9550  -17.3390   19.6780 C.ar      1 KA7         0.0619
     14 C11        -2.2590  -15.6310   13.7420 C.ar      1 KA7         0.0938
     15 C12        -1.0090  -14.7340   15.9880 C.ar      1 KA7         0.1288
     16 C14        -3.6680  -14.3020   10.7250 C.ar      1 KA7         0.1706
     17 C16        -5.0380  -14.2170   10.8930 C.ar      1 KA7         0.1924
     18 C18        -7.0770  -15.0800   11.5940 C.3       1 KA7         0.0632
     19 N19        -5.7430  -13.1080   10.6320 N.ar      1 KA7        -0.2715
     20 N20        -2.5120  -18.9340   21.3890 N.ar      1 KA7        -0.2516
     21 N21        -4.2780  -17.3670   21.6640 N.ar      1 KA7        -0.2516
     22 N22        -3.8220  -18.9350   23.3250 N.pl3     1 KA7        -0.3024
     23 N23        -3.0290  -16.2120   12.7000 N.am      1 KA7        -0.1893
     24 O24        -1.3890  -15.6000   10.7130 O.2       1 KA7        -0.1455
     25 O25        -3.5320  -16.8380   10.3870 O.2       1 KA7        -0.1455
     26 O26        -5.6850  -15.3450   11.3650 O.3       1 KA7        -0.3002
     27 F27        -0.4100  -14.2970   17.0910 F         1 KA7        -0.1962
     28 F28        -3.4720  -17.1490   15.0060 F         1 KA7        -0.1947
     29 S29        -2.7900  -15.8120   11.0750 S.o2      1 KA7         0.0923
     30 CL         -2.8560  -10.6520    9.3560 Cl        1 KA7        -0.0711
     31 H1          0.0531  -13.3954   14.6857 H         1 KA7         0.0530
     32 H2         -1.8752  -13.2733   10.0940 H         1 KA7         0.0732
     33 H3         -1.4140  -18.7975   19.6192 H         1 KA7         0.0910
     34 H4         -4.5627  -16.0265   20.0964 H         1 KA7         0.0910
     35 H5         -5.5606  -11.1594    9.9430 H         1 KA7         0.0795
     36 H6         -1.0914  -14.2017   12.6368 H         1 KA7         0.0464
     37 H7         -7.5670  -15.9911   11.9680 H         1 KA7         0.0583
     38 H8         -7.5511  -14.7694   10.6513 H         1 KA7         0.0583
     39 H9         -7.1797  -14.2765   12.3382 H         1 KA7         0.0583
     40 H10        -3.2719  -19.7259   23.6894 H         1 KA7         0.1831
     41 H11        -4.5938  -18.5437   23.8837 H         1 KA7         0.1831
     42 H12        -3.7356  -16.8795   12.9351 H         1 KA7         0.2132
@<TRIPOS>BOND
     1   12    1 ar 
     2    1   15 ar 
     3    2    8 ar 
     4   16    2 ar 
     5   13    3 ar 
     6    3   20 ar 
     7   13    4 ar 
     8    4   21 ar 
     9    8    5 ar 
    10   19    5 ar 
    11    7    6 ar 
    12    6   11 1  
    13    6   15 ar 
    14   14    7 ar 
    15    7   28 1  
    16    8   30 1  
    17   20    9 ar 
    18   21    9 ar 
    19    9   22 1  
    20   11   10 3  
    21   10   13 1  
    22   14   12 ar 
    23   23   14 1  
    24   15   27 1  
    25   16   17 ar 
    26   29   16 1  
    27   17   19 ar 
    28   17   26 1  
    29   26   18 1  
    30   23   29 am 
    31   29   24 2  
    32   29   25 2  
    33    1   31 1  
    34    2   32 1  
    35    3   33 1  
    36    4   34 1  
    37    5   35 1  
    38   12   36 1  
    39   18   37 1  
    40   18   38 1  
    41   18   39 1  
    42   22   40 1  
    43   22   41 1  
    44   23   42 1  
@<TRIPOS>SUBSTRUCTURE
     1 KA7         1

