### 
### Created by X-TOOL on Mon Aug  2 16:15:09 2021
### 

@<TRIPOS>MOLECULE
6n3v_ligand
   44    46     1     0     0
SMALL
GAST_HUCK


@<TRIPOS>ATOM
      1 N1        -27.3950    4.7310  -33.9960 N.am      1 KB7        -0.2478
      2 C2        -26.6720    5.0130  -32.8960 C.cat     1 KB7         0.2041
      3 O2        -32.1900    3.4140  -24.2030 O.2       1 KB7        -0.3775
      4 N3        -27.2320    5.2220  -31.6750 N.pl3     1 KB7        -0.1901
      5 C4        -28.5740    5.1190  -31.5330 C.2       1 KB7         0.3268
      6 N4        -31.9240    5.3780  -23.0930 N.am      1 KB7        -0.2628
      7 C5        -29.4170    4.8020  -32.6900 C.2       1 KB7         0.2558
      8 C6        -28.7300    4.6060  -33.9770 C.2       1 KB7         0.2628
      9 C1'       -29.0150    5.5920  -29.1610 C.3       1 KB7         0.2218
     10 C2'       -29.7980    6.7830  -28.6230 C.3       1 KB7         0.1407
     11 O2'       -29.2730    8.0200  -29.0670 O.3       1 KB7        -0.3835
     12 C3'       -29.7580    6.5470  -27.1020 C.3       1 KB7         0.1150
     13 O3'       -28.7410    7.3370  -26.4770 O.3       1 KB7        -0.3864
     14 C4'       -29.4230    5.0550  -26.9730 C.3       1 KB7         0.1182
     15 O4'       -29.3510    4.5360  -28.3140 O.3       1 KB7        -0.3347
     16 C5'       -30.4210    4.2670  -26.1860 C.3       1 KB7         0.1060
     17 O6        -29.3880    4.3460  -35.0150 O.2       1 KB7        -0.3594
     18 N2        -25.3310    5.1130  -33.0200 N.pl3     1 KB7        -0.3327
     19 N7        -30.6930    4.7660  -32.2600 N.2       1 KB7        -0.1929
     20 C8        -30.6770    5.0400  -30.9330 C.2       1 KB7         0.1855
     21 N9        -29.4130    5.2410  -30.5140 N.pl3     1 KB7        -0.0954
     22 O5'       -30.5680    4.8710  -24.9120 O.3       1 KB7        -0.2612
     23 C1        -31.6360    4.4870  -24.0310 C.2       1 KB7         0.3195
     24 C7        -31.3570    6.7200  -23.1840 C.3       1 KB7         0.0300
     25 C9        -32.2790    7.6880  -23.8970 C.3       1 KB7        -0.0449
     26 H1        -26.9156    4.6094  -34.8652 H         1 KB7         0.1819
     27 H2        -26.6403    5.4566  -30.8652 H         1 KB7         0.2519
     28 H3        -32.5235    5.1334  -22.3309 H         1 KB7         0.1867
     29 H4        -27.9347    5.7972  -29.1329 H         1 KB7         0.1021
     30 H5        -30.8411    6.7297  -28.9682 H         1 KB7         0.0677
     31 H6        -28.3730    8.1040  -28.7746 H         1 KB7         0.2101
     32 H7        -30.7327    6.7742  -26.6456 H         1 KB7         0.0648
     33 H8        -28.9147    8.2575  -26.6352 H         1 KB7         0.2100
     34 H9        -28.4434    4.9539  -26.4829 H         1 KB7         0.0650
     35 H10       -30.0665    3.2325  -26.0673 H         1 KB7         0.0638
     36 H11       -31.3884    4.2653  -26.7095 H         1 KB7         0.0638
     37 H12       -24.8856    4.9586  -33.9358 H         1 KB7         0.1774
     38 H13       -24.7536    5.3436  -32.1988 H         1 KB7         0.1774
     39 H14       -31.5594    5.0904  -30.2968 H         1 KB7         0.1823
     40 H15       -30.4068    6.6657  -23.7355 H         1 KB7         0.0516
     41 H16       -31.1698    7.0944  -22.1668 H         1 KB7         0.0516
     42 H17       -31.8070    8.6807  -23.9387 H         1 KB7         0.0249
     43 H18       -33.2312    7.7575  -23.3506 H         1 KB7         0.0249
     44 H19       -32.4682    7.3287  -24.9193 H         1 KB7         0.0249
@<TRIPOS>BOND
     1    2    1 ar 
     2    8    1 am 
     3    4    2 ar 
     4    2   18 ar 
     5   23    3 2  
     6    5    4 1  
     7    5    7 2  
     8   21    5 1  
     9   23    6 am 
    10    6   24 1  
    11    7    8 1  
    12   19    7 1  
    13    8   17 2  
    14    9   10 1  
    15   15    9 1  
    16    9   21 1  
    17   10   11 1  
    18   12   10 1  
    19   12   13 1  
    20   14   12 1  
    21   14   15 1  
    22   16   14 1  
    23   22   16 1  
    24   20   19 2  
    25   21   20 1  
    26   22   23 1  
    27   24   25 1  
    28    1   26 1  
    29    4   27 1  
    30    6   28 1  
    31    9   29 1  
    32   10   30 1  
    33   11   31 1  
    34   12   32 1  
    35   13   33 1  
    36   14   34 1  
    37   16   35 1  
    38   16   36 1  
    39   18   37 1  
    40   18   38 1  
    41   20   39 1  
    42   24   40 1  
    43   24   41 1  
    44   25   42 1  
    45   25   43 1  
    46   25   44 1  
@<TRIPOS>SUBSTRUCTURE
     1 KB7         1

