### 
### Created by X-TOOL on Mon Aug  2 16:15:09 2021
### 

@<TRIPOS>MOLECULE
6n3w_ligand
   54    57     1     0     0
SMALL
GAST_HUCK


@<TRIPOS>ATOM
      1 C1        -31.9050    4.7060  -24.1190 C.2       1 KBJ         0.3197
      2 C2        -26.7640    5.0210  -32.8540 C.cat     1 KBJ         0.2041
      3 C3        -32.8800    8.2640  -24.7750 C.ar      1 KBJ        -0.0411
      4 C4        -28.6840    5.1780  -31.5140 C.2       1 KBJ         0.3268
      5 C5        -29.5160    4.8840  -32.6850 C.2       1 KBJ         0.2558
      6 C6        -28.8200    4.6840  -33.9650 C.2       1 KBJ         0.2628
      7 C8        -30.7890    5.1490  -30.9420 C.2       1 KBJ         0.1855
      8 C10       -32.0080    8.9310  -25.6350 C.ar      1 KBJ        -0.0603
      9 C11       -32.3340    9.1050  -26.9810 C.ar      1 KBJ        -0.0686
     10 C12       -33.5400    8.6150  -27.4720 C.ar      1 KBJ        -0.0687
     11 O6        -29.4770    4.4330  -35.0070 O.2       1 KBJ        -0.3594
     12 N1        -27.4820    4.7790  -33.9630 N.am      1 KBJ        -0.2478
     13 N2        -25.4180    5.1030  -32.9560 N.pl3     1 KBJ        -0.3327
     14 N3        -27.3390    5.2350  -31.6440 N.pl3     1 KBJ        -0.1901
     15 N7        -30.7960    4.8830  -32.2750 N.2       1 KBJ        -0.1929
     16 N9        -29.5220    5.3100  -30.5000 N.pl3     1 KBJ        -0.0954
     17 C1'       -29.1070    5.6590  -29.1460 C.3       1 KBJ         0.2218
     18 O4'       -29.4280    4.6010  -28.2830 O.3       1 KBJ        -0.3347
     19 C2'       -29.8690    6.8610  -28.5960 C.3       1 KBJ         0.1407
     20 O2'       -29.3390    8.0920  -29.0530 O.3       1 KBJ        -0.3835
     21 C3'       -29.7910    6.6360  -27.0800 C.3       1 KBJ         0.1150
     22 O3'       -28.7150    7.3780  -26.5080 O.3       1 KBJ        -0.3864
     23 C4'       -29.5300    5.1280  -26.9430 C.3       1 KBJ         0.1182
     24 C5'       -30.5990    4.3970  -26.1960 C.3       1 KBJ         0.1060
     25 O5'       -30.7340    4.9670  -24.9040 O.3       1 KBJ        -0.2612
     26 O2        -32.5350    3.6850  -24.3320 O.2       1 KBJ        -0.3775
     27 N4        -32.1940    5.6150  -23.1900 N.am      1 KBJ        -0.2606
     28 C7        -31.5340    6.9140  -23.1840 C.3       1 KBJ         0.0423
     29 C9        -32.5190    8.0770  -23.3190 C.3       1 KBJ         0.0011
     30 C13       -34.4160    7.9580  -26.6100 C.ar      1 KBJ        -0.0686
     31 C14       -34.0890    7.7850  -25.2650 C.ar      1 KBJ        -0.0603
     32 H1        -31.6787    5.2221  -30.3183 H         1 KBJ         0.1823
     33 H2        -31.0692    9.3175  -25.2550 H         1 KBJ         0.0557
     34 H3        -31.6483    9.6213  -27.6430 H         1 KBJ         0.0599
     35 H4        -33.7964    8.7433  -28.5174 H         1 KBJ         0.0559
     36 H5        -26.9955    4.6641  -34.8291 H         1 KBJ         0.1819
     37 H6        -24.8483    5.2879  -32.1180 H         1 KBJ         0.1774
     38 H7        -24.9625    4.9806  -33.8717 H         1 KBJ         0.1774
     39 H8        -26.7509    5.4410  -30.8239 H         1 KBJ         0.2519
     40 H9        -28.0253    5.8587  -29.1358 H         1 KBJ         0.1021
     41 H10       -30.9203    6.8166  -28.9165 H         1 KBJ         0.0677
     42 H11       -28.4330    8.1673  -28.7772 H         1 KBJ         0.2101
     43 H12       -30.7355    6.9191  -26.5924 H         1 KBJ         0.0648
     44 H13       -27.8959    7.0995  -26.9005 H         1 KBJ         0.2100
     45 H14       -28.5772    4.9797  -26.4136 H         1 KBJ         0.0650
     46 H15       -30.3243    3.3359  -26.1037 H         1 KBJ         0.0638
     47 H16       -31.5522    4.4832  -26.7382 H         1 KBJ         0.0638
     48 H17       -32.8730    5.4034  -22.4871 H         1 KBJ         0.1869
     49 H18       -30.8260    6.9530  -24.0250 H         1 KBJ         0.0542
     50 H19       -30.9853    7.0257  -22.2372 H         1 KBJ         0.0542
     51 H20       -33.4285    7.8563  -22.7410 H         1 KBJ         0.0445
     52 H21       -32.0547    8.9973  -22.9350 H         1 KBJ         0.0445
     53 H22       -35.3586    7.5785  -26.9875 H         1 KBJ         0.0599
     54 H23       -34.7788    7.2763  -24.6013 H         1 KBJ         0.0557
@<TRIPOS>BOND
     1    1   25 1  
     2    1   26 2  
     3   27    1 am 
     4    2   12 ar 
     5    2   13 ar 
     6   14    2 ar 
     7    3    8 ar 
     8   29    3 1  
     9    3   31 ar 
    10    4    5 2  
    11    4   14 1  
    12   16    4 1  
    13    5    6 1  
    14   15    5 1  
    15    6   11 2  
    16    6   12 am 
    17    7   15 2  
    18   16    7 1  
    19    8    9 ar 
    20    9   10 ar 
    21   10   30 ar 
    22   17   16 1  
    23   18   17 1  
    24   19   17 1  
    25   23   18 1  
    26   19   20 1  
    27   21   19 1  
    28   21   22 1  
    29   23   21 1  
    30   24   23 1  
    31   25   24 1  
    32   28   27 1  
    33   28   29 1  
    34   30   31 ar 
    35    7   32 1  
    36    8   33 1  
    37    9   34 1  
    38   10   35 1  
    39   12   36 1  
    40   13   37 1  
    41   13   38 1  
    42   14   39 1  
    43   17   40 1  
    44   19   41 1  
    45   20   42 1  
    46   21   43 1  
    47   22   44 1  
    48   23   45 1  
    49   24   46 1  
    50   24   47 1  
    51   27   48 1  
    52   28   49 1  
    53   28   50 1  
    54   29   51 1  
    55   29   52 1  
    56   30   53 1  
    57   31   54 1  
@<TRIPOS>SUBSTRUCTURE
     1 KBJ         1

