### 
### Created by X-TOOL on Mon Aug  2 16:15:10 2021
### 

@<TRIPOS>MOLECULE
6n3y_ligand
   58    62     1     0     0
SMALL
GAST_HUCK


@<TRIPOS>ATOM
      1 O6        -29.8800    4.4000  -35.0150 O.2       1 HHJ        -0.3594
      2 C6        -29.1990    4.6430  -33.9980 C.2       1 HHJ         0.2628
      3 N1        -27.8610    4.7230  -34.0480 N.am      1 HHJ        -0.2478
      4 C2        -27.0970    4.9810  -32.9790 C.cat     1 HHJ         0.2041
      5 N2        -25.7490    5.0440  -33.1390 N.pl3     1 HHJ        -0.3327
      6 N3        -27.6410    5.2050  -31.7590 N.pl3     1 HHJ        -0.1901
      7 C4        -28.9820    5.1530  -31.5700 C.2       1 HHJ         0.3268
      8 C5        -29.8590    4.8640  -32.7090 C.2       1 HHJ         0.2558
      9 N7        -31.1270    4.8710  -32.2560 N.2       1 HHJ        -0.1929
     10 C8        -31.0700    5.1490  -30.9260 C.2       1 HHJ         0.1855
     11 N9        -29.7940    5.3000  -30.5230 N.pl3     1 HHJ        -0.0954
     12 C1'       -29.3720    5.6660  -29.1750 C.3       1 HHJ         0.2218
     13 O4'       -29.7270    4.6360  -28.2940 O.3       1 HHJ        -0.3347
     14 C2'       -30.1040    6.9050  -28.6570 C.3       1 HHJ         0.1407
     15 O2'       -29.5240    8.1120  -29.1140 O.3       1 HHJ        -0.3835
     16 C3'       -30.0400    6.7120  -27.1380 C.3       1 HHJ         0.1150
     17 O3'       -28.9140    7.4130  -26.6090 O.3       1 HHJ        -0.3864
     18 C4'       -29.8670    5.1950  -26.9660 C.3       1 HHJ         0.1182
     19 C5'       -31.0110    4.5110  -26.2760 C.3       1 HHJ         0.1060
     20 O5'       -30.7100    4.3160  -24.9070 O.3       1 HHJ        -0.2612
     21 C1        -31.6440    4.7160  -23.8900 C.2       1 HHJ         0.3197
     22 O2        -32.7280    4.1620  -23.8400 O.2       1 HHJ        -0.3775
     23 N4        -31.2150    5.6850  -23.0930 N.am      1 HHJ        -0.2613
     24 C9        -32.0700    6.6900  -22.5110 C.3       1 HHJ         0.0370
     25 C10       -32.5140    7.8010  -23.4570 C.3       1 HHJ        -0.0162
     26 C12       -33.9850    8.0220  -23.1880 C.2       1 HHJ        -0.0444
     27 C16       -35.0250    7.8240  -24.0890 C.2       1 HHJ         0.0165
     28 C17       -34.5730    8.4320  -21.9920 C.ar      1 HHJ        -0.0215
     29 C18       -34.0010    8.7640  -20.7630 C.ar      1 HHJ        -0.0747
     30 C19       -34.8250    9.1560  -19.7100 C.ar      1 HHJ        -0.0792
     31 C20       -36.2080    9.2140  -19.9000 C.ar      1 HHJ        -0.0768
     32 C21       -36.7670    8.8830  -21.1340 C.ar      1 HHJ        -0.0443
     33 C22       -35.9460    8.4870  -22.1870 C.ar      1 HHJ         0.0603
     34 N23       -36.1970    8.1130  -23.4670 N.pl3     1 HHJ        -0.2891
     35 H1        -27.4105    4.5826  -34.9297 H         1 HHJ         0.1819
     36 H2        -25.1430    5.2412  -32.3298 H         1 HHJ         0.1774
     37 H3        -25.3333    4.8945  -34.0695 H         1 HHJ         0.1774
     38 H4        -27.0252    5.4185  -30.9615 H         1 HHJ         0.2519
     39 H5        -31.9386    5.2375  -30.2751 H         1 HHJ         0.1823
     40 H6        -28.2851    5.8346  -29.1639 H         1 HHJ         0.1021
     41 H7        -31.1525    6.8902  -28.9893 H         1 HHJ         0.0677
     42 H8        -28.6225    8.1607  -28.8182 H         1 HHJ         0.2101
     43 H9        -30.9622    7.0627  -26.6516 H         1 HHJ         0.0648
     44 H10       -28.1184    7.0752  -27.0031 H         1 HHJ         0.2100
     45 H11       -28.9521    5.0092  -26.3842 H         1 HHJ         0.0650
     46 H12       -31.1908    3.5353  -26.7510 H         1 HHJ         0.0638
     47 H13       -31.9134    5.1338  -26.3644 H         1 HHJ         0.0638
     48 H14       -30.2381    5.7211  -22.8825 H         1 HHJ         0.1868
     49 H15       -31.5271    7.1539  -21.6743 H         1 HHJ         0.0533
     50 H16       -32.9719    6.1886  -22.1299 H         1 HHJ         0.0533
     51 H17       -32.3593    7.4960  -24.5025 H         1 HHJ         0.0369
     52 H18       -31.9472    8.7220  -23.2560 H         1 HHJ         0.0369
     53 H19       -34.9178    7.4926  -25.1208 H         1 HHJ         0.0795
     54 H20       -32.9263    8.7174  -20.6290 H         1 HHJ         0.0540
     55 H21       -34.3955    9.4145  -18.7489 H         1 HHJ         0.0510
     56 H22       -36.8512    9.5185  -19.0823 H         1 HHJ         0.0530
     57 H23       -37.8408    8.9339  -21.2736 H         1 HHJ         0.0541
     58 H24       -37.1303    8.0571  -23.8991 H         1 HHJ         0.2216
@<TRIPOS>BOND
     1    1    2 2  
     2    2    3 am 
     3    2    8 1  
     4    3    4 ar 
     5    4    5 ar 
     6    4    6 ar 
     7    6    7 1  
     8    7    8 2  
     9    7   11 1  
    10    8    9 1  
    11    9   10 2  
    12   10   11 1  
    13   11   12 1  
    14   12   13 1  
    15   12   14 1  
    16   13   18 1  
    17   14   15 1  
    18   14   16 1  
    19   16   17 1  
    20   16   18 1  
    21   18   19 1  
    22   19   20 1  
    23   20   21 1  
    24   21   22 2  
    25   21   23 am 
    26   23   24 1  
    27   24   25 1  
    28   25   26 1  
    29   26   27 2  
    30   26   28 1  
    31   27   34 1  
    32   28   29 ar 
    33   28   33 ar 
    34   29   30 ar 
    35   30   31 ar 
    36   31   32 ar 
    37   32   33 ar 
    38   33   34 1  
    39    3   35 1  
    40    5   36 1  
    41    5   37 1  
    42    6   38 1  
    43   10   39 1  
    44   12   40 1  
    45   14   41 1  
    46   15   42 1  
    47   16   43 1  
    48   17   44 1  
    49   18   45 1  
    50   19   46 1  
    51   19   47 1  
    52   23   48 1  
    53   24   49 1  
    54   24   50 1  
    55   25   51 1  
    56   25   52 1  
    57   27   53 1  
    58   29   54 1  
    59   30   55 1  
    60   31   56 1  
    61   32   57 1  
    62   34   58 1  
@<TRIPOS>SUBSTRUCTURE
     1 HHJ         1

