### 
### Created by X-TOOL on Mon Aug  2 16:15:10 2021
### 

@<TRIPOS>MOLECULE
6n3z_ligand
   56    58     1     0     0
SMALL
GAST_HUCK


@<TRIPOS>ATOM
      1 C10        56.1440   12.4950   14.8650 C.3       1 KC4         0.0827
      2 C13        57.0370   11.5290   17.4720 C.3       1 KC4         0.0430
      3 C15        58.0910    9.5430   18.7230 C.2       1 KC4         0.2844
      4 C20        61.1770    7.0050   21.5950 C.ar      1 KC4        -0.0457
      5 C21        60.8060    5.7730   21.0830 C.ar      1 KC4         0.0850
      6 C28        59.5300    6.8110   19.3590 C.ar      1 KC4        -0.0494
      7 C01        56.3090   11.5850    6.5240 C.3       1 KC4         0.0188
      8 N02        56.2900   12.0280    7.9020 N.am      1 KC4        -0.2908
      9 C03        55.3320   11.4530    8.8240 C.2       1 KC4         0.1965
     10 O04        54.5470   10.6350    8.4820 O.2       1 KC4        -0.3898
     11 C05        55.3190   11.9320   10.2610 C.ar      1 KC4         0.0385
     12 C06        56.4880   12.3650   10.8590 C.ar      1 KC4        -0.0504
     13 C07        56.4460   12.8040   12.1670 C.ar      1 KC4        -0.0269
     14 C08        55.2380   12.8080   12.8440 C.ar      1 KC4         0.0970
     15 O09        55.1980   13.2450   14.1660 O.3       1 KC4        -0.3113
     16 C11        55.4180   11.3640   15.5840 C.3       1 KC4        -0.0199
     17 C12        56.3810   10.5900   16.4730 C.3       1 KC4        -0.0274
     18 N14        58.1160   10.8390   18.0990 N.am      1 KC4        -0.2653
     19 O16        57.1220    8.8590   18.8340 O.2       1 KC4        -0.3916
     20 N17        59.4150    9.2280   19.2110 N.am      1 KC4        -0.2258
     21 C18        59.8760    8.0410   19.8780 C.ar      1 KC4         0.0559
     22 C19        60.7140    8.1470   20.9730 C.ar      1 KC4        -0.0494
     23 O22        61.2730    4.6060   21.6640 O.3       1 KC4        -0.2361
     24 C23        62.4400    4.2140   21.0060 C.3       1 KC4         0.5436
     25 F24        62.8760    5.2140   20.1850 F         1 KC4        -0.1404
     26 F25        63.3950    3.9670   21.9440 F         1 KC4        -0.1404
     27 F26        62.2030    3.1150   20.2350 F         1 KC4        -0.1404
     28 C27        59.9950    5.6670   19.9680 C.ar      1 KC4        -0.0457
     29 C29        57.7850   12.6420   16.7650 C.3       1 KC4        -0.0274
     30 C30        56.9000   13.4220   15.8090 C.3       1 KC4        -0.0199
     31 C31        54.0720   12.3720   12.2410 C.ar      1 KC4        -0.0269
     32 C32        54.1120   11.9350   10.9340 C.ar      1 KC4        -0.0504
     33 H1         56.8623   12.0565   14.1567 H         1 KC4         0.0652
     34 H2         56.2985   11.9127   18.1913 H         1 KC4         0.0553
     35 H3         61.8181    7.0713   22.4666 H         1 KC4         0.0506
     36 H4         58.8983    6.7455   18.4805 H         1 KC4         0.0477
     37 H5         57.0945   12.1259    5.9758 H         1 KC4         0.0483
     38 H6         55.3324   11.7876    6.0602 H         1 KC4         0.0483
     39 H7         56.5147   10.5050    6.4888 H         1 KC4         0.0483
     40 H8         56.9338   12.7262    8.2153 H         1 KC4         0.1838
     41 H9         57.4224   12.3598   10.3095 H         1 KC4         0.0642
     42 H10        57.3503   13.1425   12.6597 H         1 KC4         0.0556
     43 H11        54.9853   10.6805   14.8386 H         1 KC4         0.0295
     44 H12        54.6139   11.7870   16.2041 H         1 KC4         0.0295
     45 H13        55.8278    9.8095   17.0160 H         1 KC4         0.0288
     46 H14        57.1569   10.1227   15.8489 H         1 KC4         0.0288
     47 H15        58.9964   11.3133   18.1058 H         1 KC4         0.1854
     48 H16        60.1069    9.9348   19.0639 H         1 KC4         0.2218
     49 H17        61.0063    9.1236   21.3416 H         1 KC4         0.0477
     50 H18        59.7277    4.6920   19.5769 H         1 KC4         0.0506
     51 H19        58.6169   12.2017   16.1957 H         1 KC4         0.0288
     52 H20        58.1839   13.3345   17.5209 H         1 KC4         0.0288
     53 H21        56.1741   14.0081   16.3917 H         1 KC4         0.0295
     54 H22        57.5281   14.1022   15.2150 H         1 KC4         0.0295
     55 H23        53.1372   12.3739   12.7899 H         1 KC4         0.0556
     56 H24        53.2077   11.5979   10.4403 H         1 KC4         0.0642
@<TRIPOS>BOND
     1    1   15 1  
     2   16    1 1  
     3    1   30 1  
     4    2   17 1  
     5   18    2 1  
     6    2   29 1  
     7    3   18 am 
     8    3   19 2  
     9   20    3 am 
    10    5    4 ar 
    11    4   22 ar 
    12    5   23 1  
    13   28    5 ar 
    14   21    6 ar 
    15    6   28 ar 
    16    8    7 1  
    17    9    8 am 
    18    9   10 2  
    19   11    9 1  
    20   12   11 ar 
    21   11   32 ar 
    22   13   12 ar 
    23   14   13 ar 
    24   15   14 1  
    25   14   31 ar 
    26   17   16 1  
    27   20   21 1  
    28   21   22 ar 
    29   23   24 1  
    30   24   25 1  
    31   24   26 1  
    32   24   27 1  
    33   29   30 1  
    34   31   32 ar 
    35    1   33 1  
    36    2   34 1  
    37    4   35 1  
    38    6   36 1  
    39    7   37 1  
    40    7   38 1  
    41    7   39 1  
    42    8   40 1  
    43   12   41 1  
    44   13   42 1  
    45   16   43 1  
    46   16   44 1  
    47   17   45 1  
    48   17   46 1  
    49   18   47 1  
    50   20   48 1  
    51   22   49 1  
    52   28   50 1  
    53   29   51 1  
    54   29   52 1  
    55   30   53 1  
    56   30   54 1  
    57   31   55 1  
    58   32   56 1  
@<TRIPOS>SUBSTRUCTURE
     1 KC4         1

