### 
### Created by X-TOOL on Mon Aug  2 16:10:58 2021
### 

@<TRIPOS>MOLECULE
6n48_ligand
   88    90     1     0     0
SMALL
GAST_HUCK


@<TRIPOS>ATOM
      1 C1         13.5080   -8.0100  -20.6170 C.ar      1 KBY        -0.0208
      2 C2          7.3320   -8.5590  -25.1670 C.ar      1 KBY         0.0841
      3 C3         12.6430   -7.0650  -21.1510 C.ar      1 KBY         0.0654
      4 C4         11.4260   -7.4700  -21.7190 C.ar      1 KBY         0.0489
      5 C5          9.0690   -7.1770  -23.5060 C.ar      1 KBY         0.0204
      6 C6         13.5290   -9.9040  -17.5600 C.3       1 KBY         0.0184
      7 C7         12.7770  -12.0960  -18.3890 C.3       1 KBY         0.0349
      8 C8         11.3980  -11.4660  -18.1370 C.3       1 KBY        -0.0454
      9 C9         13.0810  -13.1960  -17.3580 C.3       1 KBY        -0.0454
     10 C10         7.7380   -7.3330  -23.1380 C.ar      1 KBY        -0.0558
     11 C11         6.8690   -8.0260  -23.9730 C.ar      1 KBY        -0.0383
     12 N1         13.8640  -11.0800  -18.3470 N.am      1 KBY        -0.2353
     13 C12        13.1800   -9.3670  -20.6430 C.ar      1 KBY         0.1071
     14 C13        11.0970   -8.8160  -21.7520 C.ar      1 KBY        -0.0400
     15 C14         8.6610   -8.4080  -25.5320 C.ar      1 KBY        -0.0383
     16 C15         9.5290   -7.7170  -24.6980 C.ar      1 KBY        -0.0558
     17 C16         5.4410   -9.9280  -25.2840 C.3       1 KBY         0.0580
     18 C17        13.0990   -5.5720  -21.0550 C.2       1 KBY         0.2017
     19 C19        11.9730   -9.7600  -21.2150 C.ar      1 KBY        -0.0365
     20 O1         15.7280  -10.0750  -19.9410 O.2       1 KBY        -0.1509
     21 O2         14.4190  -11.8330  -20.8260 O.2       1 KBY        -0.1509
     22 O3          6.4470   -9.2550  -26.0010 O.3       1 KBY        -0.3254
     23 O4         12.3110   -4.6720  -21.0810 O.2       1 KBY        -0.3885
     24 S1         14.3350  -10.6220  -19.9360 S.o2      1 KBY         0.0686
     25 S2         10.2440   -6.2730  -22.4310 S.3       1 KBY        -0.0458
     26 N2         14.5470   -5.2890  -20.8980 N.am      1 KBY        -0.2794
     27 C18        14.9830   -3.8910  -20.7960 C.3       1 KBY         0.0723
     28 C20        15.5040   -3.4410  -22.1590 C.3       1 KBY         0.0213
     29 C21        16.0470   -3.8080  -19.7110 C.3       1 KBY         0.0628
     30 C22        14.3150   -3.2620  -23.1490 C.ar      1 KBY        -0.0090
     31 C23        14.0250   -4.2500  -24.0830 C.ar      1 KBY        -0.0284
     32 C24        12.9550   -4.0840  -24.9650 C.ar      1 KBY        -0.0450
     33 C25        12.1780   -2.9290  -24.9090 C.ar      1 KBY        -0.0568
     34 C26        12.4680   -1.9430  -23.9710 C.ar      1 KBY        -0.0450
     35 C27        13.5340   -2.1080  -23.0910 C.ar      1 KBY        -0.0284
     36 C28        10.9870   -2.7440  -25.8880 C.3       1 KBY        -0.0520
     37 C29        11.3400   -3.3530  -27.2470 C.3       1 KBY        -0.0877
     38 C30        10.6870   -1.2520  -26.0570 C.3       1 KBY        -0.0877
     39 C31         9.7500   -3.4480  -25.3190 C.3       1 KBY        -0.0877
     40 C32        15.5500   -3.9060  -18.2550 C.2       1 KBY         0.1799
     41 O5         14.9240   -3.0170  -17.7930 O.2       1 KBY        -0.3969
     42 N3         15.8460   -5.0790  -17.4310 N.am      1 KBY        -0.2740
     43 C33        16.6130   -6.2010  -17.9560 C.3       1 KBY         0.0832
     44 C34        16.6480   -7.3380  -16.9280 C.2       1 KBY         0.0570
     45 O6         17.3640   -8.3550  -17.1320 O.co2     1 KBY        -0.5669
     46 O7         15.9620   -7.2540  -15.8740 O.co2     1 KBY        -0.5669
     47 H1         14.4459   -7.6920  -20.1762 H         1 KBY         0.0671
     48 H2         13.2302  -10.2133  -16.5476 H         1 KBY         0.0442
     49 H3         12.6976   -9.3665  -18.0395 H         1 KBY         0.0442
     50 H4         14.4057   -9.2426  -17.4975 H         1 KBY         0.0442
     51 H5         12.7647  -12.5499  -19.3909 H         1 KBY         0.0508
     52 H6         10.6251  -12.2477  -18.1763 H         1 KBY         0.0248
     53 H7         11.1939  -10.7095  -18.9090 H         1 KBY         0.0248
     54 H8         11.3880  -10.9900  -17.1454 H         1 KBY         0.0248
     55 H9         14.0719  -13.6272  -17.5633 H         1 KBY         0.0248
     56 H10        12.3168  -13.9842  -17.4266 H         1 KBY         0.0248
     57 H11        13.0719  -12.7634  -16.3467 H         1 KBY         0.0248
     58 H12         7.3790   -6.9161  -22.2040 H         1 KBY         0.0543
     59 H13         5.8297   -8.1498  -23.6910 H         1 KBY         0.0527
     60 H14        10.1602   -9.1349  -22.1945 H         1 KBY         0.0581
     61 H15         9.0206   -8.8277  -26.4645 H         1 KBY         0.0527
     62 H16        10.5693   -7.5990  -24.9790 H         1 KBY         0.0543
     63 H17         4.7790  -10.4543  -25.9874 H         1 KBY         0.0575
     64 H18         4.8549   -9.2002  -24.7037 H         1 KBY         0.0575
     65 H19         5.9024  -10.6558  -24.6004 H         1 KBY         0.0575
     66 H20        11.7108  -10.8114  -21.2435 H         1 KBY         0.0655
     67 H21        15.2120   -6.0350  -20.8624 H         1 KBY         0.1849
     68 H22        14.1315   -3.2551  -20.5124 H         1 KBY         0.0613
     69 H23        16.1959   -4.1997  -22.5535 H         1 KBY         0.0523
     70 H24        16.0340   -2.4834  -22.0488 H         1 KBY         0.0523
     71 H25        16.5654   -2.8444  -19.8235 H         1 KBY         0.0527
     72 H26        16.7595   -4.6293  -19.8774 H         1 KBY         0.0527
     73 H27        14.6292   -5.1489  -24.1267 H         1 KBY         0.0652
     74 H28        12.7289   -4.8542  -25.6935 H         1 KBY         0.0833
     75 H29        11.8628   -1.0448  -23.9254 H         1 KBY         0.0833
     76 H30        13.7572   -1.3391  -22.3602 H         1 KBY         0.0652
     77 H31        10.4950   -3.2207  -27.9387 H         1 KBY         0.0126
     78 H32        11.5493   -4.4260  -27.1248 H         1 KBY         0.0126
     79 H33        12.2294   -2.8500  -27.6544 H         1 KBY         0.0126
     80 H34        10.4335   -0.8160  -25.0794 H         1 KBY         0.0126
     81 H35         9.8394   -1.1242  -26.7463 H         1 KBY         0.0126
     82 H36        11.5725   -0.7440  -26.4665 H         1 KBY         0.0126
     83 H37         9.9624   -4.5203  -25.1964 H         1 KBY         0.0126
     84 H38         8.9040   -3.3185  -26.0100 H         1 KBY         0.0126
     85 H39         9.4959   -3.0105  -24.3422 H         1 KBY         0.0126
     86 H40        15.5149   -5.1110  -16.4880 H         1 KBY         0.1872
     87 H41        17.6404   -5.8717  -18.1702 H         1 KBY         0.0689
     88 H42        16.1429   -6.5620  -18.8827 H         1 KBY         0.0689
@<TRIPOS>BOND
     1    1    3 ar 
     2   13    1 ar 
     3   11    2 ar 
     4    2   15 ar 
     5    2   22 1  
     6    3    4 ar 
     7    3   18 1  
     8    4   14 ar 
     9    4   25 1  
    10    5   10 ar 
    11    5   16 ar 
    12   25    5 1  
    13   12    6 1  
    14    7    8 1  
    15    7    9 1  
    16   12    7 1  
    17   10   11 ar 
    18   24   12 am 
    19   13   19 ar 
    20   13   24 1  
    21   14   19 ar 
    22   15   16 ar 
    23   22   17 1  
    24   18   23 2  
    25   18   26 am 
    26   24   20 2  
    27   24   21 2  
    28   26   27 1  
    29   27   28 1  
    30   27   29 1  
    31   28   30 1  
    32   29   40 1  
    33   30   31 ar 
    34   30   35 ar 
    35   31   32 ar 
    36   32   33 ar 
    37   33   34 ar 
    38   33   36 1  
    39   34   35 ar 
    40   36   37 1  
    41   36   38 1  
    42   36   39 1  
    43   40   41 2  
    44   40   42 am 
    45   42   43 1  
    46   43   44 1  
    47   44   45 ar 
    48   44   46 ar 
    49    1   47 1  
    50    6   48 1  
    51    6   49 1  
    52    6   50 1  
    53    7   51 1  
    54    8   52 1  
    55    8   53 1  
    56    8   54 1  
    57    9   55 1  
    58    9   56 1  
    59    9   57 1  
    60   10   58 1  
    61   11   59 1  
    62   14   60 1  
    63   15   61 1  
    64   16   62 1  
    65   17   63 1  
    66   17   64 1  
    67   17   65 1  
    68   19   66 1  
    69   26   67 1  
    70   27   68 1  
    71   28   69 1  
    72   28   70 1  
    73   29   71 1  
    74   29   72 1  
    75   31   73 1  
    76   32   74 1  
    77   34   75 1  
    78   35   76 1  
    79   37   77 1  
    80   37   78 1  
    81   37   79 1  
    82   38   80 1  
    83   38   81 1  
    84   38   82 1  
    85   39   83 1  
    86   39   84 1  
    87   39   85 1  
    88   42   86 1  
    89   43   87 1  
    90   43   88 1  
@<TRIPOS>SUBSTRUCTURE
     1 KBY         1

