### 
### Created by X-TOOL on Mon Aug  2 16:10:58 2021
### 

@<TRIPOS>MOLECULE
6n4b_ligand
   53    55     1     0     0
SMALL
GAST_HUCK


@<TRIPOS>ATOM
      1 N          89.3760  131.0420  121.8500 N.am      1 KCA        -0.2630
      2 CA         88.1960  131.3700  122.6750 C.3       1 KCA         0.1465
      3 C          88.1640  132.8920  122.9800 C.2       1 KCA         0.2598
      4 O          87.3190  133.5610  122.3840 O.2       1 KCA        -0.3678
      5 CB         88.1650  130.4180  123.8950 C.3       1 KCA         0.0039
      6 CG1        86.8830  130.6750  124.6710 C.3       1 KCA        -0.0557
      7 CG2        88.1330  129.0010  123.3320 C.3       1 KCA        -0.0557
      8 CAB        89.4180  131.4800  120.5880 C.2       1 KCA         0.2166
      9 CAG        88.8470  134.8590  123.9860 C.3       1 KCA         0.0658
     10 CAL        89.3790  130.4730  124.8350 C.3       1 KCA        -0.0557
     11 CAM        90.5320  131.1620  119.8930 C.2       1 KCA         0.1356
     12 CAP        93.7190  129.6350  119.4810 C.3       1 KCA         0.1011
     13 CAQ        94.6860  130.5660  119.8620 C.ar      1 KCA        -0.0161
     14 CAR        94.5400  131.9410  119.8520 C.ar      1 KCA        -0.0593
     15 CAS        95.5520  132.7860  120.2410 C.ar      1 KCA        -0.0348
     16 CAT        96.7440  132.2360  120.6680 C.ar      1 KCA         0.1248
     17 CAV        96.9370  130.8790  120.7050 C.ar      1 KCA        -0.0348
     18 CAW        95.8790  130.1230  120.2890 C.ar      1 KCA        -0.0593
     19 CAX        91.9710  130.8590  118.3330 C.ar      1 KCA         0.0980
     20 CAY        90.7990  131.4130  118.6040 C.ar      1 KCA         0.0278
     21 CAZ        90.1540  132.0570  117.6380 C.ar      1 KCA        -0.0627
     22 CBA        90.6870  132.1790  116.3750 C.ar      1 KCA        -0.0720
     23 CBB        91.9240  131.6180  116.1210 C.ar      1 KCA        -0.0700
     24 CBC        92.5670  130.9570  117.1490 C.ar      1 KCA        -0.0337
     25 FAU        97.5630  132.8980  120.9890 F         1 KCA        -0.1893
     26 NAN        91.5330  130.4650  120.4180 N.2       1 KCA        -0.1713
     27 NAO        92.4280  130.2980  119.4450 N.pl3     1 KCA        -0.1801
     28 OAA        88.4400  132.0500  120.0950 O.2       1 KCA        -0.3859
     29 OAF        89.0750  133.4460  123.8260 O.3       1 KCA        -0.2784
     30 H1         90.1287  130.5029  122.2280 H         1 KCA         0.1877
     31 H2         87.2955  131.1528  122.0818 H         1 KCA         0.0821
     32 H3         86.8424  130.0066  125.5437 H         1 KCA         0.0237
     33 H4         86.0164  130.4828  124.0214 H         1 KCA         0.0237
     34 H5         86.8627  131.7214  125.0094 H         1 KCA         0.0237
     35 H6         89.0584  128.8091  122.7692 H         1 KCA         0.0237
     36 H7         87.2673  128.8920  122.6622 H         1 KCA         0.0237
     37 H8         88.0503  128.2798  124.1585 H         1 KCA         0.0237
     38 H9         89.5976  135.2759  124.6736 H         1 KCA         0.0577
     39 H10        87.8406  135.0237  124.3983 H         1 KCA         0.0577
     40 H11        88.9288  135.3566  123.0084 H         1 KCA         0.0577
     41 H12        89.4563  131.4779  125.2756 H         1 KCA         0.0237
     42 H13        90.2938  130.2508  124.2659 H         1 KCA         0.0237
     43 H14        89.2561  129.7297  125.6365 H         1 KCA         0.0237
     44 H15        93.6919  128.8099  120.2080 H         1 KCA         0.0779
     45 H16        93.9595  129.2375  118.4840 H         1 KCA         0.0779
     46 H17        93.5973  132.3662  119.5270 H         1 KCA         0.0548
     47 H18        95.4170  133.8612  120.2131 H         1 KCA         0.0587
     48 H19        97.8673  130.4361  121.0420 H         1 KCA         0.0587
     49 H20        96.0174  129.0480  120.3053 H         1 KCA         0.0548
     50 H21        89.1858  132.4965  117.8491 H         1 KCA         0.0589
     51 H22        90.1474  132.7045  115.5954 H         1 KCA         0.0536
     52 H23        92.3782  131.6948  115.1397 H         1 KCA         0.0580
     53 H24        93.5476  130.5226  116.9919 H         1 KCA         0.0563
@<TRIPOS>BOND
     1    1    2 1  
     2    8    1 am 
     3    2    3 1  
     4    2    5 1  
     5    3    4 2  
     6    3   29 1  
     7    5    6 1  
     8    5    7 1  
     9    5   10 1  
    10   11    8 1  
    11    8   28 2  
    12   29    9 1  
    13   20   11 1  
    14   11   26 2  
    15   12   13 1  
    16   27   12 1  
    17   13   14 ar 
    18   13   18 ar 
    19   14   15 ar 
    20   15   16 ar 
    21   17   16 ar 
    22   16   25 1  
    23   18   17 ar 
    24   19   20 ar 
    25   19   24 ar 
    26   19   27 1  
    27   20   21 ar 
    28   21   22 ar 
    29   22   23 ar 
    30   23   24 ar 
    31   26   27 1  
    32    1   30 1  
    33    2   31 1  
    34    6   32 1  
    35    6   33 1  
    36    6   34 1  
    37    7   35 1  
    38    7   36 1  
    39    7   37 1  
    40    9   38 1  
    41    9   39 1  
    42    9   40 1  
    43   10   41 1  
    44   10   42 1  
    45   10   43 1  
    46   12   44 1  
    47   12   45 1  
    48   14   46 1  
    49   15   47 1  
    50   17   48 1  
    51   18   49 1  
    52   21   50 1  
    53   22   51 1  
    54   23   52 1  
    55   24   53 1  
@<TRIPOS>SUBSTRUCTURE
     1 KCA         1

