### 
### Created by X-TOOL on Mon Aug  2 16:12:03 2021
### 

@<TRIPOS>MOLECULE
6n4e_ligand
   51    53     1     0     0
SMALL
GAST_HUCK


@<TRIPOS>ATOM
      1 C01        14.4590   32.1080  -18.1520 C.3       1 KCD        -0.0361
      2 C03        15.9640   30.2060  -17.6390 C.3       1 KCD        -0.0361
      3 C05        13.6160   30.1520  -16.6870 C.3       1 KCD        -0.0125
      4 C08        12.7340   28.2790  -15.2140 C.3       1 KCD        -0.0296
      5 C11        11.1740   30.0990  -16.0060 C.3       1 KCD        -0.0296
      6 C12        12.3800   30.9860  -16.3120 C.3       1 KCD        -0.0455
      7 C14         9.4790   28.3670  -13.6080 C.2       1 KCD         0.2086
      8 C16         8.3440   27.4080  -13.5030 C.ar      1 KCD         0.0754
      9 C17         7.9470   26.9890  -12.2410 C.ar      1 KCD         0.0240
     10 C19         6.2770   25.6220  -13.0890 C.ar      1 KCD         0.0383
     11 C20         5.2370   24.7420  -12.8710 C.ar      1 KCD        -0.0123
     12 C21         4.4890   24.1900  -13.9260 C.ar      1 KCD         0.1061
     13 C23         4.1200   22.2700  -12.7930 C.3       1 KCD         0.3677
     14 C26         4.7980   24.5120  -15.2420 C.ar      1 KCD        -0.0201
     15 C27         5.8450   25.4140  -15.4940 C.ar      1 KCD        -0.0458
     16 C28         6.5860   25.9760  -14.4260 C.ar      1 KCD         0.0061
     17 C29         7.6510   26.8840  -14.6070 C.ar      1 KCD        -0.0183
     18 C02        14.8070   31.0470  -17.0960 C.3       1 KCD         0.0633
     19 O04        15.2690   31.7390  -15.9370 O.3       1 KCD        -0.3888
     20 C07        13.9200   29.2060  -15.5100 C.3       1 KCD        -0.0455
     21 C09        11.4800   29.0930  -14.9030 C.3       1 KCD         0.0415
     22 N13        10.3320   28.2340  -14.6990 N.am      1 KCD        -0.2831
     23 O15         9.6350   29.2010  -12.7130 O.2       1 KCD        -0.3852
     24 N18         6.9350   26.1150  -12.0280 N.ar      1 KCD        -0.2992
     25 O22         3.5190   23.2740  -13.6320 O.3       1 KCD        -0.2513
     26 F24         3.3200   22.1510  -11.7130 F         1 KCD        -0.1735
     27 F25         4.3500   21.1290  -13.4750 F         1 KCD        -0.1735
     28 H1         15.3561   32.6997  -18.3868 H         1 KCD         0.0257
     29 H2         13.6742   32.7718  -17.7602 H         1 KCD         0.0257
     30 H3         14.0977   31.6120  -19.0649 H         1 KCD         0.0257
     31 H4         16.2351   29.4360  -16.9017 H         1 KCD         0.0257
     32 H5         16.8320   30.8548  -17.8276 H         1 KCD         0.0257
     33 H6         15.6567   29.7224  -18.5780 H         1 KCD         0.0257
     34 H7         13.3626   29.5327  -17.5601 H         1 KCD         0.0328
     35 H8         12.9776   27.6455  -14.3484 H         1 KCD         0.0287
     36 H9         12.5440   27.6436  -16.0916 H         1 KCD         0.0287
     37 H10        10.8923   29.5530  -16.9184 H         1 KCD         0.0287
     38 H11        10.3357   30.7351  -15.6858 H         1 KCD         0.0287
     39 H12        12.1299   31.6510  -17.1518 H         1 KCD         0.0270
     40 H13        12.6134   31.5901  -15.4229 H         1 KCD         0.0270
     41 H14         8.4752   27.3823  -11.3800 H         1 KCD         0.0890
     42 H15         4.9882   24.4670  -11.8524 H         1 KCD         0.0522
     43 H16         5.0978   22.6381  -12.4490 H         1 KCD         0.1423
     44 H17         4.2397   24.0739  -16.0614 H         1 KCD         0.0619
     45 H18         6.0881   25.6824  -16.5157 H         1 KCD         0.0661
     46 H19         7.9377   27.1806  -15.6095 H         1 KCD         0.0831
     47 H20        14.5638   32.2684  -15.5835 H         1 KCD         0.2101
     48 H21        14.1360   29.8072  -14.6146 H         1 KCD         0.0270
     49 H22        14.7985   28.5935  -15.7612 H         1 KCD         0.0270
     50 H23        11.6627   29.6499  -13.9722 H         1 KCD         0.0555
     51 H24        10.1448   27.5161  -15.3695 H         1 KCD         0.1847
@<TRIPOS>BOND
     1   18    1 1  
     2   18    2 1  
     3    6    3 1  
     4    3   18 1  
     5   20    3 1  
     6    4   20 1  
     7   21    4 1  
     8    5    6 1  
     9   21    5 1  
    10    7    8 1  
    11   22    7 am 
    12    7   23 2  
    13    8    9 ar 
    14    8   17 ar 
    15    9   24 ar 
    16   10   11 ar 
    17   16   10 ar 
    18   24   10 ar 
    19   11   12 ar 
    20   14   12 ar 
    21   12   25 1  
    22   25   13 1  
    23   13   26 1  
    24   13   27 1  
    25   15   14 ar 
    26   16   15 ar 
    27   17   16 ar 
    28   18   19 1  
    29   21   22 1  
    30    1   28 1  
    31    1   29 1  
    32    1   30 1  
    33    2   31 1  
    34    2   32 1  
    35    2   33 1  
    36    3   34 1  
    37    4   35 1  
    38    4   36 1  
    39    5   37 1  
    40    5   38 1  
    41    6   39 1  
    42    6   40 1  
    43    9   41 1  
    44   11   42 1  
    45   13   43 1  
    46   14   44 1  
    47   15   45 1  
    48   17   46 1  
    49   19   47 1  
    50   20   48 1  
    51   20   49 1  
    52   21   50 1  
    53   22   51 1  
@<TRIPOS>SUBSTRUCTURE
     1 KCD         1

