### 
### Created by X-TOOL on Mon Aug  2 16:11:38 2021
### 

@<TRIPOS>MOLECULE
6n4t_ligand
   90    93     1     0     0
SMALL
GAST_HUCK


@<TRIPOS>ATOM
      1 C18       -18.2460   -6.8830   30.5920 C.2       1 KD7         0.1803
      2 O19       -18.6730   -5.7330   30.6680 O.2       1 KD7        -0.3967
      3 C20       -18.4730   -7.8900   31.6960 C.3       1 KD7         0.0470
      4 C21       -19.8260   -7.6930   32.3910 C.3       1 KD7        -0.0022
      5 C22       -21.0190   -7.9750   31.4980 C.ar      1 KD7        -0.0408
      6 C23       -22.2050   -7.2730   31.6560 C.ar      1 KD7        -0.0602
      7 C24       -23.2970   -7.5330   30.8440 C.ar      1 KD7        -0.0686
      8 C25       -23.2180   -8.4990   29.8660 C.ar      1 KD7        -0.0687
      9 C26       -22.0430   -9.1950   29.6910 C.ar      1 KD7        -0.0686
     10 C27       -20.9520   -8.9380   30.5050 C.ar      1 KD7        -0.0602
     11 C13       -15.9260   -4.1120   30.1790 C.2       1 KD7         0.0049
     12 C15       -14.6140   -5.8270   32.0470 C.2       1 KD7         0.0721
     13 C07       -17.4690   -7.3140   27.0990 C.2       1 KD7         0.2056
     14 C09       -17.2500   -6.5080   28.3820 C.3       1 KD7         0.1387
     15 C11       -15.7900   -6.0460   28.4460 C.3       1 KD7         0.0215
     16 C12       -15.4890   -5.5410   29.8570 C.2       1 KD7         0.0055
     17 N16       -14.8050   -6.4960   30.7880 N.2       1 KD7        -0.3060
     18 N17       -17.5550   -7.3290   29.5380 N.am      1 KD7        -0.2640
     19 O08       -16.9960   -8.4430   26.9950 O.2       1 KD7        -0.3942
     20 S14       -15.3190   -4.1520   31.8850 S.3       1 KD7        -0.0209
     21 N06       -18.1750   -6.7350   26.1250 N.am      1 KD7        -0.2634
     22 C04       -18.3940   -7.4420   24.8750 C.3       1 KD7         0.1331
     23 C28       -17.0660   -7.4530   24.1180 C.2       1 KD7         0.2024
     24 O29       -16.2190   -6.5920   24.3380 O.2       1 KD7        -0.3945
     25 C02       -19.5430   -6.8520   24.0340 C.3       1 KD7        -0.0063
     26 C01       -20.8600   -6.8780   24.7990 C.3       1 KD7        -0.0584
     27 C03       -19.2250   -5.4440   23.5540 C.3       1 KD7        -0.0584
     28 C31       -15.6380   -8.6040   22.5030 C.3       1 KD7         0.0862
     29 C33       -15.0550   -9.9870   22.7880 C.3       1 KD7        -0.0214
     30 C34       -14.5620  -10.1490   24.2220 C.3       1 KD7        -0.0174
     31 C35       -14.1880  -11.5840   24.5820 C.3       1 KD7         0.0626
     32 C37       -13.1360  -12.6710   26.5420 C.cat     1 KD7         0.2882
     33 C40       -15.8100   -8.3320   21.0060 C.3       1 KD7         0.1518
     34 C42       -16.2270   -6.9080   20.6630 C.2       1 KD7         0.1288
     35 C44       -17.5130   -5.0470   19.8800 C.ar      1 KD7         0.0222
     36 C45       -18.5880   -4.3210   19.3710 C.ar      1 KD7        -0.0588
     37 C46       -18.4730   -2.9470   19.2260 C.ar      1 KD7        -0.0730
     38 C47       -17.2870   -2.3010   19.5180 C.ar      1 KD7        -0.0722
     39 C48       -16.2120   -3.0070   20.0290 C.ar      1 KD7        -0.0503
     40 C49       -16.3320   -4.3830   20.2010 C.ar      1 KD7         0.0528
     41 N30       -16.8840   -8.4450   23.2470 N.am      1 KD7        -0.2764
     42 N36       -13.7900  -11.4950   25.9930 N.pl3     1 KD7        -0.2723
     43 N38       -12.5910  -12.5650   27.7350 N.pl3     1 KD7        -0.2849
     44 N39       -13.1150  -13.8000   25.8620 N.pl3     1 KD7        -0.2849
     45 N43       -17.4750   -6.4240   20.1160 N.2       1 KD7        -0.3058
     46 O41       -14.5250   -8.4120   20.3960 O.3       1 KD7        -0.3669
     47 S50       -15.1070   -5.4750   20.8210 S.3       1 KD7         0.0108
     48 H1        -17.6724   -7.7834   32.4428 H         1 KD7         0.0525
     49 H2        -18.4402   -8.9015   31.2650 H         1 KD7         0.0525
     50 H3        -19.8900   -6.6506   32.7365 H         1 KD7         0.0451
     51 H4        -19.8731   -8.3699   33.2568 H         1 KD7         0.0451
     52 H5        -22.2782   -6.5117   32.4242 H         1 KD7         0.0557
     53 H6        -24.2161   -6.9744   30.9790 H         1 KD7         0.0599
     54 H7        -24.0757   -8.7102   29.2377 H         1 KD7         0.0559
     55 H8        -21.9714   -9.9468   28.9134 H         1 KD7         0.0599
     56 H9        -20.0345   -9.4976   30.3630 H         1 KD7         0.0557
     57 H10       -16.4251   -3.3429   29.5913 H         1 KD7         0.0587
     58 H11       -14.1369   -6.2433   32.9330 H         1 KD7         0.1164
     59 H12       -17.9110   -5.6288   28.3772 H         1 KD7         0.0820
     60 H13       -15.6279   -5.2343   27.7215 H         1 KD7         0.0446
     61 H14       -15.1255   -6.8893   28.2066 H         1 KD7         0.0446
     62 H15       -17.2325   -8.2755   29.5471 H         1 KD7         0.1884
     63 H16       -18.5517   -5.8179   26.2554 H         1 KD7         0.1883
     64 H17       -18.6657   -8.4812   25.1123 H         1 KD7         0.0802
     65 H18       -19.6612   -7.4877   23.1441 H         1 KD7         0.0343
     66 H19       -21.6567   -6.4511   24.1720 H         1 KD7         0.0234
     67 H20       -20.7608   -6.2849   25.7201 H         1 KD7         0.0234
     68 H21       -21.1136   -7.9167   25.0572 H         1 KD7         0.0234
     69 H22       -18.2716   -5.4502   23.0055 H         1 KD7         0.0234
     70 H23       -19.1453   -4.7706   24.4201 H         1 KD7         0.0234
     71 H24       -20.0281   -5.0930   22.8893 H         1 KD7         0.0234
     72 H25       -14.9252   -7.8580   22.8843 H         1 KD7         0.0617
     73 H26       -14.2084  -10.1565   22.1064 H         1 KD7         0.0292
     74 H27       -15.8342  -10.7402   22.5994 H         1 KD7         0.0292
     75 H28       -15.3590   -9.8162   24.9032 H         1 KD7         0.0300
     76 H29       -13.6743   -9.5139   24.3582 H         1 KD7         0.0300
     77 H30       -13.3531  -11.9398   23.9604 H         1 KD7         0.0689
     78 H31       -15.0495  -12.2568   24.4589 H         1 KD7         0.0689
     79 H32       -16.5175   -9.0581   20.5792 H         1 KD7         0.0901
     80 H33       -19.5055   -4.8258   19.0910 H         1 KD7         0.0558
     81 H34       -19.3242   -2.3723   18.8792 H         1 KD7         0.0552
     82 H35       -17.1980   -1.2345   19.3457 H         1 KD7         0.0552
     83 H36       -15.2920   -2.4970   20.2909 H         1 KD7         0.0565
     84 H37       -17.6240   -9.1010   23.0984 H         1 KD7         0.1858
     85 H38       -13.9636  -10.6516   26.5582 H         1 KD7         0.2642
     86 H39       -12.1180  -13.3758   28.1590 H         1 KD7         0.2615
     87 H40       -12.6374  -11.6712   28.2448 H         1 KD7         0.2615
     88 H41       -13.5514  -13.8482   24.9303 H         1 KD7         0.2615
     89 H42       -12.6622  -14.6340   26.2624 H         1 KD7         0.2615
     90 H43       -14.1574   -9.2749   20.5465 H         1 KD7         0.2148
@<TRIPOS>BOND
     1    1    2 2  
     2    1    3 1  
     3   18    1 am 
     4    3    4 1  
     5    4    5 1  
     6    5    6 ar 
     7    5   10 ar 
     8    6    7 ar 
     9    7    8 ar 
    10    9    8 ar 
    11   10    9 ar 
    12   16   11 2  
    13   11   20 1  
    14   17   12 2  
    15   12   20 1  
    16   13   14 1  
    17   13   19 2  
    18   21   13 am 
    19   14   15 1  
    20   14   18 1  
    21   15   16 1  
    22   16   17 1  
    23   22   21 1  
    24   23   22 1  
    25   22   25 1  
    26   23   24 2  
    27   41   23 am 
    28   25   26 1  
    29   25   27 1  
    30   28   29 1  
    31   33   28 1  
    32   28   41 1  
    33   29   30 1  
    34   30   31 1  
    35   31   42 1  
    36   42   32 ar 
    37   32   43 ar 
    38   32   44 ar 
    39   34   33 1  
    40   33   46 1  
    41   45   34 2  
    42   34   47 1  
    43   35   36 ar 
    44   35   40 ar 
    45   35   45 1  
    46   36   37 ar 
    47   37   38 ar 
    48   38   39 ar 
    49   39   40 ar 
    50   40   47 1  
    51    3   48 1  
    52    3   49 1  
    53    4   50 1  
    54    4   51 1  
    55    6   52 1  
    56    7   53 1  
    57    8   54 1  
    58    9   55 1  
    59   10   56 1  
    60   11   57 1  
    61   12   58 1  
    62   14   59 1  
    63   15   60 1  
    64   15   61 1  
    65   18   62 1  
    66   21   63 1  
    67   22   64 1  
    68   25   65 1  
    69   26   66 1  
    70   26   67 1  
    71   26   68 1  
    72   27   69 1  
    73   27   70 1  
    74   27   71 1  
    75   28   72 1  
    76   29   73 1  
    77   29   74 1  
    78   30   75 1  
    79   30   76 1  
    80   31   77 1  
    81   31   78 1  
    82   33   79 1  
    83   36   80 1  
    84   37   81 1  
    85   38   82 1  
    86   39   83 1  
    87   41   84 1  
    88   42   85 1  
    89   43   86 1  
    90   43   87 1  
    91   44   88 1  
    92   44   89 1  
    93   46   90 1  
@<TRIPOS>SUBSTRUCTURE
     1 KD7         1

