### 
### Created by X-TOOL on Mon Aug  2 16:15:10 2021
### 

@<TRIPOS>MOLECULE
6n55_ligand
   30    31     1     0     0
SMALL
GAST_HUCK


@<TRIPOS>ATOM
      1 N1        107.4810  -51.0860   41.3010 N.am      1 UZ0        -0.1561
      2 C2        106.5080  -51.9680   41.0130 C.2       1 UZ0         0.3329
      3 O2        105.9050  -52.4540   41.9470 O.2       1 UZ0        -0.3815
      4 N3        106.2020  -52.3110   39.7360 N.am      1 UZ0        -0.1865
      5 C4        106.8920  -51.7570   38.7060 C.2       1 UZ0         0.1822
      6 O4        106.6460  -52.0510   37.5440 O.2       1 UZ0        -0.4124
      7 C5        107.9250  -50.8180   38.9740 C.2       1 UZ0         0.0062
      8 C6        108.1890  -50.5030   40.2700 C.2       1 UZ0         0.0592
      9 C1'       107.7510  -50.7370   42.7140 C.3       1 UZ0         0.2386
     10 C2'       108.7460  -51.6900   43.4270 C.3       1 UZ0         0.3005
     11 C3'       110.1580  -51.0860   43.3400 C.3       1 UZ0         0.1469
     12 N3'       108.4410  -52.6670   44.4790 N.2       1 UZ0         0.1778
     13 O3'       110.9280  -51.3830   44.5100 O.3       1 UZ0        -0.3834
     14 C4'       109.7980  -49.5920   43.3180 C.3       1 UZ0         0.1164
     15 N4'       107.4170  -53.1140   44.6690 N.1       1 UZ0         0.1298
     16 O4'       108.4540  -49.4570   42.7700 O.3       1 UZ0        -0.3344
     17 C5'       110.8700  -48.8300   42.5160 C.3       1 UZ0         0.0731
     18 N5'       106.4120  -53.5860   44.9170 N.1       1 UZ0         0.2334
     19 O5'       111.0960  -47.5430   43.1160 O.3       1 UZ0        -0.3924
     20 H1        105.4713  -52.9691   39.5543 H         1 UZ0         0.2259
     21 H2        108.4903  -50.3627   38.1622 H         1 UZ0         0.0258
     22 H3        108.9708  -49.7799   40.4978 H         1 UZ0         0.1178
     23 H4        106.7982  -50.6970   43.2623 H         1 UZ0         0.1029
     24 H5        108.8299  -52.4328   42.6201 H         1 UZ0         0.1082
     25 H6        110.6959  -51.4070   42.4358 H         1 UZ0         0.0678
     26 H7        111.0083  -52.3249   44.6042 H         1 UZ0         0.2101
     27 H8        109.7950  -49.2023   44.3466 H         1 UZ0         0.0648
     28 H9        110.5257  -48.6956   41.4800 H         1 UZ0         0.0584
     29 H10       111.8076  -49.4052   42.5192 H         1 UZ0         0.0584
     30 H11       111.3935  -47.6598   44.0106 H         1 UZ0         0.2095
@<TRIPOS>BOND
     1    1    2 am 
     2    1    8 1  
     3    1    9 1  
     4    2    3 2  
     5    2    4 am 
     6    4    5 am 
     7    5    6 2  
     8    5    7 1  
     9    7    8 2  
    10    9   10 1  
    11    9   16 1  
    12   10   11 1  
    13   10   12 1  
    14   11   13 1  
    15   11   14 1  
    16   12   15 2  
    17   14   16 1  
    18   14   17 1  
    19   15   18 3  
    20   17   19 1  
    21    4   20 1  
    22    7   21 1  
    23    8   22 1  
    24    9   23 1  
    25   10   24 1  
    26   11   25 1  
    27   13   26 1  
    28   14   27 1  
    29   17   28 1  
    30   17   29 1  
    31   19   30 1  
@<TRIPOS>SUBSTRUCTURE
     1 UZ0         1

