### 
### Created by X-TOOL on Mon Aug  2 16:15:10 2021
### 

@<TRIPOS>MOLECULE
6n5f_ligand
   55    54     1     0     0
SMALL
GAST_HUCK


@<TRIPOS>ATOM
      1 C13         9.8040    7.1780   20.4950 C.3       1 KJ1        -0.0327
      2 C15        11.7860    6.1910   21.9530 C.3       1 KJ1        -0.0529
      3 C17        13.3000    4.3420   23.1950 C.3       1 KJ1        -0.0361
      4 C01         6.3980   12.4860   11.6110 C.3       1 KJ1        -0.0653
      5 C02         4.9750   12.3160   12.1730 C.3       1 KJ1        -0.0559
      6 C03         4.7300   13.3180   13.2950 C.3       1 KJ1        -0.0533
      7 C04         5.7950   13.1730   14.3840 C.3       1 KJ1        -0.0531
      8 C05         5.6750   11.8500   15.1730 C.3       1 KJ1        -0.0529
      9 C06         6.7160   11.8440   16.3020 C.3       1 KJ1        -0.0510
     10 C07         6.5720   10.6210   17.2230 C.3       1 KJ1        -0.0361
     11 C08         7.4090   10.8690   18.4660 C.3       1 KJ1         0.0372
     12 C09         7.4190    9.6770   19.4100 C.2       1 KJ1         0.1760
     13 O10         6.4220    9.0340   19.6050 O.2       1 KJ1        -0.3971
     14 N11         8.6690    9.3460   20.0480 N.am      1 KJ1        -0.2870
     15 C12         8.7690    8.2040   20.9820 C.3       1 KJ1         0.0309
     16 C14        10.2740    6.1800   21.5920 C.3       1 KJ1        -0.0512
     17 C16        12.4900    4.7880   21.9490 C.3       1 KJ1        -0.0510
     18 C18        14.1040    2.9950   23.1470 C.3       1 KJ1         0.0370
     19 C19        15.5300    3.2000   22.6030 C.2       1 KJ1         0.1735
     20 N20        15.6200    4.0000   21.4060 N.am      1 KJ1        -0.3009
     21 O21        16.5490    2.7290   23.0810 O.2       1 KJ1        -0.3973
     22 H1         10.6842    7.7242   20.1250 H         1 KJ1         0.0285
     23 H2          9.3576    6.6011   19.6717 H         1 KJ1         0.0285
     24 H3         11.8912    6.6204   22.9602 H         1 KJ1         0.0265
     25 H4         12.3040    6.8325   21.2249 H         1 KJ1         0.0265
     26 H5         12.5872    4.2606   24.0288 H         1 KJ1         0.0290
     27 H6         14.0251    5.1409   23.4092 H         1 KJ1         0.0290
     28 H7          6.5624   11.7581   10.8029 H         1 KJ1         0.0230
     29 H8          7.1317   12.3157   12.4127 H         1 KJ1         0.0230
     30 H9          6.5168   13.5056   11.2158 H         1 KJ1         0.0230
     31 H10         4.8588   11.2951   12.5656 H         1 KJ1         0.0263
     32 H11         4.2439   12.4850   11.3687 H         1 KJ1         0.0263
     33 H12         3.7374   13.1360   13.7327 H         1 KJ1         0.0265
     34 H13         4.7684   14.3378   12.8846 H         1 KJ1         0.0265
     35 H14         5.6927   14.0117   15.0883 H         1 KJ1         0.0265
     36 H15         6.7874   13.2103   13.9110 H         1 KJ1         0.0265
     37 H16         5.8579   11.0006   14.4985 H         1 KJ1         0.0265
     38 H17         4.6655   11.7668   15.6020 H         1 KJ1         0.0265
     39 H18         6.5905   12.7563   16.9036 H         1 KJ1         0.0267
     40 H19         7.7214   11.8342   15.8559 H         1 KJ1         0.0267
     41 H20         6.9307    9.7193   16.7051 H         1 KJ1         0.0290
     42 H21         5.5169   10.4873   17.5039 H         1 KJ1         0.0290
     43 H22         6.9979   11.7383   19.0002 H         1 KJ1         0.0502
     44 H23         8.4430   11.0833   18.1578 H         1 KJ1         0.0502
     45 H24         9.4809    9.8973   19.8558 H         1 KJ1         0.1850
     46 H25         9.0705    8.5757   21.9724 H         1 KJ1         0.0520
     47 H26         7.7866    7.7149   21.0574 H         1 KJ1         0.0520
     48 H27        10.0220    5.1659   21.2484 H         1 KJ1         0.0266
     49 H28         9.7118    6.4065   22.5099 H         1 KJ1         0.0266
     50 H29        13.1836    4.7793   21.0953 H         1 KJ1         0.0267
     51 H30        11.7041    4.0349   21.7907 H         1 KJ1         0.0267
     52 H31        13.5726    2.2860   22.4951 H         1 KJ1         0.0502
     53 H32        14.1670    2.5813   24.1643 H         1 KJ1         0.0502
     54 H33        16.5117    4.1793   20.9903 H         1 KJ1         0.1814
     55 H34        14.7907    4.3753   20.9919 H         1 KJ1         0.1814
@<TRIPOS>BOND
     1   15    1 1  
     2    1   16 1  
     3   16    2 1  
     4    2   17 1  
     5   17    3 1  
     6    3   18 1  
     7    5    4 1  
     8    6    5 1  
     9    7    6 1  
    10    8    7 1  
    11    9    8 1  
    12   10    9 1  
    13   11   10 1  
    14   12   11 1  
    15   12   13 2  
    16   14   12 am 
    17   14   15 1  
    18   18   19 1  
    19   19   20 am 
    20   19   21 2  
    21    1   22 1  
    22    1   23 1  
    23    2   24 1  
    24    2   25 1  
    25    3   26 1  
    26    3   27 1  
    27    4   28 1  
    28    4   29 1  
    29    4   30 1  
    30    5   31 1  
    31    5   32 1  
    32    6   33 1  
    33    6   34 1  
    34    7   35 1  
    35    7   36 1  
    36    8   37 1  
    37    8   38 1  
    38    9   39 1  
    39    9   40 1  
    40   10   41 1  
    41   10   42 1  
    42   11   43 1  
    43   11   44 1  
    44   14   45 1  
    45   15   46 1  
    46   15   47 1  
    47   16   48 1  
    48   16   49 1  
    49   17   50 1  
    50   17   51 1  
    51   18   52 1  
    52   18   53 1  
    53   20   54 1  
    54   20   55 1  
@<TRIPOS>SUBSTRUCTURE
     1 KJ1         1

