### 
### Created by X-TOOL on Mon Aug  2 16:15:10 2021
### 

@<TRIPOS>MOLECULE
6n5g_ligand
   53    56     1     0     0
SMALL
GAST_HUCK


@<TRIPOS>ATOM
      1 C13        10.8460   84.6310  108.1160 C.ar      1 KDS        -0.0457
      2 C17         7.6870   89.3190  102.5010 C.3       1 KDS        -0.0279
      3 C20         4.8580   90.3260  100.4090 C.ar      1 KDS        -0.0126
      4 C21         3.5830   90.8010  100.7360 C.ar      1 KDS         0.0151
      5 C24         1.5460   89.4960   98.0170 C.ar      1 KDS        -0.0418
      6 C26         2.9150   88.2520   96.4660 C.ar      1 KDS        -0.0583
      7 C28         3.9200   89.2880   98.4350 C.ar      1 KDS        -0.0007
      8 O01         6.6180   85.7670  105.6040 O.2       1 KDS        -0.3915
      9 C02         7.4230   86.5340  105.1940 C.2       1 KDS         0.2867
     10 N03         8.8380   86.4180  105.5190 N.am      1 KDS        -0.2257
     11 C04         9.3900   85.3570  106.3510 C.ar      1 KDS         0.0559
     12 C05         9.0160   84.0460  106.1120 C.ar      1 KDS        -0.0494
     13 C06         9.5420   83.0250  106.8810 C.ar      1 KDS        -0.0457
     14 C07        10.4540   83.3230  107.8780 C.ar      1 KDS         0.0850
     15 O08        10.9900   82.2870  108.6410 O.3       1 KDS        -0.2361
     16 C09        12.2890   81.9620  108.2400 C.3       1 KDS         0.5436
     17 F10        12.5190   82.4670  106.9920 F         1 KDS        -0.1404
     18 F11        13.1770   82.4920  109.1310 F         1 KDS        -0.1404
     19 F12        12.4340   80.6090  108.1920 F         1 KDS        -0.1404
     20 C14        10.3140   85.6490  107.3430 C.ar      1 KDS        -0.0494
     21 N15         7.0200   87.6280  104.3270 N.am      1 KDS        -0.2547
     22 C16         8.0320   88.6160  103.8090 C.3       1 KDS         0.0351
     23 C18         6.2830   89.7670  102.5160 C.3       1 KDS        -0.0269
     24 C19         6.0560   90.6740  101.3020 C.3       1 KDS        -0.0104
     25 N22         2.5530   90.5090   99.9520 N.ar      1 KDS        -0.2983
     26 C23         2.7010   89.7670   98.8150 C.ar      1 KDS         0.0424
     27 C25         1.6660   88.7430   96.8550 C.ar      1 KDS        -0.0580
     28 C27         4.0430   88.5160   97.2420 C.ar      1 KDS        -0.0496
     29 C29         5.0570   89.5760   99.2510 C.ar      1 KDS        -0.0351
     30 C30         5.4100   88.5770  102.5650 C.3       1 KDS        -0.0279
     31 C31         5.5930   87.8810  103.9140 C.3       1 KDS         0.0351
     32 H1         11.5615   84.8545  108.8990 H         1 KDS         0.0506
     33 H2          7.8363   88.6214  101.6637 H         1 KDS         0.0289
     34 H3          8.3449   90.1913  102.3733 H         1 KDS         0.0289
     35 H4          3.4375   91.4042  101.6249 H         1 KDS         0.0834
     36 H5          0.5771   89.8777   98.3182 H         1 KDS         0.0639
     37 H6          3.0072   87.6649   95.5594 H         1 KDS         0.0635
     38 H7          9.4652   87.1044  105.1508 H         1 KDS         0.2218
     39 H8          8.3100   83.8198  105.3211 H         1 KDS         0.0477
     40 H9          9.2422   81.9984  106.7043 H         1 KDS         0.0506
     41 H10        10.6199   86.6749  107.5133 H         1 KDS         0.0477
     42 H11         8.1681   89.3899  104.5788 H         1 KDS         0.0520
     43 H12         8.9792   88.0771  103.6593 H         1 KDS         0.0520
     44 H13         6.1006   90.3602  103.4242 H         1 KDS         0.0325
     45 H14         5.9115   91.6997  101.6722 H         1 KDS         0.0439
     46 H15         6.9616   90.6332  100.6790 H         1 KDS         0.0439
     47 H16         0.7903   88.5365   96.2503 H         1 KDS         0.0634
     48 H17         5.0117   88.1352   96.9391 H         1 KDS         0.0635
     49 H18         6.0445   89.2220   98.9778 H         1 KDS         0.0680
     50 H19         5.6823   87.8861  101.7536 H         1 KDS         0.0289
     51 H20         4.3604   88.8845  102.4480 H         1 KDS         0.0289
     52 H21         5.1235   88.5091  104.6854 H         1 KDS         0.0520
     53 H22         5.0770   86.9107  103.8671 H         1 KDS         0.0520
@<TRIPOS>BOND
     1    1   14 ar 
     2   20    1 ar 
     3    2   22 1  
     4   23    2 1  
     5    3    4 ar 
     6   24    3 1  
     7    3   29 ar 
     8    4   25 ar 
     9   26    5 ar 
    10    5   27 ar 
    11    6   27 ar 
    12   28    6 ar 
    13    7   26 ar 
    14    7   28 ar 
    15   29    7 ar 
    16    9    8 2  
    17    9   10 am 
    18   21    9 am 
    19   10   11 1  
    20   11   12 ar 
    21   11   20 ar 
    22   12   13 ar 
    23   13   14 ar 
    24   14   15 1  
    25   15   16 1  
    26   16   17 1  
    27   16   18 1  
    28   16   19 1  
    29   22   21 1  
    30   21   31 1  
    31   23   24 1  
    32   23   30 1  
    33   25   26 ar 
    34   30   31 1  
    35    1   32 1  
    36    2   33 1  
    37    2   34 1  
    38    4   35 1  
    39    5   36 1  
    40    6   37 1  
    41   10   38 1  
    42   12   39 1  
    43   13   40 1  
    44   20   41 1  
    45   22   42 1  
    46   22   43 1  
    47   23   44 1  
    48   24   45 1  
    49   24   46 1  
    50   27   47 1  
    51   28   48 1  
    52   29   49 1  
    53   30   50 1  
    54   30   51 1  
    55   31   52 1  
    56   31   53 1  
@<TRIPOS>SUBSTRUCTURE
     1 KDS         1

