### 
### Created by X-TOOL on Mon Aug  2 16:15:11 2021
### 

@<TRIPOS>MOLECULE
6n5h_ligand
   61    65     1     0     0
SMALL
GAST_HUCK


@<TRIPOS>ATOM
      1 C22        15.2980  -30.1890  -18.4640 C.ar      1 AUB        -0.0562
      2 C24        14.1940  -31.7370  -16.9840 C.ar      1 AUB        -0.0562
      3 C21        14.0680  -29.7180  -18.8970 C.ar      1 AUB        -0.0292
      4 C25        12.9700  -31.2680  -17.4160 C.ar      1 AUB        -0.0292
      5 C23        15.3520  -31.1910  -17.5070 C.ar      1 AUB        -0.0010
      6 C20        12.9030  -30.2620  -18.3690 C.ar      1 AUB         0.0948
      7 C28        16.6850  -31.7290  -17.0110 C.2       1 AUB         0.0557
      8 C26         8.6480  -25.2230  -22.4460 C.2       1 AUB         0.2581
      9 C14        10.0810  -27.7270  -21.4330 C.3       1 AUB        -0.0274
     10 C12        10.7110  -26.3050  -19.4740 C.3       1 AUB        -0.0274
     11 C15        10.5780  -28.9770  -20.7010 C.3       1 AUB        -0.0200
     12 C17        11.1170  -27.5490  -18.6900 C.3       1 AUB        -0.0200
     13 C6          8.5900  -22.6450  -27.0490 C.3       1 AUB        -0.0472
     14 C9          6.6560  -21.5640  -25.8120 C.3       1 AUB        -0.0472
     15 C4          6.3950  -23.8490  -26.6550 C.3       1 AUB        -0.0472
     16 C2          8.7470  -22.1030  -24.6440 C.3       1 AUB        -0.0244
     17 C10         8.5960  -24.3680  -25.5420 C.3       1 AUB        -0.0244
     18 C8          6.6760  -23.4040  -24.2340 C.3       1 AUB        -0.0244
     19 C1          8.2130  -21.6250  -25.9470 C.3       1 AUB        -0.0382
     20 C5          7.8190  -24.0150  -26.8620 C.3       1 AUB        -0.0382
     21 C3          6.0770  -22.9450  -25.4720 C.3       1 AUB        -0.0382
     22 C13         9.6350  -26.5830  -20.5210 C.3       1 AUB         0.0426
     23 C16        11.5890  -28.6920  -19.5790 C.3       1 AUB         0.0822
     24 C7          8.1800  -23.5060  -24.3680 C.3       1 AUB         0.0542
     25 N18         9.6380  -25.4510  -21.4180 N.am      1 AUB        -0.2701
     26 N11         8.9020  -24.0240  -23.2240 N.am      1 AUB        -0.2671
     27 O29        16.6940  -32.8140  -16.3780 O.co2     1 AUB        -0.5636
     28 O27         7.7070  -25.9430  -22.5950 O.2       1 AUB        -0.4008
     29 O30        17.7550  -31.1050  -17.2360 O.co2     1 AUB        -0.5636
     30 O19        11.6310  -29.8400  -18.7660 O.3       1 AUB        -0.3127
     31 H1         16.2134  -29.7758  -18.8718 H         1 AUB         0.0623
     32 H2         14.2472  -32.5255  -16.2421 H         1 AUB         0.0623
     33 H3         14.0153  -28.9318  -19.6414 H         1 AUB         0.0551
     34 H4         12.0571  -31.6875  -17.0089 H         1 AUB         0.0551
     35 H5          9.2260  -28.0162  -22.0618 H         1 AUB         0.0288
     36 H6         10.8971  -27.3572  -22.0712 H         1 AUB         0.0288
     37 H7         11.6006  -25.9061  -19.9834 H         1 AUB         0.0288
     38 H8         10.3263  -25.5553  -18.7669 H         1 AUB         0.0288
     39 H9         11.0574  -29.6395  -21.4367 H         1 AUB         0.0295
     40 H10         9.7086  -29.4868  -20.2602 H         1 AUB         0.0295
     41 H11        10.2495  -27.8941  -18.1083 H         1 AUB         0.0295
     42 H12        11.9340  -27.2790  -18.0048 H         1 AUB         0.0295
     43 H13         9.6725  -22.8354  -27.0042 H         1 AUB         0.0271
     44 H14         8.3325  -22.2214  -28.0310 H         1 AUB         0.0271
     45 H15         6.2260  -21.2184  -26.7636 H         1 AUB         0.0271
     46 H16         6.3920  -20.8567  -25.0120 H         1 AUB         0.0271
     47 H17         5.9478  -24.8374  -26.4733 H         1 AUB         0.0271
     48 H18         5.9559  -23.4091  -27.5626 H         1 AUB         0.0271
     49 H19         8.4402  -21.4148  -23.8426 H         1 AUB         0.0293
     50 H20         9.8452  -22.1489  -24.6876 H         1 AUB         0.0293
     51 H21         9.6723  -24.2254  -25.7188 H         1 AUB         0.0293
     52 H22         8.4020  -25.4212  -25.2909 H         1 AUB         0.0293
     53 H23         6.2688  -24.3943  -23.9822 H         1 AUB         0.0293
     54 H24         6.4333  -22.6926  -23.4309 H         1 AUB         0.0293
     55 H25         8.6192  -20.6326  -26.1922 H         1 AUB         0.0302
     56 H26         7.9925  -24.7308  -27.6790 H         1 AUB         0.0302
     57 H27         4.9866  -22.8815  -25.3417 H         1 AUB         0.0302
     58 H28         8.6543  -26.7694  -20.0589 H         1 AUB         0.0553
     59 H29        12.5784  -28.4657  -20.0032 H         1 AUB         0.0651
     60 H30        10.3737  -24.7806  -21.3214 H         1 AUB         0.1848
     61 H31         9.6863  -23.4785  -22.9284 H         1 AUB         0.1851
@<TRIPOS>BOND
     1    3    1 ar 
     2    1    5 ar 
     3    4    2 ar 
     4    2    5 ar 
     5    6    3 ar 
     6    6    4 ar 
     7    5    7 1  
     8   30    6 1  
     9    7   27 ar 
    10    7   29 ar 
    11    8   25 am 
    12   26    8 am 
    13    8   28 2  
    14    9   11 1  
    15   22    9 1  
    16   10   12 1  
    17   22   10 1  
    18   11   23 1  
    19   12   23 1  
    20   19   13 1  
    21   20   13 1  
    22   19   14 1  
    23   21   14 1  
    24   20   15 1  
    25   21   15 1  
    26   16   19 1  
    27   24   16 1  
    28   17   20 1  
    29   24   17 1  
    30   18   21 1  
    31   24   18 1  
    32   25   22 1  
    33   23   30 1  
    34   24   26 1  
    35    1   31 1  
    36    2   32 1  
    37    3   33 1  
    38    4   34 1  
    39    9   35 1  
    40    9   36 1  
    41   10   37 1  
    42   10   38 1  
    43   11   39 1  
    44   11   40 1  
    45   12   41 1  
    46   12   42 1  
    47   13   43 1  
    48   13   44 1  
    49   14   45 1  
    50   14   46 1  
    51   15   47 1  
    52   15   48 1  
    53   16   49 1  
    54   16   50 1  
    55   17   51 1  
    56   17   52 1  
    57   18   53 1  
    58   18   54 1  
    59   19   55 1  
    60   20   56 1  
    61   21   57 1  
    62   22   58 1  
    63   23   59 1  
    64   25   60 1  
    65   26   61 1  
@<TRIPOS>SUBSTRUCTURE
     1 AUB         1

