### 
### Created by X-TOOL on Mon Aug  2 16:15:11 2021
### 

@<TRIPOS>MOLECULE
6n5x_ligand
   23    22     1     0     0
SMALL
GAST_HUCK


@<TRIPOS>ATOM
      1 OH         16.4070   69.8150   50.5230 O.3       1 JEF        -0.3898
      2 C2         16.3170   71.1380   50.0770 C.3       1 JEF         0.0757
      3 C1         17.4160   71.9710   50.7310 C.3       1 JEF        -0.0368
      4 C3         14.9550   71.7130   50.4550 C.3       1 JEF         0.0738
      5 O2         13.9610   71.1260   49.6570 O.3       1 JEF        -0.3720
      6 C5         13.7690   71.7040   48.3950 C.3       1 JEF         0.0790
      7 C6         12.8280   70.8210   47.5790 C.3       1 JEF        -0.0365
      8 C4         13.1540   73.0970   48.5270 C.3       1 JEF         0.0701
      9 O3         12.5110   73.4290   47.3300 O.3       1 JEF        -0.3925
     10 H1         15.7226   69.2973   50.1154 H         1 JEF         0.2099
     11 H2         16.4364   71.1653   48.9839 H         1 JEF         0.0613
     12 H3         17.3453   73.0112   50.3804 H         1 JEF         0.0255
     13 H4         18.3991   71.5587   50.4599 H         1 JEF         0.0255
     14 H5         17.2956   71.9435   51.8240 H         1 JEF         0.0255
     15 H6         14.9590   72.8011   50.2941 H         1 JEF         0.0585
     16 H7         14.7482   71.4997   51.5141 H         1 JEF         0.0585
     17 H8         14.7385   71.7828   47.8813 H         1 JEF         0.0616
     18 H9         12.6730   71.2694   46.5866 H         1 JEF         0.0255
     19 H10        11.8619   70.7367   48.0982 H         1 JEF         0.0255
     20 H11        13.2711   69.8208   47.4643 H         1 JEF         0.0255
     21 H12        13.9462   73.8311   48.7354 H         1 JEF         0.0583
     22 H13        12.4245   73.1011   49.3503 H         1 JEF         0.0583
     23 H14        12.1271   74.2945   47.4075 H         1 JEF         0.2095
@<TRIPOS>BOND
     1    1    2 1  
     2    2    3 1  
     3    2    4 1  
     4    4    5 1  
     5    5    6 1  
     6    6    7 1  
     7    6    8 1  
     8    8    9 1  
     9    1   10 1  
    10    2   11 1  
    11    3   12 1  
    12    3   13 1  
    13    3   14 1  
    14    4   15 1  
    15    4   16 1  
    16    6   17 1  
    17    7   18 1  
    18    7   19 1  
    19    7   20 1  
    20    8   21 1  
    21    8   22 1  
    22    9   23 1  
@<TRIPOS>SUBSTRUCTURE
     1 JEF         1

