### 
### Created by X-TOOL on Mon Aug  2 16:12:03 2021
### 

@<TRIPOS>MOLECULE
6n69_ligand
   18    19     1     0     0
SMALL
GAST_HUCK


@<TRIPOS>ATOM
      1 C2         12.0290    8.4170  -16.5510 C.1       1 KDV         0.1068
      2 C3         11.3700    7.1960  -16.1620 C.ar      1 KDV         0.1248
      3 C6         10.1340    4.8980  -15.2840 C.ar      1 KDV         0.0524
      4 C7          9.5020    3.7200  -14.8300 C.ar      1 KDV        -0.0358
      5 C8          8.9690    2.8190  -15.7250 C.ar      1 KDV        -0.0530
      6 C10         9.6610    4.1980  -17.5620 C.ar      1 KDV        -0.0413
      7 C11        10.2180    5.1460  -16.6750 C.ar      1 KDV         0.0192
      8 C12        10.8520    6.3240  -17.1140 C.ar      1 KDV         0.0024
      9 N1         12.5670    9.4070  -16.8070 N.1       1 KDV        -0.3274
     10 C4         11.2450    6.8760  -14.8110 C.ar      1 KDV         0.0424
     11 N5         10.6500    5.7660  -14.3590 N.ar      1 KDV        -0.2879
     12 C9          9.0480    3.0560  -17.0860 C.ar      1 KDV        -0.0527
     13 H1          9.4356    3.5227  -13.7662 H         1 KDV         0.0651
     14 H2          8.4852    1.9197  -15.3614 H         1 KDV         0.0676
     15 H3          9.7156    4.3695  -18.6310 H         1 KDV         0.0680
     16 H4         10.9347    6.5467  -18.1716 H         1 KDV         0.0908
     17 H5         11.6541    7.5675  -14.0833 H         1 KDV         0.0936
     18 H6          8.6261    2.3407  -17.7827 H         1 KDV         0.0650
@<TRIPOS>BOND
     1    2    1 1  
     2    1    9 3  
     3    8    2 ar 
     4    2   10 ar 
     5    3    4 ar 
     6    7    3 ar 
     7    3   11 ar 
     8    4    5 ar 
     9   12    5 ar 
    10    7    6 ar 
    11    6   12 ar 
    12    7    8 ar 
    13   10   11 ar 
    14    4   13 1  
    15    5   14 1  
    16    6   15 1  
    17    8   16 1  
    18   10   17 1  
    19   12   18 1  
@<TRIPOS>SUBSTRUCTURE
     1 KDV         1

