### 
### Created by X-TOOL on Mon Aug  2 16:15:11 2021
### 

@<TRIPOS>MOLECULE
6n6o_ligand
   67    70     1     0     0
SMALL
GAST_HUCK


@<TRIPOS>ATOM
      1 C1        -18.8730   40.6240  141.7840 C.ar      1 KE7         0.1760
      2 C2        -16.7750   41.1200  140.9160 C.ar      1 KE7         0.1642
      3 C3        -14.9380   40.4020  142.1480 C.3       1 KE7         0.0886
      4 C4        -17.3810   41.6370  139.7810 C.ar      1 KE7         0.0577
      5 C5        -18.7570   41.6290  139.6880 C.ar      1 KE7         0.1245
      6 C6        -17.9860   42.5140  137.8600 C.2       1 KE7         0.0349
      7 N1        -17.5390   40.6320  141.8960 N.ar      1 KE7        -0.2422
      8 N2        -19.0900   42.1560  138.5170 N.pl3     1 KE7        -0.2698
      9 N3        -19.4800   41.1240  140.6900 N.ar      1 KE7        -0.2623
     10 O1        -15.4260   41.1280  141.0280 O.3       1 KE7        -0.2904
     11 C7        -16.9340   42.2110  138.6060 C.2       1 KE7         0.0401
     12 C8        -13.6790   41.1480  142.5580 C.3       1 KE7        -0.0184
     13 C9        -12.8610   40.3800  143.5970 C.3       1 KE7        -0.0215
     14 C10       -12.4980   38.9780  143.1220 C.3       1 KE7         0.0635
     15 C11       -13.7660   38.2480  142.6790 C.3       1 KE7        -0.0215
     16 C12       -14.5380   39.0340  141.6250 C.3       1 KE7        -0.0184
     17 C13       -11.8270   38.2120  144.2660 C.3       1 KE7        -0.0361
     18 C14       -19.1260   39.5140  143.8450 C.ar      1 KE7         0.0998
     19 C15       -18.0560   38.6360  143.7640 C.ar      1 KE7        -0.0400
     20 O2        -11.6270   39.0700  141.9980 O.3       1 KE7        -0.3888
     21 CL1       -15.2810   42.5030  138.1570 Cl        1 KE7        -0.1051
     22 N4        -19.6230   40.1300  142.7690 N.pl3     1 KE7        -0.2502
     23 C16       -17.5980   38.0140  144.9210 C.ar      1 KE7        -0.0624
     24 C17       -18.1920   38.2710  146.1570 C.ar      1 KE7         0.0290
     25 C20       -17.6880   37.5780  147.4390 C.2       1 KE7         0.1956
     26 O3        -18.5020   37.0820  148.2110 O.2       1 KE7        -0.3901
     27 N5        -16.3670   37.5150  147.6350 N.am      1 KE7        -0.2804
     28 C22       -15.4420   38.1170  146.6680 C.3       1 KE7         0.0215
     29 C21       -15.8610   36.8330  148.8280 C.3       1 KE7         0.0215
     30 C18       -19.2670   39.1480  146.2310 C.ar      1 KE7        -0.0226
     31 C19       -19.7300   39.7630  145.0750 C.ar      1 KE7         0.1215
     32 O4        -20.7640   40.6460  145.0710 O.3       1 KE7        -0.3091
     33 C23       -21.5900   40.7690  146.2220 C.3       1 KE7         0.1705
     34 C24       -22.9960   41.0300  145.6650 C.3       1 KE7        -0.0261
     35 C25       -21.1360   42.0170  146.9680 C.3       1 KE7         0.4193
     36 F2        -21.1840   43.0750  146.1480 F         1 KE7        -0.1676
     37 F3        -19.8960   41.8290  147.4240 F         1 KE7        -0.1676
     38 F1        -21.9610   42.2170  147.9820 F         1 KE7        -0.1676
     39 H1        -15.6704   40.3332  142.9658 H         1 KE7         0.0664
     40 H2        -17.9546   42.9778  136.8752 H         1 KE7         0.0899
     41 H3        -20.0526   42.2709  138.1690 H         1 KE7         0.2306
     42 H4        -13.9670   42.1207  142.9833 H         1 KE7         0.0296
     43 H5        -13.0562   41.3079  141.6655 H         1 KE7         0.0296
     44 H6        -13.4501   40.2990  144.5224 H         1 KE7         0.0294
     45 H7        -11.9340   40.9364  143.7999 H         1 KE7         0.0294
     46 H8        -14.4138   38.0975  143.5552 H         1 KE7         0.0294
     47 H9        -13.4851   37.2711  142.2586 H         1 KE7         0.0294
     48 H10       -13.9037   39.1608  140.7353 H         1 KE7         0.0296
     49 H11       -15.4448   38.4744  141.3521 H         1 KE7         0.0296
     50 H12       -10.9161   38.7436  144.5785 H         1 KE7         0.0257
     51 H13       -11.5622   37.2005  143.9243 H         1 KE7         0.0257
     52 H14       -12.5207   38.1418  145.1168 H         1 KE7         0.0257
     53 H15       -17.5817   38.4365  142.8099 H         1 KE7         0.0517
     54 H16       -10.8306   39.5215  142.2520 H         1 KE7         0.2101
     55 H17       -20.6456   40.2291  142.6962 H         1 KE7         0.2149
     56 H18       -16.7677   37.3197  144.8614 H         1 KE7         0.0549
     57 H19       -14.4066   37.9605  147.0047 H         1 KE7         0.0485
     58 H20       -15.6433   39.1956  146.5905 H         1 KE7         0.0485
     59 H21       -15.5826   37.6461  145.6839 H         1 KE7         0.0485
     60 H22       -16.7070   36.4540  149.4202 H         1 KE7         0.0485
     61 H23       -15.2765   37.5404  149.4346 H         1 KE7         0.0485
     62 H24       -15.2195   35.9922  148.5254 H         1 KE7         0.0485
     63 H25       -19.7411   39.3509  147.1845 H         1 KE7         0.0554
     64 H26       -21.5547   39.8754  146.8625 H         1 KE7         0.0733
     65 H27       -23.7060   41.1389  146.4981 H         1 KE7         0.0261
     66 H28       -23.3019   40.1849  145.0307 H         1 KE7         0.0261
     67 H29       -22.9880   41.9532  145.0670 H         1 KE7         0.0261
@<TRIPOS>BOND
     1    1    7 ar 
     2    1    9 ar 
     3   22    1 1  
     4    2    4 ar 
     5    7    2 ar 
     6    2   10 1  
     7   10    3 1  
     8    3   12 1  
     9    3   16 1  
    10    5    4 ar 
    11    4   11 1  
    12    5    8 1  
    13    9    5 ar 
    14    8    6 1  
    15    6   11 2  
    16   11   21 1  
    17   12   13 1  
    18   13   14 1  
    19   15   14 1  
    20   14   17 1  
    21   14   20 1  
    22   16   15 1  
    23   18   19 ar 
    24   18   22 1  
    25   18   31 ar 
    26   19   23 ar 
    27   23   24 ar 
    28   24   25 1  
    29   24   30 ar 
    30   25   26 2  
    31   25   27 am 
    32   27   28 1  
    33   27   29 1  
    34   30   31 ar 
    35   31   32 1  
    36   32   33 1  
    37   33   34 1  
    38   33   35 1  
    39   35   36 1  
    40   35   37 1  
    41   35   38 1  
    42    3   39 1  
    43    6   40 1  
    44    8   41 1  
    45   12   42 1  
    46   12   43 1  
    47   13   44 1  
    48   13   45 1  
    49   15   46 1  
    50   15   47 1  
    51   16   48 1  
    52   16   49 1  
    53   17   50 1  
    54   17   51 1  
    55   17   52 1  
    56   19   53 1  
    57   20   54 1  
    58   22   55 1  
    59   23   56 1  
    60   28   57 1  
    61   28   58 1  
    62   28   59 1  
    63   29   60 1  
    64   29   61 1  
    65   29   62 1  
    66   30   63 1  
    67   33   64 1  
    68   34   65 1  
    69   34   66 1  
    70   34   67 1  
@<TRIPOS>SUBSTRUCTURE
     1 KE7         1

