### 
### Created by X-TOOL on Mon Aug  2 16:15:11 2021
### 

@<TRIPOS>MOLECULE
6n77_ligand
   42    45     1     0     0
SMALL
GAST_HUCK


@<TRIPOS>ATOM
      1 C4          5.8040  -22.5270   22.3890 C.ar      1 KEJ         0.0159
      2 C14         4.6380  -27.7720   22.6750 C.2       1 KEJ         0.1864
      3 C5          5.1680  -21.4220   22.9750 C.ar      1 KEJ        -0.0505
      4 C6          4.0420  -20.8820   22.3840 C.ar      1 KEJ         0.0273
      5 C11         6.8420  -26.8630   23.7130 C.2       1 KEJ         0.1912
      6 C7          3.5150  -21.4020   21.2180 C.ar      1 KEJ        -0.0582
      7 C8          4.1340  -22.4910   20.6230 C.ar      1 KEJ        -0.0329
      8 C9          5.2710  -23.0520   21.1980 C.ar      1 KEJ         0.0990
      9 C10         5.6040  -24.5540   19.3540 C.3       1 KEJ         0.0600
     10 C12         5.8290  -27.9410   23.4090 C.2       1 KEJ         0.0783
     11 C13         5.8580  -29.3150   23.7170 C.2       1 KEJ         0.0043
     12 N1          8.0130  -22.2570   23.3460 N.2       1 KEJ        -0.2226
     13 N2          6.5530  -25.6120   23.2140 N.am      1 KEJ        -0.2583
     14 C3          7.0140  -23.0860   23.0370 C.2       1 KEJ         0.0605
     15 N3          4.8100  -29.9760   23.2370 N.2       1 KEJ        -0.2029
     16 O1          7.8760  -27.1130   24.3390 O.2       1 KEJ        -0.4018
     17 N5          4.0910  -26.6720   22.0990 N.2       1 KEJ        -0.2613
     18 C15         2.9470  -26.8730   21.4560 C.2       1 KEJ         0.0175
     19 C16         2.2980  -28.1240   21.3500 C.2       1 KEJ         0.0107
     20 C17         2.8770  -29.2060   21.9230 C.2       1 KEJ         0.1171
     21 N4          4.0610  -29.0140   22.5930 N.pl3     1 KEJ        -0.1273
     22 C2          7.3600  -24.4570   23.3630 C.2       1 KEJ         0.0812
     23 C1          8.6300  -24.3580   23.8610 C.2       1 KEJ         0.0610
     24 N           8.9800  -23.0680   23.8500 N.pl3     1 KEJ        -0.2270
     25 C          10.2260  -22.4830   24.3290 C.3       1 KEJ         0.0541
     26 O           5.9260  -24.1390   20.6840 O.3       1 KEJ        -0.3196
     27 CL          3.2400  -19.5390   23.1590 Cl        1 KEJ        -0.0813
     28 H1          5.5596  -20.9927   23.8901 H         1 KEJ         0.0580
     29 H2          2.6285  -20.9643   20.7735 H         1 KEJ         0.0581
     30 H3          3.7310  -22.9070   19.7067 H         1 KEJ         0.0537
     31 H4          6.2091  -25.4331   19.0876 H         1 KEJ         0.0579
     32 H5          5.8188  -23.7348   18.6521 H         1 KEJ         0.0579
     33 H6          4.5365  -24.8134   19.2992 H         1 KEJ         0.0579
     34 H7          6.6560  -29.7864   24.2888 H         1 KEJ         0.0692
     35 H8          5.6999  -25.5102   22.7023 H         1 KEJ         0.2117
     36 H9          2.4765  -26.0153   20.9775 H         1 KEJ         0.1000
     37 H10         1.3519  -28.2160   20.8186 H         1 KEJ         0.0622
     38 H11         2.4206  -30.1924   21.8551 H         1 KEJ         0.1382
     39 H12         9.2480  -25.1855   24.2062 H         1 KEJ         0.0763
     40 H13        10.8871  -23.2806   24.6990 H         1 KEJ         0.0594
     41 H14        10.0101  -21.7777   25.1451 H         1 KEJ         0.0594
     42 H15        10.7213  -21.9493   23.5045 H         1 KEJ         0.0594
@<TRIPOS>BOND
     1    1    3 ar 
     2    1    8 ar 
     3   14    1 1  
     4   10    2 2  
     5    2   17 1  
     6    2   21 1  
     7    3    4 ar 
     8    4    6 ar 
     9    4   27 1  
    10    5   10 1  
    11   13    5 am 
    12    5   16 2  
    13    7    6 ar 
    14    8    7 ar 
    15    8   26 1  
    16   26    9 1  
    17   10   11 1  
    18   11   15 2  
    19   14   12 2  
    20   12   24 1  
    21   22   13 1  
    22   14   22 1  
    23   15   21 1  
    24   17   18 2  
    25   18   19 1  
    26   19   20 2  
    27   20   21 1  
    28   22   23 2  
    29   23   24 1  
    30   24   25 1  
    31    3   28 1  
    32    6   29 1  
    33    7   30 1  
    34    9   31 1  
    35    9   32 1  
    36    9   33 1  
    37   11   34 1  
    38   13   35 1  
    39   18   36 1  
    40   19   37 1  
    41   20   38 1  
    42   23   39 1  
    43   25   40 1  
    44   25   41 1  
    45   25   42 1  
@<TRIPOS>SUBSTRUCTURE
     1 KEJ         1

