### 
### Created by X-TOOL on Mon Aug  2 16:15:11 2021
### 

@<TRIPOS>MOLECULE
6n78_ligand
   42    45     1     0     0
SMALL
GAST_HUCK


@<TRIPOS>ATOM
      1 C4        -22.7390    3.5480   -1.5710 C.ar      1 KEP         0.0161
      2 C14       -27.7890    4.9520   -1.0160 C.2       1 KEP         0.1864
      3 C5        -21.6070    4.1580   -1.0120 C.ar      1 KEP        -0.0505
      4 C6        -21.0600    5.2750   -1.6140 C.ar      1 KEP         0.0273
      5 C11       -26.9530    2.6630   -0.0860 C.2       1 KEP         0.1912
      6 C7        -21.6270    5.8460   -2.7400 C.ar      1 KEP        -0.0582
      7 C8        -22.7620    5.2760   -3.2880 C.ar      1 KEP        -0.0326
      8 C9        -23.3100    4.1290   -2.7200 C.ar      1 KEP         0.1057
      9 C10       -24.4670    3.0870   -4.5040 C.3       1 KEP         0.3669
     10 C12       -27.9570    3.7250   -0.3650 C.2       1 KEP         0.0783
     11 C13       -29.3280    3.6690   -0.0600 C.2       1 KEP         0.0043
     12 N1        -22.4440    1.2690   -0.7660 N.2       1 KEP        -0.2226
     13 N2        -25.6850    2.9020   -0.5590 N.am      1 KEP        -0.2583
     14 C3        -23.2630    2.3060   -0.9550 C.2       1 KEP         0.0605
     15 N3        -29.9900    4.7370   -0.4770 N.2       1 KEP        -0.2029
     16 O1        -27.2740    1.6470    0.5330 O.2       1 KEP        -0.4018
     17 N5        -26.6970    5.5270   -1.5830 N.2       1 KEP        -0.2613
     18 C15       -26.9230    6.6630   -2.2320 C.2       1 KEP         0.0175
     19 C16       -28.1980    7.2780   -2.3590 C.2       1 KEP         0.0107
     20 C17       -29.2630    6.6940   -1.7640 C.2       1 KEP         0.1171
     21 N4        -29.0390    5.5180   -1.0820 N.pl3     1 KEP        -0.1273
     22 C2        -24.5840    2.0030   -0.5370 C.2       1 KEP         0.0812
     23 C1        -24.5160    0.7120   -0.0890 C.2       1 KEP         0.0610
     24 N         -23.2460    0.3130   -0.2280 N.pl3     1 KEP        -0.2270
     25 C         -22.6700   -0.9680    0.1650 C.3       1 KEP         0.0541
     26 O         -24.4510    3.5260   -3.2070 O.3       1 KEP        -0.2548
     27 F1        -24.9480    4.0400   -5.3030 F         1 KEP        -0.1736
     28 F         -25.2500    2.0280   -4.7080 F         1 KEP        -0.1736
     29 CL        -19.5860    5.9500   -0.9690 Cl        1 KEP        -0.0813
     30 H1        -21.1620    3.7543   -0.1097 H         1 KEP         0.0580
     31 H2        -21.1867    6.7298   -3.1874 H         1 KEP         0.0581
     32 H3        -23.2252    5.7227   -4.1604 H         1 KEP         0.0537
     33 H4        -23.4366    2.8361   -4.7959 H         1 KEP         0.1421
     34 H5        -29.7956    2.8363    0.4633 H         1 KEP         0.0692
     35 H6        -25.5195    3.8027   -0.9607 H         1 KEP         0.2117
     36 H7        -26.0728    7.1577   -2.6993 H         1 KEP         0.1000
     37 H8        -28.3151    8.2014   -2.9243 H         1 KEP         0.0622
     38 H9        -30.2569    7.1353   -1.8216 H         1 KEP         0.1382
     39 H10       -25.3403    0.1203    0.3064 H         1 KEP         0.0763
     40 H11       -23.4592   -1.6137    0.5776 H         1 KEP         0.0594
     41 H12       -21.8951   -0.8030    0.9281 H         1 KEP         0.0594
     42 H13       -22.2214   -1.4535   -0.7142 H         1 KEP         0.0594
@<TRIPOS>BOND
     1    1    3 ar 
     2    1    8 ar 
     3   14    1 1  
     4   10    2 2  
     5    2   17 1  
     6    2   21 1  
     7    3    4 ar 
     8    4    6 ar 
     9    4   29 1  
    10    5   10 1  
    11   13    5 am 
    12    5   16 2  
    13    7    6 ar 
    14    8    7 ar 
    15    8   26 1  
    16   26    9 1  
    17    9   27 1  
    18    9   28 1  
    19   10   11 1  
    20   11   15 2  
    21   14   12 2  
    22   12   24 1  
    23   22   13 1  
    24   14   22 1  
    25   15   21 1  
    26   17   18 2  
    27   18   19 1  
    28   19   20 2  
    29   20   21 1  
    30   22   23 2  
    31   23   24 1  
    32   24   25 1  
    33    3   30 1  
    34    6   31 1  
    35    7   32 1  
    36    9   33 1  
    37   11   34 1  
    38   13   35 1  
    39   18   36 1  
    40   19   37 1  
    41   20   38 1  
    42   23   39 1  
    43   25   40 1  
    44   25   41 1  
    45   25   42 1  
@<TRIPOS>SUBSTRUCTURE
     1 KEP         1

