### 
### Created by X-TOOL on Mon Aug  2 16:15:11 2021
### 

@<TRIPOS>MOLECULE
6n79_ligand
   39    42     1     0     0
SMALL
GAST_HUCK


@<TRIPOS>ATOM
      1 C4         22.2370  199.0150   17.7490 C.2       1 KES         0.0043
      2 C14        19.0190  192.5560   16.0910 C.ar      1 KES        -0.0359
      3 C5         20.5200  198.8290   14.7260 C.2       1 KES         0.1171
      4 C6         22.2000  196.6220   18.7790 C.2       1 KES         0.1934
      5 C11        21.2140  191.3260   17.2740 C.ar      1 KES        -0.0530
      6 C7         21.7400  194.2850   19.4050 C.2       1 KES         0.0862
      7 C8         22.1590  194.2490   20.7660 C.2       1 KES         0.0250
      8 C9         21.2990  192.9730   19.1080 C.2       1 KES         0.1005
      9 C10        20.6770  192.4720   17.8640 C.ar      1 KES         0.0270
     10 C12        20.6450  190.8160   16.1270 C.ar      1 KES         0.0237
     11 C13        19.5650  191.4200   15.5210 C.ar      1 KES        -0.0616
     12 N1         21.7700  199.6520   16.6840 N.2       1 KES        -0.2029
     13 N2         21.2190  198.6630   15.9020 N.pl3     1 KES        -0.1273
     14 C3         22.0060  197.6320   17.7010 C.2       1 KES         0.0788
     15 N3         21.7770  195.3510   18.4750 N.am      1 KES        -0.2551
     16 CL         21.2810  189.3470   15.4520 Cl        1 KES        -0.0821
     17 C15        19.5630  193.0750   17.2560 C.ar      1 KES         0.1036
     18 O1         19.0720  194.2100   17.8570 O.3       1 KES        -0.2565
     19 C16        17.8100  194.1910   18.3170 C.3       1 KES         0.3666
     20 F1         17.8010  194.5440   19.5870 F         1 KES        -0.1736
     21 F          16.9180  194.7240   17.4740 F         1 KES        -0.1736
     22 N5         21.4750  192.2040   20.1890 N.pl3     1 KES        -0.2292
     23 N4         21.9840  192.9880   21.1650 N.2       1 KES        -0.2256
     24 O          22.6600  196.9430   19.8760 O.2       1 KES        -0.4007
     25 C          20.0050  197.7260   14.1400 C.2       1 KES         0.0107
     26 C2         21.3820  197.4220   16.4630 C.2       1 KES         0.1864
     27 N          20.9150  196.2850   15.8740 N.2       1 KES        -0.2613
     28 C1         20.2450  196.4630   14.7410 C.2       1 KES         0.0175
     29 H1         22.7458  199.5125   18.5734 H         1 KES         0.0692
     30 H2         18.1669  193.0399   15.6275 H         1 KES         0.0525
     31 H3         20.3873  199.8155   14.2842 H         1 KES         0.1382
     32 H4         22.0755  190.8391   17.7166 H         1 KES         0.0549
     33 H5         22.5426  195.0787   21.3580 H         1 KES         0.0632
     34 H6         19.1481  191.0098   14.6083 H         1 KES         0.0554
     35 H7         21.4767  195.1677   17.5389 H         1 KES         0.2148
     36 H8         17.5289  193.1277   18.3364 H         1 KES         0.1421
     37 H9         21.2617  191.1991   20.2635 H         1 KES         0.2451
     38 H10        19.4182  197.8044   13.2260 H         1 KES         0.0622
     39 H11        19.8532  195.5796   14.2391 H         1 KES         0.1000
@<TRIPOS>BOND
     1   12    1 2  
     2    1   14 1  
     3    2   11 ar 
     4   17    2 ar 
     5   13    3 1  
     6    3   25 2  
     7   14    4 1  
     8    4   15 am 
     9    4   24 2  
    10    9    5 ar 
    11    5   10 ar 
    12    6    7 1  
    13    6    8 2  
    14   15    6 1  
    15    7   23 2  
    16    8    9 1  
    17    8   22 1  
    18    9   17 ar 
    19   10   11 ar 
    20   10   16 1  
    21   12   13 1  
    22   13   26 1  
    23   14   26 2  
    24   17   18 1  
    25   18   19 1  
    26   19   20 1  
    27   19   21 1  
    28   22   23 1  
    29   25   28 1  
    30   26   27 1  
    31   27   28 2  
    32    1   29 1  
    33    2   30 1  
    34    3   31 1  
    35    5   32 1  
    36    7   33 1  
    37   11   34 1  
    38   15   35 1  
    39   19   36 1  
    40   22   37 1  
    41   25   38 1  
    42   28   39 1  
@<TRIPOS>SUBSTRUCTURE
     1 KES         1

