### 
### Created by X-TOOL on Mon Aug  2 16:15:11 2021
### 

@<TRIPOS>MOLECULE
6n7a_ligand
   45    48     1     0     0
SMALL
GAST_HUCK


@<TRIPOS>ATOM
      1 C4          5.4570  -28.6570   23.1010 C.ar      1 KEV         0.0316
      2 C14         3.5210  -20.7580   20.8190 C.ar      1 KEV        -0.0582
      3 C5          5.3220  -27.3060   22.7810 C.ar      1 KEV         0.0853
      4 C6          4.1640  -26.9240   22.0530 C.ar      1 KEV         0.0275
      5 C11         5.7120  -22.0120   22.0340 C.ar      1 KEV         0.0160
      6 C7          6.4210  -26.3610   23.1680 C.2       1 KEV         0.2309
      7 C8          7.1150  -24.0000   23.0090 C.2       1 KEV         0.0827
      8 C9          8.3500  -24.0120   23.5990 C.2       1 KEV         0.0614
      9 C10         6.8760  -22.6470   22.6800 C.2       1 KEV         0.0608
     10 C12         5.0650  -20.9380   22.6600 C.ar      1 KEV        -0.0505
     11 C13         3.9980  -20.3250   22.0370 C.ar      1 KEV         0.0273
     12 N1          4.5780  -29.6160   22.7580 N.ar      1 KEV        -0.2894
     13 N2          3.7420  -25.7180   21.6090 N.2       1 KEV        -0.3197
     14 C3          3.4980  -29.2600   22.0560 C.ar      1 KEV         0.0305
     15 N3          6.2410  -25.0620   22.7690 N.am      1 KEV        -0.2496
     16 CL          3.1860  -19.0190   22.8470 Cl        1 KEV        -0.0813
     17 C15         4.1510  -21.8170   20.1840 C.ar      1 KEV        -0.0328
     18 C16         5.2460  -22.4330   20.7780 C.ar      1 KEV         0.0990
     19 O1          5.9540  -23.4550   20.2070 O.3       1 KEV        -0.3196
     20 C17         5.6120  -23.8460   18.8630 C.3       1 KEV         0.0600
     21 N5          7.9060  -21.8800   23.0420 N.2       1 KEV        -0.2225
     22 N4          8.7870  -22.7450   23.6000 N.pl3     1 KEV        -0.2268
     23 C18        10.0550  -22.2430   24.1260 C.3       1 KEV         0.0541
     24 O           7.4350  -26.7430   23.7600 O.2       1 KEV        -0.3750
     25 C2          3.2390  -27.9420   21.6950 C.ar      1 KEV         0.0664
     26 C1          2.1940  -27.2470   20.9830 C.2       1 KEV         0.1194
     27 N           2.5630  -25.9580   20.9710 N.pl3     1 KEV        -0.2299
     28 C           1.7670  -24.8460   20.4510 C.3       1 KEV         0.0716
     29 H1          6.3325  -28.9554   23.6663 H         1 KEV         0.0878
     30 H2          2.6636  -20.2764   20.3629 H         1 KEV         0.0581
     31 H3          8.8752  -24.8816   23.9912 H         1 KEV         0.0766
     32 H4          5.4018  -20.5904   23.6300 H         1 KEV         0.0580
     33 H5          2.7957  -30.0293   21.7559 H         1 KEV         0.0869
     34 H6          5.4061  -24.8558   22.2586 H         1 KEV         0.2136
     35 H7          3.7892  -22.1650   19.2232 H         1 KEV         0.0537
     36 H8          6.2635  -24.6732   18.5448 H         1 KEV         0.0579
     37 H9          5.7492  -22.9900   18.1859 H         1 KEV         0.0579
     38 H10         4.5623  -24.1733   18.8322 H         1 KEV         0.0579
     39 H11        10.1103  -21.1551   23.9733 H         1 KEV         0.0595
     40 H12        10.8890  -22.7300   23.5994 H         1 KEV         0.0595
     41 H13        10.1200  -22.4660   25.2012 H         1 KEV         0.0595
     42 H14         1.2944  -27.6788   20.5469 H         1 KEV         0.1384
     43 H15         0.8572  -25.2383   19.9732 H         1 KEV         0.0685
     44 H16         2.3579  -24.2867   19.7107 H         1 KEV         0.0685
     45 H17         1.4874  -24.1769   21.2781 H         1 KEV         0.0685
@<TRIPOS>BOND
     1    3    1 ar 
     2    1   12 ar 
     3   11    2 ar 
     4    2   17 ar 
     5    3    4 ar 
     6    6    3 1  
     7    4   13 2  
     8    4   25 ar 
     9    5    9 1  
    10   10    5 ar 
    11    5   18 ar 
    12   15    6 am 
    13    6   24 2  
    14    7    8 2  
    15    9    7 1  
    16    7   15 1  
    17    8   22 1  
    18    9   21 2  
    19   10   11 ar 
    20   11   16 1  
    21   12   14 ar 
    22   13   27 1  
    23   14   25 ar 
    24   17   18 ar 
    25   18   19 1  
    26   19   20 1  
    27   21   22 1  
    28   22   23 1  
    29   25   26 2  
    30   26   27 1  
    31   27   28 1  
    32    1   29 1  
    33    2   30 1  
    34    8   31 1  
    35   10   32 1  
    36   14   33 1  
    37   15   34 1  
    38   17   35 1  
    39   20   36 1  
    40   20   37 1  
    41   20   38 1  
    42   23   39 1  
    43   23   40 1  
    44   23   41 1  
    45   26   42 1  
    46   28   43 1  
    47   28   44 1  
    48   28   45 1  
@<TRIPOS>SUBSTRUCTURE
     1 KEV         1

