### 
### Created by X-TOOL on Mon Aug  2 16:15:12 2021
### 

@<TRIPOS>MOLECULE
6n7b_ligand
   42    45     1     0     0
SMALL
GAST_HUCK


@<TRIPOS>ATOM
      1 C4        -22.1880    3.4350   -1.4600 C.ar      1 KEY         0.0160
      2 C14       -29.2730    5.6240   -1.2670 C.ar      1 KEY         0.0305
      3 C5        -21.1450    4.0980   -0.8090 C.ar      1 KEY        -0.0505
      4 C6        -20.5010    5.1430   -1.4360 C.ar      1 KEY         0.0273
      5 C11       -26.4710    2.6010   -0.3550 C.2       1 KEY         0.2309
      6 C7        -20.8800    5.5830   -2.6930 C.ar      1 KEY        -0.0582
      7 C8        -21.9270    4.9550   -3.3410 C.ar      1 KEY        -0.0328
      8 C9        -22.5800    3.8850   -2.7360 C.ar      1 KEY         0.0990
      9 C10       -24.0640    3.6250   -4.6050 C.3       1 KEY         0.0600
     10 C12       -27.4150    3.7300   -0.6340 C.ar      1 KEY         0.0853
     11 C13       -28.7720    3.5980   -0.3330 C.ar      1 KEY         0.0316
     12 N1        -21.9430    1.2070   -0.5650 N.2       1 KEY        -0.2225
     13 N2        -25.1520    2.8130   -0.6820 N.am      1 KEY        -0.2496
     14 C3        -22.7520    2.2290   -0.8270 C.2       1 KEY         0.0608
     15 N3        -29.6880    4.5270   -0.6250 N.ar      1 KEY        -0.2894
     16 O1        -26.8750    1.5610    0.1470 O.2       1 KEY        -0.3750
     17 C16       -27.0360    4.9100   -1.3040 C.ar      1 KEY         0.0274
     18 N4        -25.8240    5.3460   -1.7200 N.2       1 KEY        -0.3218
     19 N5        -25.9090    6.5640   -2.3270 N.pl3     1 KEY        -0.2419
     20 C17       -27.1840    6.9010   -2.2990 C.2       1 KEY         0.1174
     21 C15       -27.9690    5.9120   -1.6540 C.ar      1 KEY         0.0663
     22 C2        -24.0830    1.8990   -0.5800 C.2       1 KEY         0.0827
     23 C1        -24.0720    0.5870   -0.1930 C.2       1 KEY         0.0614
     24 N         -22.7840    0.2150   -0.1830 N.pl3     1 KEY        -0.2268
     25 C         -22.2340   -1.0730    0.2170 C.3       1 KEY         0.0541
     26 O         -23.6510    3.2390   -3.2940 O.3       1 KEY        -0.3196
     27 CL        -19.1370    5.8850   -0.6500 Cl        1 KEY        -0.0813
     28 H1        -30.0285    6.3624   -1.5100 H         1 KEY         0.0869
     29 H2        -20.8431    3.7917    0.1860 H         1 KEY         0.0580
     30 H3        -20.3615    6.4106   -3.1635 H         1 KEY         0.0581
     31 H4        -22.2398    5.2961   -4.3212 H         1 KEY         0.0537
     32 H5        -24.9295    3.0185   -4.9102 H         1 KEY         0.0579
     33 H6        -23.2367    3.4651   -5.3120 H         1 KEY         0.0579
     34 H7        -24.3442    4.6887   -4.6029 H         1 KEY         0.0579
     35 H8        -29.1008    2.6928    0.1646 H         1 KEY         0.0878
     36 H9        -24.9245    3.7213   -1.0331 H         1 KEY         0.2136
     37 H10       -25.1334    7.1111   -2.7271 H         1 KEY         0.2937
     38 H11       -27.5835    7.8231   -2.7186 H         1 KEY         0.1383
     39 H12       -24.9341   -0.0299    0.0563 H         1 KEY         0.0766
     40 H13       -23.0542   -1.7522    0.4928 H         1 KEY         0.0595
     41 H14       -21.5666   -0.9346    1.0803 H         1 KEY         0.0595
     42 H15       -21.6660   -1.5051   -0.6200 H         1 KEY         0.0595
@<TRIPOS>BOND
     1    1    3 ar 
     2    1    8 ar 
     3   14    1 1  
     4   15    2 ar 
     5    2   21 ar 
     6    3    4 ar 
     7    4    6 ar 
     8    4   27 1  
     9    5   10 1  
    10   13    5 am 
    11    5   16 2  
    12    7    6 ar 
    13    8    7 ar 
    14    8   26 1  
    15   26    9 1  
    16   10   11 ar 
    17   10   17 ar 
    18   11   15 ar 
    19   14   12 2  
    20   12   24 1  
    21   22   13 1  
    22   14   22 1  
    23   17   18 2  
    24   17   21 ar 
    25   18   19 1  
    26   19   20 1  
    27   20   21 2  
    28   22   23 2  
    29   23   24 1  
    30   24   25 1  
    31    2   28 1  
    32    3   29 1  
    33    6   30 1  
    34    7   31 1  
    35    9   32 1  
    36    9   33 1  
    37    9   34 1  
    38   11   35 1  
    39   13   36 1  
    40   19   37 1  
    41   20   38 1  
    42   23   39 1  
    43   25   40 1  
    44   25   41 1  
    45   25   42 1  
@<TRIPOS>SUBSTRUCTURE
     1 KEY         1

