### 
### Created by X-TOOL on Mon Aug  2 16:15:12 2021
### 

@<TRIPOS>MOLECULE
6n7c_ligand
   45    49     1     0     0
SMALL
GAST_HUCK


@<TRIPOS>ATOM
      1 C4          4.7810  -20.3820   64.1250 C.ar      1 KF1        -0.0628
      2 C14         0.6920  -22.9310   70.8030 C.2       1 KF1         0.1945
      3 C5          5.2280  -21.0330   63.0050 C.ar      1 KF1        -0.0678
      4 C6          4.6880  -22.2620   62.6400 C.ar      1 KF1        -0.0676
      5 C11         0.3950  -22.5780   67.0540 C.2       1 KF1         0.1046
      6 C7          3.6840  -22.8300   63.3820 C.ar      1 KF1        -0.0621
      7 C8          3.1650  -22.1720   64.5250 C.ar      1 KF1        -0.0322
      8 C9          2.0930  -22.6970   65.2900 C.ar      1 KF1        -0.0562
      9 C10         1.5850  -22.0160   66.3750 C.ar      1 KF1         0.0305
     10 C12         0.0870  -22.7940   68.4200 C.2       1 KF1         0.0896
     11 C13        -1.2520  -23.2580   68.4390 C.2       1 KF1         0.0280
     12 N1         -0.6700  -22.9100   66.3080 N.pl3     1 KF1        -0.2272
     13 N2          0.9700  -22.5510   69.5110 N.am      1 KF1        -0.2532
     14 C3          3.7280  -20.9240   64.9070 C.ar      1 KF1        -0.0328
     15 N3          2.7710  -22.4450   73.8400 N.2       1 KF1        -0.2029
     16 O1         -0.3330  -23.5500   71.1160 O.2       1 KF1        -0.4001
     17 C15         1.7200  -22.5890   71.8210 C.2       1 KF1         0.0790
     18 C17         2.9540  -21.9310   71.6230 C.2       1 KF1         0.1865
     19 N5          3.5100  -21.3800   70.5110 N.2       1 KF1        -0.2613
     20 C18         4.6670  -20.7510   70.7010 C.2       1 KF1         0.0175
     21 C19         5.3170  -20.6360   71.9490 C.2       1 KF1         0.0107
     22 C20         4.7440  -21.2070   73.0340 C.2       1 KF1         0.1171
     23 N4          3.5440  -21.8590   72.8530 N.pl3     1 KF1        -0.1273
     24 C16         1.6820  -22.8600   73.2040 C.2       1 KF1         0.0044
     25 N          -1.6390  -23.3100   67.1610 N.2       1 KF1        -0.2227
     26 C1          2.1650  -20.7830   66.7500 C.ar      1 KF1         0.0989
     27 O           1.6100  -20.1910   67.8570 O.3       1 KF1        -0.3196
     28 C           2.1310  -18.9320   68.2730 C.3       1 KF1         0.0602
     29 C2          3.2030  -20.2550   66.0350 C.ar      1 KF1        -0.0308
     30 H1          5.2367  -19.4427   64.4168 H         1 KF1         0.0582
     31 H2          6.0082  -20.5869   62.3989 H         1 KF1         0.0587
     32 H3          5.0638  -22.7749   61.7620 H         1 KF1         0.0579
     33 H4          3.2826  -23.7939   63.0907 H         1 KF1         0.0593
     34 H5          1.6640  -23.6540   65.0157 H         1 KF1         0.0535
     35 H6         -1.8439  -23.5186   69.3151 H         1 KF1         0.0639
     36 H7         -0.7363  -22.8680   65.2810 H         1 KF1         0.2456
     37 H8          1.8338  -22.0814   69.3285 H         1 KF1         0.2161
     38 H9          5.1448  -20.2941   69.8356 H         1 KF1         0.1000
     39 H10         6.2602  -20.0988   72.0368 H         1 KF1         0.0622
     40 H11         5.2145  -21.1530   74.0146 H         1 KF1         0.1382
     41 H12         0.8483  -23.3568   73.6980 H         1 KF1         0.0692
     42 H13         1.5890  -18.5880   69.1663 H         1 KF1         0.0580
     43 H14         2.0064  -18.1980   67.4633 H         1 KF1         0.0580
     44 H15         3.1998  -19.0379   68.5107 H         1 KF1         0.0580
     45 H16         3.6309  -19.3064   66.3386 H         1 KF1         0.0484
@<TRIPOS>BOND
     1    1    3 ar 
     2   14    1 ar 
     3    2   13 am 
     4    2   16 2  
     5   17    2 1  
     6    4    3 ar 
     7    6    4 ar 
     8    5    9 1  
     9   10    5 2  
    10    5   12 1  
    11    7    6 ar 
    12    8    7 ar 
    13    7   14 ar 
    14    9    8 ar 
    15    9   26 ar 
    16   10   11 1  
    17   13   10 1  
    18   11   25 2  
    19   25   12 1  
    20   14   29 ar 
    21   15   23 1  
    22   24   15 2  
    23   17   18 2  
    24   17   24 1  
    25   18   19 1  
    26   18   23 1  
    27   19   20 2  
    28   20   21 1  
    29   21   22 2  
    30   22   23 1  
    31   26   27 1  
    32   26   29 ar 
    33   27   28 1  
    34    1   30 1  
    35    3   31 1  
    36    4   32 1  
    37    6   33 1  
    38    8   34 1  
    39   11   35 1  
    40   12   36 1  
    41   13   37 1  
    42   20   38 1  
    43   21   39 1  
    44   22   40 1  
    45   24   41 1  
    46   28   42 1  
    47   28   43 1  
    48   28   44 1  
    49   29   45 1  
@<TRIPOS>SUBSTRUCTURE
     1 KF1         1

