### 
### Created by X-TOOL on Mon Aug  2 16:15:12 2021
### 

@<TRIPOS>MOLECULE
6n7d_ligand
   42    46     1     0     0
SMALL
GAST_HUCK


@<TRIPOS>ATOM
      1 C4        -20.8610    4.7670   -1.4030 C.ar      1 KF4         0.0166
      2 C14       -26.6140    6.3430   -2.3340 C.2       1 KF4         0.0175
      3 C5        -21.5300    3.6400   -0.9100 C.ar      1 KF4        -0.0520
      4 C6        -22.6370    3.1100   -1.5760 C.ar      1 KF4         0.0271
      5 C11       -27.8790    3.4600   -0.5310 C.2       1 KF4         0.0788
      6 C7        -23.2570    1.8670   -1.0560 C.2       1 KF4         0.1004
      7 C8        -24.6010    1.6090   -0.7180 C.2       1 KF4         0.0862
      8 C9        -24.6480    0.2310   -0.3390 C.2       1 KF4         0.0250
      9 C10       -26.9170    2.3670   -0.2810 C.2       1 KF4         0.1934
     10 C12       -29.2560    3.4920   -0.2540 C.2       1 KF4         0.0043
     11 C13       -27.6200    4.6760   -1.1650 C.2       1 KF4         0.1864
     12 N1        -22.5450    0.7390   -0.9030 N.pl3     1 KF4        -0.2292
     13 N2        -25.6620    2.5480   -0.8090 N.am      1 KF4        -0.2551
     14 C3        -21.3240    5.3860   -2.5800 C.ar      1 KF4        -0.0281
     15 N3        -29.8360    4.6110   -0.6710 N.2       1 KF4        -0.2029
     16 O1        -27.2510    1.3740    0.3600 O.2       1 KF4        -0.4007
     17 N5        -26.4820    5.1790   -1.7110 N.2       1 KF4        -0.2613
     18 C15       -27.8300    7.0670   -2.4300 C.2       1 KF4         0.0107
     19 C16       -28.9440    6.5450   -1.8700 C.2       1 KF4         0.1171
     20 N4        -28.8270    5.3320   -1.2320 N.pl3     1 KF4        -0.1273
     21 N         -23.4000   -0.2220   -0.4760 N.2       1 KF4        -0.2256
     22 C1        -23.0830    3.7460   -2.7520 C.ar      1 KF4         0.0966
     23 O         -24.1400    3.1500   -3.3880 O.3       1 KF4        -0.3215
     24 C         -24.5020    3.6290   -4.6870 C.3       1 KF4         0.0594
     25 C17       -19.7500    5.5530   -1.0040 C.2       1 KF4         0.1021
     26 N6        -19.5420    6.5510   -1.8420 N.pl3     1 KF4        -0.2465
     27 N7        -20.5010    6.4430   -2.8060 N.2       1 KF4        -0.3400
     28 C2        -22.4410    4.8760   -3.2340 C.ar      1 KF4        -0.0340
     29 H1        -25.7294    6.7713   -2.8031 H         1 KF4         0.1000
     30 H2        -21.1828    3.1713    0.0037 H         1 KF4         0.0554
     31 H3        -25.5198   -0.3313   -0.0078 H         1 KF4         0.0632
     32 H4        -29.7896    2.6864    0.2482 H         1 KF4         0.0692
     33 H5        -21.5363    0.6251   -1.0777 H         1 KF4         0.2451
     34 H6        -25.4824    3.4043   -1.2932 H         1 KF4         0.2148
     35 H7        -27.8654    8.0257   -2.9454 H         1 KF4         0.0622
     36 H8        -29.8991    7.0657   -1.9220 H         1 KF4         0.1382
     37 H9        -25.3617    3.0550   -5.0630 H         1 KF4         0.0578
     38 H10       -23.6511    3.5066   -5.3732 H         1 KF4         0.0578
     39 H11       -24.7716    4.6935   -4.6233 H         1 KF4         0.0578
     40 H12       -19.1458    5.3579   -0.1192 H         1 KF4         0.1352
     41 H13       -18.8042    7.2671   -1.7805 H         1 KF4         0.2933
     42 H14       -22.8120    5.3659   -4.1270 H         1 KF4         0.0525
@<TRIPOS>BOND
     1    3    1 ar 
     2    1   14 ar 
     3    1   25 2  
     4   17    2 2  
     5    2   18 1  
     6    4    3 ar 
     7    6    4 1  
     8    4   22 ar 
     9    5    9 1  
    10    5   10 1  
    11   11    5 2  
    12    7    6 2  
    13    6   12 1  
    14    7    8 1  
    15   13    7 1  
    16    8   21 2  
    17    9   13 am 
    18    9   16 2  
    19   10   15 2  
    20   11   17 1  
    21   11   20 1  
    22   12   21 1  
    23   14   27 2  
    24   14   28 ar 
    25   15   20 1  
    26   18   19 2  
    27   19   20 1  
    28   22   23 1  
    29   22   28 ar 
    30   23   24 1  
    31   25   26 1  
    32   26   27 1  
    33    2   29 1  
    34    3   30 1  
    35    8   31 1  
    36   10   32 1  
    37   12   33 1  
    38   13   34 1  
    39   18   35 1  
    40   19   36 1  
    41   24   37 1  
    42   24   38 1  
    43   24   39 1  
    44   25   40 1  
    45   26   41 1  
    46   28   42 1  
@<TRIPOS>SUBSTRUCTURE
     1 KF4         1

