### 
### Created by X-TOOL on Mon Aug  2 16:15:14 2021
### 

@<TRIPOS>MOLECULE
6n8x_ligand
   52    54     1     0     0
SMALL
GAST_HUCK


@<TRIPOS>ATOM
      1 C4          0.7640   10.2800  221.1870 C.ar      1 KFY         0.1543
      2 C5         -0.0520   10.9900  220.3700 C.ar      1 KFY         0.0921
      3 C6         -1.3670   11.1150  220.7120 C.ar      1 KFY         0.1251
      4 C8          1.9420   10.9640  219.5410 C.2       1 KFY         0.1361
      5 N1         -1.8090   10.5840  221.8510 N.ar      1 KFY        -0.2729
      6 N3          0.3520    9.7170  222.3340 N.ar      1 KFY        -0.2744
      7 CAA         4.9290    6.6450  219.2630 C.3       1 KFY        -0.0652
      8 CAF         4.7150    7.9840  219.9760 C.3       1 KFY        -0.0535
      9 CAG         3.3330    8.2260  220.5570 C.3       1 KFY        -0.0259
     10 CAK         3.1530    9.5750  221.2820 C.3       1 KFY         0.0604
     11 N9          1.9880   10.2620  220.6640 N.pl3     1 KFY        -0.2160
     12 C2         -0.9730    9.8770  222.6940 C.ar      1 KFY         0.0509
     13 N6         -2.2240   11.7870  219.9290 N.pl3     1 KFY        -0.3168
     14 N7          0.7030   11.4150  219.3310 N.2       1 KFY        -0.3061
     15 CAL         3.1400   11.1890  218.6070 C.3       1 KFY         0.0534
     16 CAS         4.2820   11.8080  219.2310 C.ar      1 KFY        -0.0506
     17 CAJ         5.5510   11.2850  218.9710 C.ar      1 KFY        -0.0477
     18 CAI         4.1560   12.9280  220.0730 C.ar      1 KFY        -0.0477
     19 CAU         5.3000   13.5070  220.6400 C.ar      1 KFY         0.1054
     20 OAP         5.2600   14.5850  221.4790 O.3       1 KFY        -0.3296
     21 CAB         4.0470   15.3260  221.4410 C.3       1 KFY         0.0563
     22 CAX         6.5520   12.9720  220.3620 C.ar      1 KFY         0.1399
     23 OAR         7.7140   13.4810  220.9150 O.3       1 KFY        -0.3338
     24 CAD         7.9780   14.8440  220.5790 C.3       1 KFY         0.0527
     25 CAV         6.6800   11.8680  219.5430 C.ar      1 KFY         0.1054
     26 OAQ         7.9620   11.4270  219.3420 O.3       1 KFY        -0.3296
     27 CAC         8.0760   10.3550  218.3860 C.3       1 KFY         0.0563
     28 H1          5.9620    6.5898  218.8889 H         1 KFY         0.0230
     29 H2          4.2285    6.5630  218.4189 H         1 KFY         0.0230
     30 H3          4.7503    5.8208  219.9692 H         1 KFY         0.0230
     31 H4          4.9182    8.7857  219.2507 H         1 KFY         0.0263
     32 H5          5.4400    8.0435  220.8011 H         1 KFY         0.0263
     33 H6          3.1208    7.4218  221.2769 H         1 KFY         0.0291
     34 H7          2.6051    8.1825  219.7334 H         1 KFY         0.0291
     35 H8          4.0578   10.1892  221.1629 H         1 KFY         0.0609
     36 H9          2.9640    9.4041  222.3521 H         1 KFY         0.0609
     37 H10        -1.3489    9.4561  223.6195 H         1 KFY         0.0978
     38 H11        -3.2134   11.8716  220.2024 H         1 KFY         0.1811
     39 H12        -1.8926   12.2184  219.0544 H         1 KFY         0.1811
     40 H13         2.8118   11.8329  217.7777 H         1 KFY         0.0663
     41 H14         3.4538   10.2120  218.2107 H         1 KFY         0.0663
     42 H15         5.6578   10.4231  218.3223 H         1 KFY         0.0371
     43 H16         3.1766   13.3424  220.2829 H         1 KFY         0.0371
     44 H17         4.1098   16.1685  222.1455 H         1 KFY         0.0572
     45 H18         3.2090   14.6724  221.7248 H         1 KFY         0.0572
     46 H19         3.8838   15.7104  220.4234 H         1 KFY         0.0572
     47 H20         8.9148   15.1648  221.0580 H         1 KFY         0.0565
     48 H21         7.1501   15.4759  220.9330 H         1 KFY         0.0565
     49 H22         8.0725   14.9409  219.4874 H         1 KFY         0.0565
     50 H23         9.1320   10.0638  218.2859 H         1 KFY         0.0572
     51 H24         7.6944   10.6913  217.4107 H         1 KFY         0.0572
     52 H25         7.4887    9.4915  218.7316 H         1 KFY         0.0572
@<TRIPOS>BOND
     1    1    2 ar 
     2    1    6 ar 
     3   11    1 1  
     4    2    3 ar 
     5   14    2 1  
     6    3    5 ar 
     7    3   13 1  
     8   11    4 1  
     9    4   14 2  
    10    4   15 1  
    11   12    5 ar 
    12    6   12 ar 
    13    8    7 1  
    14    9    8 1  
    15   10    9 1  
    16   10   11 1  
    17   15   16 1  
    18   16   17 ar 
    19   16   18 ar 
    20   17   25 ar 
    21   18   19 ar 
    22   19   20 1  
    23   19   22 ar 
    24   20   21 1  
    25   22   23 1  
    26   22   25 ar 
    27   23   24 1  
    28   25   26 1  
    29   26   27 1  
    30    7   28 1  
    31    7   29 1  
    32    7   30 1  
    33    8   31 1  
    34    8   32 1  
    35    9   33 1  
    36    9   34 1  
    37   10   35 1  
    38   10   36 1  
    39   12   37 1  
    40   13   38 1  
    41   13   39 1  
    42   15   40 1  
    43   15   41 1  
    44   17   42 1  
    45   18   43 1  
    46   21   44 1  
    47   21   45 1  
    48   21   46 1  
    49   24   47 1  
    50   24   48 1  
    51   24   49 1  
    52   27   50 1  
    53   27   51 1  
    54   27   52 1  
@<TRIPOS>SUBSTRUCTURE
     1 KFY         1

